MODEL 1
REMARK VINA RESULT:      -9.5      0.000      0.000
REMARK  Name = C:\Users\Docking\Desktop\test protocol\1iep_ligandH.pdb
REMARK  8 active torsions:
REMARK  status: ('A' for Active; 'I' for Inactive)
REMARK    1  A    between atoms: _5  and  _11
REMARK    2  A    between atoms: _19  and  _21
REMARK    3  A    between atoms: _22  and  _66
REMARK    4  A    between atoms: _27  and  _30
REMARK    5  A    between atoms: _32  and  _33
REMARK    6  A    between atoms: _38  and  _43
REMARK    7  A    between atoms: _43  and  _46
REMARK    8  A    between atoms: _53  and  _55
REMARK                            x       y       z     vdW  Elec       q    Type
REMARK                         _______ _______ _______ _____ _____    ______ ____
ROOT
ATOM     10  C   UNL     1      19.441  20.214  22.186  0.00  0.00    +0.038 A 
ATOM     11  C   UNL     1      20.053  21.448  21.848  0.00  0.00    +0.047 A 
ATOM     12  C   UNL     1      19.579  22.240  20.723  0.00  0.00    +0.035 A 
ATOM     32  C   UNL     1      18.477  21.746  19.966  0.00  0.00    +0.024 A 
ATOM     33  C   UNL     1      17.844  20.493  20.295  0.00  0.00    +0.007 A 
ATOM     34  C   UNL     1      18.309  19.707  21.401  0.00  0.00    -0.029 A 
ATOM     35  C   UNL     1      17.596  18.368  21.704  0.00  0.00    +0.045 C 
ENDROOT
BRANCH  10   9
ATOM      4  C   UNL     1      21.090  19.950  26.686  0.00  0.00    +0.077 A 
ATOM      5  C   UNL     1      20.980  21.368  26.872  0.00  0.00    +0.048 A 
ATOM      6  C   UNL     1      20.502  22.131  25.783  0.00  0.00    +0.116 A 
ATOM      7  N   UNL     1      20.161  21.510  24.600  0.00  0.00    -0.223 NA
ATOM      8  C   UNL     1      20.281  20.141  24.453  0.00  0.00    +0.220 A 
ATOM      9  N   UNL     1      19.937  19.495  23.276  0.00  0.00    -0.283 N 
ATOM     36  H   UNL     1      20.046  18.484  23.204  0.00  0.00    +0.155 HD
ATOM     37  N   UNL     1      20.737  19.390  25.478  0.00  0.00    -0.214 NA
BRANCH   4   3
ATOM      1  C   UNL     1      21.465  16.844  29.033  0.00  0.00    +0.020 A 
ATOM      2  C   UNL     1      20.956  17.715  27.999  0.00  0.00    +0.013 A 
ATOM      3  C   UNL     1      21.576  19.009  27.744  0.00  0.00    +0.019 A 
ATOM     38  C   UNL     1      22.719  19.394  28.559  0.00  0.00    +0.120 A 
ATOM     39  N   UNL     1      23.186  18.535  29.549  0.00  0.00    -0.263 NA
ATOM     40  C   UNL     1      22.596  17.288  29.804  0.00  0.00    +0.111 A 
ENDBRANCH   4   3
ENDBRANCH  10   9
BRANCH  12  13
ATOM     13  N   UNL     1      20.166  23.496  20.327  0.00  0.00    -0.281 N 
ATOM     14  C   UNL     1      20.795  24.433  21.131  0.00  0.00    +0.248 C 
ATOM     30  O   UNL     1      20.760  24.431  22.353  0.00  0.00    -0.270 OA
ATOM     31  H   UNL     1      20.111  23.722  19.334  0.00  0.00    +0.155 HD
BRANCH  14  15
ATOM     15  C   UNL     1      21.563  25.540  20.484  0.00  0.00    +0.037 A 
ATOM     16  C   UNL     1      22.913  25.892  20.932  0.00  0.00    +0.013 A 
ATOM     17  C   UNL     1      23.624  26.976  20.302  0.00  0.00    +0.005 A 
ATOM     18  C   UNL     1      22.987  27.715  19.215  0.00  0.00    -0.033 A 
ATOM     28  C   UNL     1      21.649  27.342  18.787  0.00  0.00    +0.005 A 
ATOM     29  C   UNL     1      20.948  26.281  19.403  0.00  0.00    +0.013 A 
BRANCH  18  19
ATOM     19  C   UNL     1      23.663  28.899  18.499  0.00  0.00    +0.119 C 
BRANCH  19  20
ATOM     20  N   UNL     1      24.621  28.577  17.400  0.00  0.00    -0.302 NA
ATOM     21  C   UNL     1      25.915  29.389  17.509  0.00  0.00    +0.066 C 
ATOM     22  C   UNL     1      26.915  29.023  16.364  0.00  0.00    -0.064 C 
ATOM     23  N   UNL     1      26.243  29.255  15.010  0.00  0.00    +0.379 N 
ATOM     24  C   UNL     1      27.199  28.967  13.932  0.00  0.00    -0.096 C 
ATOM     25  H   UNL     1      25.975  30.335  14.946  0.00  0.00    -0.082 HD
ATOM     26  C   UNL     1      24.954  28.453  14.894  0.00  0.00    -0.064 C 
ATOM     27  C   UNL     1      23.979  28.803  16.054  0.00  0.00    +0.066 C 
ENDBRANCH  19  20
ENDBRANCH  18  19
ENDBRANCH  14  15
ENDBRANCH  12  13
TORSDOF 6
ENDMDL
MODEL 2
REMARK VINA RESULT:      -9.4      3.738      7.031
REMARK  Name = C:\Users\Docking\Desktop\test protocol\1iep_ligandH.pdb
REMARK  8 active torsions:
REMARK  status: ('A' for Active; 'I' for Inactive)
REMARK    1  A    between atoms: _5  and  _11
REMARK    2  A    between atoms: _19  and  _21
REMARK    3  A    between atoms: _22  and  _66
REMARK    4  A    between atoms: _27  and  _30
REMARK    5  A    between atoms: _32  and  _33
REMARK    6  A    between atoms: _38  and  _43
REMARK    7  A    between atoms: _43  and  _46
REMARK    8  A    between atoms: _53  and  _55
REMARK                            x       y       z     vdW  Elec       q    Type
REMARK                         _______ _______ _______ _____ _____    ______ ____
ROOT
ATOM     10  C   UNL     1      22.870  25.820  21.352  0.00  0.00    +0.038 A 
ATOM     11  C   UNL     1      23.094  26.132  19.986  0.00  0.00    +0.047 A 
ATOM     12  C   UNL     1      23.740  27.375  19.594  0.00  0.00    +0.035 A 
ATOM     32  C   UNL     1      24.148  28.277  20.620  0.00  0.00    +0.024 A 
ATOM     33  C   UNL     1      23.927  27.976  22.013  0.00  0.00    +0.007 A 
ATOM     34  C   UNL     1      23.288  26.753  22.405  0.00  0.00    -0.029 A 
ATOM     35  C   UNL     1      23.072  26.486  23.913  0.00  0.00    +0.045 C 
ENDROOT
BRANCH  10   9
ATOM      4  C   UNL     1      19.591  22.408  20.548  0.00  0.00    +0.077 A 
ATOM      5  C   UNL     1      19.060  23.103  19.411  0.00  0.00    +0.048 A 
ATOM      6  C   UNL     1      19.654  24.339  19.071  0.00  0.00    +0.116 A 
ATOM      7  N   UNL     1      20.701  24.833  19.818  0.00  0.00    -0.223 NA
ATOM      8  C   UNL     1      21.188  24.138  20.910  0.00  0.00    +0.220 A 
ATOM      9  N   UNL     1      22.245  24.612  21.671  0.00  0.00    -0.283 N 
ATOM     36  H   UNL     1      22.570  24.074  22.474  0.00  0.00    +0.155 HD
ATOM     37  N   UNL     1      20.637  22.957  21.257  0.00  0.00    -0.214 NA
BRANCH   4   3
ATOM      1  C   UNL     1      17.760  18.956  20.728  0.00  0.00    +0.020 A 
ATOM      2  C   UNL     1      18.235  20.220  20.214  0.00  0.00    +0.013 A 
ATOM      3  C   UNL     1      19.072  21.090  21.031  0.00  0.00    +0.019 A 
ATOM     38  C   UNL     1      19.413  20.647  22.375  0.00  0.00    +0.120 A 
ATOM     39  N   UNL     1      18.940  19.425  22.844  0.00  0.00    -0.263 NA
ATOM     40  C   UNL     1      18.133  18.581  22.067  0.00  0.00    +0.111 A 
ENDBRANCH   4   3
ENDBRANCH  10   9
BRANCH  12  13
ATOM     13  N   UNL     1      23.986  27.749  18.224  0.00  0.00    -0.281 N 
ATOM     14  C   UNL     1      23.326  28.706  17.471  0.00  0.00    +0.248 C 
ATOM     30  O   UNL     1      22.277  29.240  17.797  0.00  0.00    -0.270 OA
ATOM     31  H   UNL     1      24.738  27.247  17.752  0.00  0.00    +0.155 HD
BRANCH  14  15
ATOM     15  C   UNL     1      23.909  29.119  16.158  0.00  0.00    +0.037 A 
ATOM     16  C   UNL     1      25.035  28.394  15.564  0.00  0.00    +0.013 A 
ATOM     17  C   UNL     1      25.589  28.824  14.305  0.00  0.00    +0.005 A 
ATOM     18  C   UNL     1      25.016  29.986  13.630  0.00  0.00    -0.033 A 
ATOM     28  C   UNL     1      23.896  30.684  14.239  0.00  0.00    +0.005 A 
ATOM     29  C   UNL     1      23.351  30.266  15.473  0.00  0.00    +0.013 A 
BRANCH  18  19
ATOM     19  C   UNL     1      25.557  30.529  12.294  0.00  0.00    +0.119 C 
BRANCH  19  20
ATOM     20  N   UNL     1      25.727  29.551  11.178  0.00  0.00    -0.302 NA
ATOM     21  C   UNL     1      24.667  28.447  11.214  0.00  0.00    +0.066 C 
ATOM     22  C   UNL     1      24.847  27.446  10.027  0.00  0.00    -0.064 C 
ATOM     23  N   UNL     1      26.254  26.847  10.076  0.00  0.00    +0.379 N 
ATOM     24  C   UNL     1      26.406  25.862   8.995  0.00  0.00    -0.096 C 
ATOM     25  H   UNL     1      26.357  26.306  11.045  0.00  0.00    -0.082 HD
ATOM     26  C   UNL     1      27.314  27.939  10.043  0.00  0.00    -0.064 C 
ATOM     27  C   UNL     1      27.109  28.945  11.209  0.00  0.00    +0.066 C 
ENDBRANCH  19  20
ENDBRANCH  18  19
ENDBRANCH  14  15
ENDBRANCH  12  13
TORSDOF 6
ENDMDL
MODEL 3
REMARK VINA RESULT:      -9.4      4.711      8.940
REMARK  Name = C:\Users\Docking\Desktop\test protocol\1iep_ligandH.pdb
REMARK  8 active torsions:
REMARK  status: ('A' for Active; 'I' for Inactive)
REMARK    1  A    between atoms: _5  and  _11
REMARK    2  A    between atoms: _19  and  _21
REMARK    3  A    between atoms: _22  and  _66
REMARK    4  A    between atoms: _27  and  _30
REMARK    5  A    between atoms: _32  and  _33
REMARK    6  A    between atoms: _38  and  _43
REMARK    7  A    between atoms: _43  and  _46
REMARK    8  A    between atoms: _53  and  _55
REMARK                            x       y       z     vdW  Elec       q    Type
REMARK                         _______ _______ _______ _____ _____    ______ ____
ROOT
ATOM     10  C   UNL     1      19.546  17.811  31.436  0.00  0.00    +0.038 A 
ATOM     11  C   UNL     1      19.608  18.709  30.340  0.00  0.00    +0.047 A 
ATOM     12  C   UNL     1      19.655  18.222  28.970  0.00  0.00    +0.035 A 
ATOM     32  C   UNL     1      19.636  16.813  28.753  0.00  0.00    +0.024 A 
ATOM     33  C   UNL     1      19.574  15.886  29.856  0.00  0.00    +0.007 A 
ATOM     34  C   UNL     1      19.530  16.361  31.209  0.00  0.00    -0.029 A 
ATOM     35  C   UNL     1      19.471  15.322  32.353  0.00  0.00    +0.045 C 
ENDROOT
BRANCH  10   9
ATOM      4  C   UNL     1      21.652  19.125  35.544  0.00  0.00    +0.077 A 
ATOM      5  C   UNL     1      22.946  18.710  35.082  0.00  0.00    +0.048 A 
ATOM      6  C   UNL     1      23.025  18.157  33.784  0.00  0.00    +0.116 A 
ATOM      7  N   UNL     1      21.889  18.033  33.014  0.00  0.00    -0.223 NA
ATOM      8  C   UNL     1      20.656  18.442  33.491  0.00  0.00    +0.220 A 
ATOM      9  N   UNL     1      19.502  18.334  32.730  0.00  0.00    -0.283 N 
ATOM     36  H   UNL     1      18.611  18.640  33.121  0.00  0.00    +0.155 HD
ATOM     37  N   UNL     1      20.554  18.972  34.727  0.00  0.00    -0.214 NA
BRANCH   4   3
ATOM      1  C   UNL     1      21.871  21.431  38.696  0.00  0.00    +0.020 A 
ATOM      2  C   UNL     1      22.147  20.884  37.387  0.00  0.00    +0.013 A 
ATOM      3  C   UNL     1      21.407  19.731  36.891  0.00  0.00    +0.019 A 
ATOM     38  C   UNL     1      20.386  19.150  37.750  0.00  0.00    +0.120 A 
ATOM     39  N   UNL     1      20.143  19.697  39.006  0.00  0.00    -0.263 NA
ATOM     40  C   UNL     1      20.850  20.806  39.495  0.00  0.00    +0.111 A 
ENDBRANCH   4   3
ENDBRANCH  10   9
BRANCH  12  13
ATOM     13  N   UNL     1      19.727  19.085  27.817  0.00  0.00    -0.281 N 
ATOM     14  C   UNL     1      20.852  19.667  27.258  0.00  0.00    +0.248 C 
ATOM     30  O   UNL     1      21.949  19.706  27.794  0.00  0.00    -0.270 OA
ATOM     31  H   UNL     1      18.839  19.292  27.358  0.00  0.00    +0.155 HD
BRANCH  14  15
ATOM     15  C   UNL     1      20.739  20.313  25.914  0.00  0.00    +0.037 A 
ATOM     16  C   UNL     1      20.664  21.769  25.775  0.00  0.00    +0.013 A 
ATOM     17  C   UNL     1      20.538  22.365  24.468  0.00  0.00    +0.005 A 
ATOM     18  C   UNL     1      20.488  21.503  23.290  0.00  0.00    -0.033 A 
ATOM     28  C   UNL     1      20.570  20.062  23.457  0.00  0.00    +0.005 A 
ATOM     29  C   UNL     1      20.692  19.474  24.736  0.00  0.00    +0.013 A 
BRANCH  18  19
ATOM     19  C   UNL     1      20.334  22.051  21.859  0.00  0.00    +0.119 C 
BRANCH  19  20
ATOM     20  N   UNL     1      20.692  23.483  21.633  0.00  0.00    -0.302 NA
ATOM     21  C   UNL     1      20.061  24.038  20.353  0.00  0.00    +0.066 C 
ATOM     22  C   UNL     1      20.427  25.544  20.144  0.00  0.00    -0.064 C 
ATOM     23  N   UNL     1      21.949  25.695  20.106  0.00  0.00    +0.379 N 
ATOM     24  C   UNL     1      22.296  27.100  19.852  0.00  0.00    -0.096 C 
ATOM     25  H   UNL     1      22.327  25.092  19.248  0.00  0.00    -0.082 HD
ATOM     26  C   UNL     1      22.586  25.143  21.374  0.00  0.00    -0.064 C 
ATOM     27  C   UNL     1      22.191  23.655  21.588  0.00  0.00    +0.066 C 
ENDBRANCH  19  20
ENDBRANCH  18  19
ENDBRANCH  14  15
ENDBRANCH  12  13
TORSDOF 6
ENDMDL
MODEL 4
REMARK VINA RESULT:      -9.4      3.973     14.403
REMARK  Name = C:\Users\Docking\Desktop\test protocol\1iep_ligandH.pdb
REMARK  8 active torsions:
REMARK  status: ('A' for Active; 'I' for Inactive)
REMARK    1  A    between atoms: _5  and  _11
REMARK    2  A    between atoms: _19  and  _21
REMARK    3  A    between atoms: _22  and  _66
REMARK    4  A    between atoms: _27  and  _30
REMARK    5  A    between atoms: _32  and  _33
REMARK    6  A    between atoms: _38  and  _43
REMARK    7  A    between atoms: _43  and  _46
REMARK    8  A    between atoms: _53  and  _55
REMARK                            x       y       z     vdW  Elec       q    Type
REMARK                         _______ _______ _______ _____ _____    ______ ____
ROOT
ATOM     10  C   UNL     1      25.382  29.446  14.116  0.00  0.00    +0.038 A 
ATOM     11  C   UNL     1      24.977  28.519  15.110  0.00  0.00    +0.047 A 
ATOM     12  C   UNL     1      23.934  28.851  16.068  0.00  0.00    +0.035 A 
ATOM     32  C   UNL     1      23.323  30.136  15.984  0.00  0.00    +0.024 A 
ATOM     33  C   UNL     1      23.724  31.091  14.981  0.00  0.00    +0.007 A 
ATOM     34  C   UNL     1      24.754  30.770  14.035  0.00  0.00    -0.029 A 
ATOM     35  C   UNL     1      25.148  31.836  12.985  0.00  0.00    +0.045 C 
ENDROOT
BRANCH  10   9
ATOM      4  C   UNL     1      26.864  27.602   9.940  0.00  0.00    +0.077 A 
ATOM      5  C   UNL     1      25.521  27.331   9.516  0.00  0.00    +0.048 A 
ATOM      6  C   UNL     1      24.478  27.674  10.405  0.00  0.00    +0.116 A 
ATOM      7  N   UNL     1      24.768  28.246  11.624  0.00  0.00    -0.223 NA
ATOM      8  C   UNL     1      26.074  28.493  12.003  0.00  0.00    +0.220 A 
ATOM      9  N   UNL     1      26.389  29.075  13.222  0.00  0.00    -0.283 N 
ATOM     36  H   UNL     1      27.365  29.234  13.467  0.00  0.00    +0.155 HD
ATOM     37  N   UNL     1      27.089  28.173  11.173  0.00  0.00    -0.214 NA
BRANCH   4   3
ATOM      1  C   UNL     1      29.442  27.489   7.000  0.00  0.00    +0.020 A 
ATOM      2  C   UNL     1      28.255  27.810   7.758  0.00  0.00    +0.013 A 
ATOM      3  C   UNL     1      28.073  27.300   9.111  0.00  0.00    +0.019 A 
ATOM     38  C   UNL     1      29.121  26.460   9.672  0.00  0.00    +0.120 A 
ATOM     39  N   UNL     1      30.252  26.165   8.918  0.00  0.00    -0.263 NA
ATOM     40  C   UNL     1      30.437  26.650   7.615  0.00  0.00    +0.111 A 
ENDBRANCH   4   3
ENDBRANCH  10   9
BRANCH  12  13
ATOM     13  N   UNL     1      23.486  27.953  17.103  0.00  0.00    -0.281 N 
ATOM     14  C   UNL     1      23.501  28.158  18.473  0.00  0.00    +0.248 C 
ATOM     30  O   UNL     1      24.103  29.064  19.030  0.00  0.00    -0.270 OA
ATOM     31  H   UNL     1      23.112  27.057  16.788  0.00  0.00    +0.155 HD
BRANCH  14  15
ATOM     15  C   UNL     1      22.751  27.211  19.353  0.00  0.00    +0.037 A 
ATOM     16  C   UNL     1      23.416  26.505  20.452  0.00  0.00    +0.013 A 
ATOM     17  C   UNL     1      22.673  25.584  21.275  0.00  0.00    +0.005 A 
ATOM     18  C   UNL     1      21.255  25.364  21.003  0.00  0.00    -0.033 A 
ATOM     28  C   UNL     1      20.619  26.082  19.910  0.00  0.00    +0.005 A 
ATOM     29  C   UNL     1      21.344  26.984  19.101  0.00  0.00    +0.013 A 
BRANCH  18  19
ATOM     19  C   UNL     1      20.389  24.384  21.817  0.00  0.00    +0.119 C 
BRANCH  19  20
ATOM     20  N   UNL     1      20.176  23.022  21.243  0.00  0.00    -0.302 NA
ATOM     21  C   UNL     1      18.946  22.969  20.332  0.00  0.00    +0.066 C 
ATOM     22  C   UNL     1      18.750  21.542  19.723  0.00  0.00    -0.064 C 
ATOM     23  N   UNL     1      18.632  20.519  20.854  0.00  0.00    +0.379 N 
ATOM     24  C   UNL     1      18.390  19.185  20.285  0.00  0.00    -0.096 C 
ATOM     25  H   UNL     1      17.740  20.793  21.465  0.00  0.00    -0.082 HD
ATOM     26  C   UNL     1      19.849  20.568  21.765  0.00  0.00    -0.064 C 
ATOM     27  C   UNL     1      20.052  21.996  22.342  0.00  0.00    +0.066 C 
ENDBRANCH  19  20
ENDBRANCH  18  19
ENDBRANCH  14  15
ENDBRANCH  12  13
TORSDOF 6
ENDMDL
MODEL 5
REMARK VINA RESULT:      -9.4      5.146     13.421
REMARK  Name = C:\Users\Docking\Desktop\test protocol\1iep_ligandH.pdb
REMARK  8 active torsions:
REMARK  status: ('A' for Active; 'I' for Inactive)
REMARK    1  A    between atoms: _5  and  _11
REMARK    2  A    between atoms: _19  and  _21
REMARK    3  A    between atoms: _22  and  _66
REMARK    4  A    between atoms: _27  and  _30
REMARK    5  A    between atoms: _32  and  _33
REMARK    6  A    between atoms: _38  and  _43
REMARK    7  A    between atoms: _43  and  _46
REMARK    8  A    between atoms: _53  and  _55
REMARK                            x       y       z     vdW  Elec       q    Type
REMARK                         _______ _______ _______ _____ _____    ______ ____
ROOT
ATOM     10  C   UNL     1      25.079  31.575  19.249  0.00  0.00    +0.038 A 
ATOM     11  C   UNL     1      24.206  30.460  19.330  0.00  0.00    +0.047 A 
ATOM     12  C   UNL     1      24.710  29.100  19.222  0.00  0.00    +0.035 A 
ATOM     32  C   UNL     1      26.110  28.911  19.034  0.00  0.00    +0.024 A 
ATOM     33  C   UNL     1      27.012  30.033  18.948  0.00  0.00    +0.007 A 
ATOM     34  C   UNL     1      26.520  31.377  19.052  0.00  0.00    -0.029 A 
ATOM     35  C   UNL     1      27.532  32.542  18.946  0.00  0.00    +0.045 C 
ENDROOT
BRANCH  10   9
ATOM      4  C   UNL     1      23.807  35.425  21.818  0.00  0.00    +0.077 A 
ATOM      5  C   UNL     1      24.226  34.816  23.047  0.00  0.00    +0.048 A 
ATOM      6  C   UNL     1      24.757  33.508  22.976  0.00  0.00    +0.116 A 
ATOM      7  N   UNL     1      24.857  32.867  21.761  0.00  0.00    -0.223 NA
ATOM      8  C   UNL     1      24.442  33.482  20.594  0.00  0.00    +0.220 A 
ATOM      9  N   UNL     1      24.541  32.859  19.359  0.00  0.00    -0.283 N 
ATOM     36  H   UNL     1      24.217  33.343  18.523  0.00  0.00    +0.155 HD
ATOM     37  N   UNL     1      23.930  34.730  20.635  0.00  0.00    -0.214 NA
BRANCH   4   3
ATOM      1  C   UNL     1      21.501  38.545  22.314  0.00  0.00    +0.020 A 
ATOM      2  C   UNL     1      22.017  37.201  22.433  0.00  0.00    +0.013 A 
ATOM      3  C   UNL     1      23.230  36.803  21.729  0.00  0.00    +0.019 A 
ATOM     38  C   UNL     1      23.902  37.798  20.906  0.00  0.00    +0.120 A 
ATOM     39  N   UNL     1      23.381  39.084  20.809  0.00  0.00    -0.263 NA
ATOM     40  C   UNL     1      22.214  39.478  21.481  0.00  0.00    +0.111 A 
ENDBRANCH   4   3
ENDBRANCH  10   9
BRANCH  12  13
ATOM     13  N   UNL     1      23.871  27.929  19.289  0.00  0.00    -0.281 N 
ATOM     14  C   UNL     1      23.337  27.327  20.416  0.00  0.00    +0.248 C 
ATOM     30  O   UNL     1      23.678  27.581  21.562  0.00  0.00    -0.270 OA
ATOM     31  H   UNL     1      23.642  27.491  18.396  0.00  0.00    +0.155 HD
BRANCH  14  15
ATOM     15  C   UNL     1      22.283  26.281  20.246  0.00  0.00    +0.037 A 
ATOM     16  C   UNL     1      22.407  24.967  20.881  0.00  0.00    +0.013 A 
ATOM     17  C   UNL     1      21.384  23.970  20.686  0.00  0.00    +0.005 A 
ATOM     18  C   UNL     1      20.225  24.286  19.854  0.00  0.00    -0.033 A 
ATOM     28  C   UNL     1      20.125  25.600  19.241  0.00  0.00    +0.005 A 
ATOM     29  C   UNL     1      21.126  26.579  19.428  0.00  0.00    +0.013 A 
BRANCH  18  19
ATOM     19  C   UNL     1      19.096  23.277  19.575  0.00  0.00    +0.119 C 
BRANCH  19  20
ATOM     20  N   UNL     1      19.198  21.938  20.228  0.00  0.00    -0.302 NA
ATOM     21  C   UNL     1      18.453  20.856  19.441  0.00  0.00    +0.066 C 
ATOM     22  C   UNL     1      18.590  19.458  20.126  0.00  0.00    -0.064 C 
ATOM     23  N   UNL     1      18.065  19.542  21.560  0.00  0.00    +0.379 N 
ATOM     24  C   UNL     1      18.138  18.215  22.189  0.00  0.00    -0.096 C 
ATOM     25  H   UNL     1      16.990  19.834  21.510  0.00  0.00    -0.082 HD
ATOM     26  C   UNL     1      18.798  20.618  22.349  0.00  0.00    -0.064 C 
ATOM     27  C   UNL     1      18.681  21.998  21.644  0.00  0.00    +0.066 C 
ENDBRANCH  19  20
ENDBRANCH  18  19
ENDBRANCH  14  15
ENDBRANCH  12  13
TORSDOF 6
ENDMDL
