MODEL 1
REMARK VINA RESULT:      -8.8      0.000      0.000
REMARK  Name = C:\Users\Docking\Desktop\test protocol\1iep_ligandH.pdb
REMARK  8 active torsions:
REMARK  status: ('A' for Active; 'I' for Inactive)
REMARK    1  A    between atoms: _5  and  _11
REMARK    2  A    between atoms: _19  and  _21
REMARK    3  A    between atoms: _22  and  _66
REMARK    4  A    between atoms: _27  and  _30
REMARK    5  A    between atoms: _32  and  _33
REMARK    6  A    between atoms: _38  and  _43
REMARK    7  A    between atoms: _43  and  _46
REMARK    8  A    between atoms: _53  and  _55
REMARK                            x       y       z     vdW  Elec       q    Type
REMARK                         _______ _______ _______ _____ _____    ______ ____
ROOT
ATOM     10  C   UNL     1      22.794 -30.898  -2.382  0.00  0.00    +0.038 A 
ATOM     11  C   UNL     1      23.489 -30.449  -1.231  0.00  0.00    +0.047 A 
ATOM     12  C   UNL     1      22.798 -30.237   0.031  0.00  0.00    +0.035 A 
ATOM     32  C   UNL     1      21.397 -30.496   0.086  0.00  0.00    +0.024 A 
ATOM     33  C   UNL     1      20.674 -30.952  -1.075  0.00  0.00    +0.007 A 
ATOM     34  C   UNL     1      21.351 -31.160  -2.324  0.00  0.00    -0.029 A 
ATOM     35  C   UNL     1      20.524 -31.644  -3.538  0.00  0.00    +0.045 C 
ENDROOT
BRANCH  10   9
ATOM      4  C   UNL     1      25.252 -29.225  -6.150  0.00  0.00    +0.077 A 
ATOM      5  C   UNL     1      25.076 -27.863  -5.735  0.00  0.00    +0.048 A 
ATOM      6  C   UNL     1      24.341 -27.636  -4.551  0.00  0.00    +0.116 A 
ATOM      7  N   UNL     1      23.825 -28.699  -3.841  0.00  0.00    -0.223 NA
ATOM      8  C   UNL     1      24.011 -30.000  -4.270  0.00  0.00    +0.220 A 
ATOM      9  N   UNL     1      23.508 -31.084  -3.568  0.00  0.00    -0.283 N 
ATOM     36  H   UNL     1      23.660 -32.029  -3.922  0.00  0.00    +0.155 HD
ATOM     37  N   UNL     1      24.708 -30.244  -5.399  0.00  0.00    -0.214 NA
BRANCH   4   3
ATOM      1  C   UNL     1      27.037 -31.351  -8.906  0.00  0.00    +0.020 A 
ATOM      2  C   UNL     1      26.304 -31.016  -7.707  0.00  0.00    +0.013 A 
ATOM      3  C   UNL     1      26.007 -29.628  -7.379  0.00  0.00    +0.019 A 
ATOM     38  C   UNL     1      26.469 -28.594  -8.292  0.00  0.00    +0.120 A 
ATOM     39  N   UNL     1      27.174 -28.946  -9.439  0.00  0.00    -0.263 NA
ATOM     40  C   UNL     1      27.467 -30.279  -9.764  0.00  0.00    +0.111 A 
ENDBRANCH   4   3
ENDBRANCH  10   9
BRANCH  12  13
ATOM     13  N   UNL     1      23.450 -29.774   1.231  0.00  0.00    -0.281 N 
ATOM     14  C   UNL     1      23.949 -28.509   1.495  0.00  0.00    +0.248 C 
ATOM     30  O   UNL     1      24.103 -27.637   0.653  0.00  0.00    -0.270 OA
ATOM     31  H   UNL     1      23.556 -30.463   1.976  0.00  0.00    +0.155 HD
BRANCH  14  15
ATOM     15  C   UNL     1      24.349 -28.169   2.894  0.00  0.00    +0.037 A 
ATOM     16  C   UNL     1      23.926 -28.995   4.028  0.00  0.00    +0.013 A 
ATOM     17  C   UNL     1      24.312 -28.634   5.370  0.00  0.00    +0.005 A 
ATOM     18  C   UNL     1      25.128 -27.441   5.584  0.00  0.00    -0.033 A 
ATOM     28  C   UNL     1      25.538 -26.643   4.440  0.00  0.00    +0.005 A 
ATOM     29  C   UNL     1      25.161 -26.993   3.124  0.00  0.00    +0.013 A 
BRANCH  18  19
ATOM     19  C   UNL     1      25.568 -26.969   6.982  0.00  0.00    +0.119 C 
BRANCH  19  20
ATOM     20  N   UNL     1      26.664 -27.734   7.648  0.00  0.00    -0.302 NA
ATOM     21  C   UNL     1      26.495 -27.772   9.170  0.00  0.00    +0.066 C 
ATOM     22  C   UNL     1      27.638 -28.596   9.849  0.00  0.00    -0.064 C 
ATOM     23  N   UNL     1      28.992 -27.994   9.469  0.00  0.00    +0.379 N 
ATOM     24  C   UNL     1      30.065 -28.730  10.152  0.00  0.00    -0.096 C 
ATOM     25  H   UNL     1      29.011 -26.944   9.842  0.00  0.00    -0.082 HD
ATOM     26  C   UNL     1      29.167 -27.950   7.958  0.00  0.00    -0.064 C 
ATOM     27  C   UNL     1      28.010 -27.154   7.290  0.00  0.00    +0.066 C 
ENDBRANCH  19  20
ENDBRANCH  18  19
ENDBRANCH  14  15
ENDBRANCH  12  13
TORSDOF 6
ENDMDL
MODEL 2
REMARK VINA RESULT:      -8.6      7.055     13.076
REMARK  Name = C:\Users\Docking\Desktop\test protocol\1iep_ligandH.pdb
REMARK  8 active torsions:
REMARK  status: ('A' for Active; 'I' for Inactive)
REMARK    1  A    between atoms: _5  and  _11
REMARK    2  A    between atoms: _19  and  _21
REMARK    3  A    between atoms: _22  and  _66
REMARK    4  A    between atoms: _27  and  _30
REMARK    5  A    between atoms: _32  and  _33
REMARK    6  A    between atoms: _38  and  _43
REMARK    7  A    between atoms: _43  and  _46
REMARK    8  A    between atoms: _53  and  _55
REMARK                            x       y       z     vdW  Elec       q    Type
REMARK                         _______ _______ _______ _____ _____    ______ ____
ROOT
ATOM     10  C   UNL     1      21.267 -29.599  -3.349  0.00  0.00    +0.038 A 
ATOM     11  C   UNL     1      20.142 -28.974  -3.944  0.00  0.00    +0.047 A 
ATOM     12  C   UNL     1      18.790 -29.432  -3.664  0.00  0.00    +0.035 A 
ATOM     32  C   UNL     1      18.621 -30.528  -2.768  0.00  0.00    +0.024 A 
ATOM     33  C   UNL     1      19.754 -31.175  -2.154  0.00  0.00    +0.007 A 
ATOM     34  C   UNL     1      21.089 -30.729  -2.430  0.00  0.00    -0.029 A 
ATOM     35  C   UNL     1      22.267 -31.465  -1.749  0.00  0.00    +0.045 C 
ENDROOT
BRANCH  10   9
ATOM      4  C   UNL     1      25.334 -29.706  -5.896  0.00  0.00    +0.077 A 
ATOM      5  C   UNL     1      24.891 -30.833  -6.666  0.00  0.00    +0.048 A 
ATOM      6  C   UNL     1      23.614 -31.359  -6.370  0.00  0.00    +0.116 A 
ATOM      7  N   UNL     1      22.845 -30.793  -5.377  0.00  0.00    -0.223 NA
ATOM      8  C   UNL     1      23.302 -29.708  -4.652  0.00  0.00    +0.220 A 
ATOM      9  N   UNL     1      22.543 -29.118  -3.654  0.00  0.00    -0.283 N 
ATOM     36  H   UNL     1      22.919 -28.323  -3.137  0.00  0.00    +0.155 HD
ATOM     37  N   UNL     1      24.520 -29.188  -4.914  0.00  0.00    -0.214 NA
BRANCH   4   3
ATOM      1  C   UNL     1      28.114 -26.991  -6.341  0.00  0.00    +0.020 A 
ATOM      2  C   UNL     1      26.812 -27.588  -6.151  0.00  0.00    +0.013 A 
ATOM      3  C   UNL     1      26.658 -29.036  -6.092  0.00  0.00    +0.019 A 
ATOM     38  C   UNL     1      27.851 -29.858  -6.230  0.00  0.00    +0.120 A 
ATOM     39  N   UNL     1      29.091 -29.256  -6.414  0.00  0.00    -0.263 NA
ATOM     40  C   UNL     1      29.252 -27.863  -6.474  0.00  0.00    +0.111 A 
ENDBRANCH   4   3
ENDBRANCH  10   9
BRANCH  12  13
ATOM     13  N   UNL     1      17.610 -28.842  -4.245  0.00  0.00    -0.281 N 
ATOM     14  C   UNL     1      16.621 -28.110  -3.608  0.00  0.00    +0.248 C 
ATOM     30  O   UNL     1      16.491 -28.034  -2.395  0.00  0.00    -0.270 OA
ATOM     31  H   UNL     1      17.489 -28.980  -5.249  0.00  0.00    +0.155 HD
BRANCH  14  15
ATOM     15  C   UNL     1      15.624 -27.369  -4.438  0.00  0.00    +0.037 A 
ATOM     16  C   UNL     1      14.444 -26.746  -3.831  0.00  0.00    +0.013 A 
ATOM     17  C   UNL     1      13.489 -26.051  -4.657  0.00  0.00    +0.005 A 
ATOM     18  C   UNL     1      13.710 -25.974  -6.099  0.00  0.00    -0.033 A 
ATOM     28  C   UNL     1      14.892 -26.596  -6.673  0.00  0.00    +0.005 A 
ATOM     29  C   UNL     1      15.830 -27.279  -5.867  0.00  0.00    +0.013 A 
BRANCH  18  19
ATOM     19  C   UNL     1      12.732 -25.270  -7.059  0.00  0.00    +0.119 C 
BRANCH  19  20
ATOM     20  N   UNL     1      12.866 -25.575  -8.515  0.00  0.00    -0.302 NA
ATOM     21  C   UNL     1      13.777 -24.574  -9.231  0.00  0.00    +0.066 C 
ATOM     22  C   UNL     1      13.923 -24.921 -10.748  0.00  0.00    -0.064 C 
ATOM     23  N   UNL     1      12.538 -24.953 -11.397  0.00  0.00    +0.379 N 
ATOM     24  C   UNL     1      12.676 -25.222 -12.835  0.00  0.00    -0.096 C 
ATOM     25  H   UNL     1      12.088 -23.939 -11.284  0.00  0.00    -0.082 HD
ATOM     26  C   UNL     1      11.624 -25.944 -10.689  0.00  0.00    -0.064 C 
ATOM     27  C   UNL     1      11.510 -25.608  -9.176  0.00  0.00    +0.066 C 
ENDBRANCH  19  20
ENDBRANCH  18  19
ENDBRANCH  14  15
ENDBRANCH  12  13
TORSDOF 6
ENDMDL
MODEL 3
REMARK VINA RESULT:      -8.2      7.455     12.906
REMARK  Name = C:\Users\Docking\Desktop\test protocol\1iep_ligandH.pdb
REMARK  8 active torsions:
REMARK  status: ('A' for Active; 'I' for Inactive)
REMARK    1  A    between atoms: _5  and  _11
REMARK    2  A    between atoms: _19  and  _21
REMARK    3  A    between atoms: _22  and  _66
REMARK    4  A    between atoms: _27  and  _30
REMARK    5  A    between atoms: _32  and  _33
REMARK    6  A    between atoms: _38  and  _43
REMARK    7  A    between atoms: _43  and  _46
REMARK    8  A    between atoms: _53  and  _55
REMARK                            x       y       z     vdW  Elec       q    Type
REMARK                         _______ _______ _______ _____ _____    ______ ____
ROOT
ATOM     10  C   UNL     1      21.316 -29.699  -3.251  0.00  0.00    +0.038 A 
ATOM     11  C   UNL     1      20.192 -29.078  -3.854  0.00  0.00    +0.047 A 
ATOM     12  C   UNL     1      18.840 -29.537  -3.575  0.00  0.00    +0.035 A 
ATOM     32  C   UNL     1      18.669 -30.629  -2.675  0.00  0.00    +0.024 A 
ATOM     33  C   UNL     1      19.801 -31.272  -2.054  0.00  0.00    +0.007 A 
ATOM     34  C   UNL     1      21.137 -30.825  -2.327  0.00  0.00    -0.029 A 
ATOM     35  C   UNL     1      22.313 -31.556  -1.638  0.00  0.00    +0.045 C 
ENDROOT
BRANCH  10   9
ATOM      4  C   UNL     1      25.347 -29.740  -5.857  0.00  0.00    +0.077 A 
ATOM      5  C   UNL     1      24.883 -30.830  -6.666  0.00  0.00    +0.048 A 
ATOM      6  C   UNL     1      23.604 -31.356  -6.374  0.00  0.00    +0.116 A 
ATOM      7  N   UNL     1      22.854 -30.824  -5.348  0.00  0.00    -0.223 NA
ATOM      8  C   UNL     1      23.332 -29.773  -4.586  0.00  0.00    +0.220 A 
ATOM      9  N   UNL     1      22.592 -29.217  -3.554  0.00  0.00    -0.283 N 
ATOM     36  H   UNL     1      22.983 -28.448  -3.011  0.00  0.00    +0.155 HD
ATOM     37  N   UNL     1      24.551 -29.254  -4.844  0.00  0.00    -0.214 NA
BRANCH   4   3
ATOM      1  C   UNL     1      28.141 -27.034  -6.268  0.00  0.00    +0.020 A 
ATOM      2  C   UNL     1      26.836 -27.626  -6.085  0.00  0.00    +0.013 A 
ATOM      3  C   UNL     1      26.674 -29.074  -6.044  0.00  0.00    +0.019 A 
ATOM     38  C   UNL     1      27.863 -29.901  -6.192  0.00  0.00    +0.120 A 
ATOM     39  N   UNL     1      29.107 -29.302  -6.368  0.00  0.00    -0.263 NA
ATOM     40  C   UNL     1      29.274 -27.910  -6.410  0.00  0.00    +0.111 A 
ENDBRANCH   4   3
ENDBRANCH  10   9
BRANCH  12  13
ATOM     13  N   UNL     1      17.661 -28.952  -4.164  0.00  0.00    -0.281 N 
ATOM     14  C   UNL     1      16.805 -28.017  -3.605  0.00  0.00    +0.248 C 
ATOM     30  O   UNL     1      16.803 -27.700  -2.425  0.00  0.00    -0.270 OA
ATOM     31  H   UNL     1      17.430 -29.265  -5.107  0.00  0.00    +0.155 HD
BRANCH  14  15
ATOM     15  C   UNL     1      15.795 -27.349  -4.481  0.00  0.00    +0.037 A 
ATOM     16  C   UNL     1      14.642 -26.645  -3.912  0.00  0.00    +0.013 A 
ATOM     17  C   UNL     1      13.674 -26.024  -4.780  0.00  0.00    +0.005 A 
ATOM     18  C   UNL     1      13.855 -26.103  -6.228  0.00  0.00    -0.033 A 
ATOM     28  C   UNL     1      15.010 -26.803  -6.765  0.00  0.00    +0.005 A 
ATOM     29  C   UNL     1      15.961 -27.414  -5.918  0.00  0.00    +0.013 A 
BRANCH  18  19
ATOM     19  C   UNL     1      12.860 -25.487  -7.230  0.00  0.00    +0.119 C 
BRANCH  19  20
ATOM     20  N   UNL     1      11.479 -25.204  -6.736  0.00  0.00    -0.302 NA
ATOM     21  C   UNL     1      10.407 -25.706  -7.707  0.00  0.00    +0.066 C 
ATOM     22  C   UNL     1       8.969 -25.421  -7.165  0.00  0.00    -0.064 C 
ATOM     23  N   UNL     1       8.810 -23.921  -6.911  0.00  0.00    +0.379 N 
ATOM     24  C   UNL     1       7.440 -23.643  -6.456  0.00  0.00    -0.096 C 
ATOM     25  H   UNL     1       8.957 -23.396  -7.884  0.00  0.00    -0.082 HD
ATOM     26  C   UNL     1       9.874 -23.413  -5.948  0.00  0.00    -0.064 C 
ATOM     27  C   UNL     1      11.299 -23.727  -6.483  0.00  0.00    +0.066 C 
ENDBRANCH  19  20
ENDBRANCH  18  19
ENDBRANCH  14  15
ENDBRANCH  12  13
TORSDOF 6
ENDMDL
MODEL 4
REMARK VINA RESULT:      -7.9      6.746     12.770
REMARK  Name = C:\Users\Docking\Desktop\test protocol\1iep_ligandH.pdb
REMARK  8 active torsions:
REMARK  status: ('A' for Active; 'I' for Inactive)
REMARK    1  A    between atoms: _5  and  _11
REMARK    2  A    between atoms: _19  and  _21
REMARK    3  A    between atoms: _22  and  _66
REMARK    4  A    between atoms: _27  and  _30
REMARK    5  A    between atoms: _32  and  _33
REMARK    6  A    between atoms: _38  and  _43
REMARK    7  A    between atoms: _43  and  _46
REMARK    8  A    between atoms: _53  and  _55
REMARK                            x       y       z     vdW  Elec       q    Type
REMARK                         _______ _______ _______ _____ _____    ______ ____
ROOT
ATOM     10  C   UNL     1      22.777 -29.466  -4.095  0.00  0.00    +0.038 A 
ATOM     11  C   UNL     1      21.601 -29.040  -4.764  0.00  0.00    +0.047 A 
ATOM     12  C   UNL     1      20.431 -28.596  -4.021  0.00  0.00    +0.035 A 
ATOM     32  C   UNL     1      20.495 -28.597  -2.597  0.00  0.00    +0.024 A 
ATOM     33  C   UNL     1      21.682 -29.028  -1.901  0.00  0.00    +0.007 A 
ATOM     34  C   UNL     1      22.838 -29.469  -2.628  0.00  0.00    -0.029 A 
ATOM     35  C   UNL     1      24.081 -29.926  -1.830  0.00  0.00    +0.045 C 
ENDROOT
BRANCH  10   9
ATOM      4  C   UNL     1      26.894 -28.611  -6.409  0.00  0.00    +0.077 A 
ATOM      5  C   UNL     1      26.849 -27.212  -6.094  0.00  0.00    +0.048 A 
ATOM      6  C   UNL     1      25.746 -26.751  -5.340  0.00  0.00    +0.116 A 
ATOM      7  N   UNL     1      24.767 -27.633  -4.937  0.00  0.00    -0.223 NA
ATOM      8  C   UNL     1      24.839 -28.976  -5.260  0.00  0.00    +0.220 A 
ATOM      9  N   UNL     1      23.870 -29.882  -4.858  0.00  0.00    -0.283 N 
ATOM     36  H   UNL     1      23.956 -30.863  -5.122  0.00  0.00    +0.155 HD
ATOM     37  N   UNL     1      25.882 -29.440  -5.979  0.00  0.00    -0.214 NA
BRANCH   4   3
ATOM      1  C   UNL     1      30.305 -30.245  -7.406  0.00  0.00    +0.020 A 
ATOM      2  C   UNL     1      29.273 -29.630  -6.603  0.00  0.00    +0.013 A 
ATOM      3  C   UNL     1      27.997 -29.249  -7.195  0.00  0.00    +0.019 A 
ATOM     38  C   UNL     1      27.795 -29.506  -8.613  0.00  0.00    +0.120 A 
ATOM     39  N   UNL     1      28.807 -30.097  -9.361  0.00  0.00    -0.263 NA
ATOM     40  C   UNL     1      30.040 -30.467  -8.803  0.00  0.00    +0.111 A 
ENDBRANCH   4   3
ENDBRANCH  10   9
BRANCH  12  13
ATOM     13  N   UNL     1      19.207 -28.160  -4.645  0.00  0.00    -0.281 N 
ATOM     14  C   UNL     1      17.908 -28.479  -4.287  0.00  0.00    +0.248 C 
ATOM     30  O   UNL     1      17.605 -29.365  -3.500  0.00  0.00    -0.270 OA
ATOM     31  H   UNL     1      19.311 -27.541  -5.449  0.00  0.00    +0.155 HD
BRANCH  14  15
ATOM     15  C   UNL     1      16.780 -27.714  -4.901  0.00  0.00    +0.037 A 
ATOM     16  C   UNL     1      16.566 -26.297  -4.592  0.00  0.00    +0.013 A 
ATOM     17  C   UNL     1      15.461 -25.587  -5.186  0.00  0.00    +0.005 A 
ATOM     18  C   UNL     1      14.562 -26.293  -6.095  0.00  0.00    -0.033 A 
ATOM     28  C   UNL     1      14.800 -27.696  -6.388  0.00  0.00    +0.005 A 
ATOM     29  C   UNL     1      15.882 -28.396  -5.808  0.00  0.00    +0.013 A 
BRANCH  18  19
ATOM     19  C   UNL     1      13.345 -25.620  -6.757  0.00  0.00    +0.119 C 
BRANCH  19  20
ATOM     20  N   UNL     1      13.234 -25.717  -8.243  0.00  0.00    -0.302 NA
ATOM     21  C   UNL     1      14.027 -24.615  -8.951  0.00  0.00    +0.066 C 
ATOM     22  C   UNL     1      13.919 -24.744 -10.506  0.00  0.00    -0.064 C 
ATOM     23  N   UNL     1      12.446 -24.701 -10.917  0.00  0.00    +0.379 N 
ATOM     24  C   UNL     1      12.344 -24.765 -12.382  0.00  0.00    -0.096 C 
ATOM     25  H   UNL     1      12.033 -23.719 -10.591  0.00  0.00    -0.082 HD
ATOM     26  C   UNL     1      11.649 -25.792 -10.215  0.00  0.00    -0.064 C 
ATOM     27  C   UNL     1      11.788 -25.672  -8.672  0.00  0.00    +0.066 C 
ENDBRANCH  19  20
ENDBRANCH  18  19
ENDBRANCH  14  15
ENDBRANCH  12  13
TORSDOF 6
ENDMDL
MODEL 5
REMARK VINA RESULT:      -7.6     30.466     32.309
REMARK  Name = C:\Users\Docking\Desktop\test protocol\1iep_ligandH.pdb
REMARK  8 active torsions:
REMARK  status: ('A' for Active; 'I' for Inactive)
REMARK    1  A    between atoms: _5  and  _11
REMARK    2  A    between atoms: _19  and  _21
REMARK    3  A    between atoms: _22  and  _66
REMARK    4  A    between atoms: _27  and  _30
REMARK    5  A    between atoms: _32  and  _33
REMARK    6  A    between atoms: _38  and  _43
REMARK    7  A    between atoms: _43  and  _46
REMARK    8  A    between atoms: _53  and  _55
REMARK                            x       y       z     vdW  Elec       q    Type
REMARK                         _______ _______ _______ _____ _____    ______ ____
ROOT
ATOM     10  C   UNL     1      33.754   4.277  -3.347  0.00  0.00    +0.038 A 
ATOM     11  C   UNL     1      33.797   2.931  -2.902  0.00  0.00    +0.047 A 
ATOM     12  C   UNL     1      32.579   2.208  -2.571  0.00  0.00    +0.035 A 
ATOM     32  C   UNL     1      31.333   2.886  -2.707  0.00  0.00    +0.024 A 
ATOM     33  C   UNL     1      31.270   4.255  -3.156  0.00  0.00    +0.007 A 
ATOM     34  C   UNL     1      32.469   4.974  -3.482  0.00  0.00    -0.029 A 
ATOM     35  C   UNL     1      32.343   6.441  -3.953  0.00  0.00    +0.045 C 
ENDROOT
BRANCH  10   9
ATOM      4  C   UNL     1      37.315   5.387  -6.367  0.00  0.00    +0.077 A 
ATOM      5  C   UNL     1      36.751   4.591  -7.418  0.00  0.00    +0.048 A 
ATOM      6  C   UNL     1      35.547   3.906  -7.139  0.00  0.00    +0.116 A 
ATOM      7  N   UNL     1      34.960   4.017  -5.898  0.00  0.00    -0.223 NA
ATOM      8  C   UNL     1      35.531   4.791  -4.905  0.00  0.00    +0.220 A 
ATOM      9  N   UNL     1      34.954   4.923  -3.651  0.00  0.00    -0.283 N 
ATOM     36  H   UNL     1      35.411   5.497  -2.944  0.00  0.00    +0.155 HD
ATOM     37  N   UNL     1      36.682   5.454  -5.146  0.00  0.00    -0.214 NA
BRANCH   4   3
ATOM      1  C   UNL     1      41.019   6.393  -7.121  0.00  0.00    +0.020 A 
ATOM      2  C   UNL     1      39.824   5.590  -7.003  0.00  0.00    +0.013 A 
ATOM      3  C   UNL     1      38.582   6.172  -6.509  0.00  0.00    +0.019 A 
ATOM     38  C   UNL     1      38.584   7.580  -6.142  0.00  0.00    +0.120 A 
ATOM     39  N   UNL     1      39.750   8.328  -6.265  0.00  0.00    -0.263 NA
ATOM     40  C   UNL     1      40.952   7.778  -6.737  0.00  0.00    +0.111 A 
ENDBRANCH   4   3
ENDBRANCH  10   9
BRANCH  12  13
ATOM     13  N   UNL     1      32.561   0.843  -2.107  0.00  0.00    -0.281 N 
ATOM     14  C   UNL     1      32.042   0.353  -0.920  0.00  0.00    +0.248 C 
ATOM     30  O   UNL     1      31.702   1.050   0.025  0.00  0.00    -0.270 OA
ATOM     31  H   UNL     1      32.983   0.153  -2.730  0.00  0.00    +0.155 HD
BRANCH  14  15
ATOM     15  C   UNL     1      31.892  -1.124  -0.752  0.00  0.00    +0.037 A 
ATOM     16  C   UNL     1      31.556  -1.711   0.548  0.00  0.00    +0.013 A 
ATOM     17  C   UNL     1      31.434  -3.141   0.686  0.00  0.00    +0.005 A 
ATOM     18  C   UNL     1      31.647  -3.994  -0.481  0.00  0.00    -0.033 A 
ATOM     28  C   UNL     1      31.974  -3.385  -1.760  0.00  0.00    +0.005 A 
ATOM     29  C   UNL     1      32.096  -1.984  -1.898  0.00  0.00    +0.013 A 
BRANCH  18  19
ATOM     19  C   UNL     1      31.558  -5.530  -0.421  0.00  0.00    +0.119 C 
BRANCH  19  20
ATOM     20  N   UNL     1      31.205  -6.144   0.894  0.00  0.00    -0.302 NA
ATOM     21  C   UNL     1      32.021  -7.409   1.174  0.00  0.00    +0.066 C 
ATOM     22  C   UNL     1      31.656  -8.025   2.564  0.00  0.00    -0.064 C 
ATOM     23  N   UNL     1      30.157  -8.327   2.607  0.00  0.00    +0.379 N 
ATOM     24  C   UNL     1      29.821  -8.960   3.890  0.00  0.00    -0.096 C 
ATOM     25  H   UNL     1      29.938  -9.063   1.798  0.00  0.00    -0.082 HD
ATOM     26  C   UNL     1      29.338  -7.075   2.326  0.00  0.00    -0.064 C 
ATOM     27  C   UNL     1      29.730  -6.454   0.956  0.00  0.00    +0.066 C 
ENDBRANCH  19  20
ENDBRANCH  18  19
ENDBRANCH  14  15
ENDBRANCH  12  13
TORSDOF 6
ENDMDL
