MODEL 1
REMARK VINA RESULT:      -8.4      0.000      0.000
REMARK  Name = C:\Users\Docking\Desktop\test protocol\1iep_ligandH.pdb
REMARK  8 active torsions:
REMARK  status: ('A' for Active; 'I' for Inactive)
REMARK    1  A    between atoms: _5  and  _11
REMARK    2  A    between atoms: _19  and  _21
REMARK    3  A    between atoms: _22  and  _66
REMARK    4  A    between atoms: _27  and  _30
REMARK    5  A    between atoms: _32  and  _33
REMARK    6  A    between atoms: _38  and  _43
REMARK    7  A    between atoms: _43  and  _46
REMARK    8  A    between atoms: _53  and  _55
REMARK                            x       y       z     vdW  Elec       q    Type
REMARK                         _______ _______ _______ _____ _____    ______ ____
ROOT
ATOM     10  C   UNL     1      -6.181 -12.015  31.280  0.00  0.00    +0.038 A 
ATOM     11  C   UNL     1      -6.165 -10.828  32.057  0.00  0.00    +0.047 A 
ATOM     12  C   UNL     1      -5.077 -10.549  32.981  0.00  0.00    +0.035 A 
ATOM     32  C   UNL     1      -4.020 -11.499  33.088  0.00  0.00    +0.024 A 
ATOM     33  C   UNL     1      -4.021 -12.711  32.307  0.00  0.00    +0.007 A 
ATOM     34  C   UNL     1      -5.092 -12.993  31.395  0.00  0.00    -0.029 A 
ATOM     35  C   UNL     1      -5.044 -14.311  30.587  0.00  0.00    +0.045 C 
ENDROOT
BRANCH  10   9
ATOM      4  C   UNL     1      -8.126 -12.041  26.892  0.00  0.00    +0.077 A 
ATOM      5  C   UNL     1      -6.919 -11.554  26.290  0.00  0.00    +0.048 A 
ATOM      6  C   UNL     1      -5.822 -11.303  27.145  0.00  0.00    +0.116 A 
ATOM      7  N   UNL     1      -5.936 -11.526  28.500  0.00  0.00    -0.223 NA
ATOM      8  C   UNL     1      -7.115 -11.994  29.049  0.00  0.00    +0.220 A 
ATOM      9  N   UNL     1      -7.250 -12.233  30.408  0.00  0.00    -0.283 N 
ATOM     36  H   UNL     1      -8.139 -12.571  30.775  0.00  0.00    +0.155 HD
ATOM     37  N   UNL     1      -8.177 -12.240  28.254  0.00  0.00    -0.214 NA
BRANCH   4   3
ATOM      1  C   UNL     1     -11.871 -12.620  25.921  0.00  0.00    +0.020 A 
ATOM      2  C   UNL     1     -10.702 -12.307  26.710  0.00  0.00    +0.013 A 
ATOM      3  C   UNL     1      -9.370 -12.356  26.121  0.00  0.00    +0.019 A 
ATOM     38  C   UNL     1      -9.254 -12.729  24.719  0.00  0.00    +0.120 A 
ATOM     39  N   UNL     1     -10.398 -13.027  23.984  0.00  0.00    -0.263 NA
ATOM     40  C   UNL     1     -11.684 -12.984  24.541  0.00  0.00    +0.111 A 
ENDBRANCH   4   3
ENDBRANCH  10   9
BRANCH  12  13
ATOM     13  N   UNL     1      -5.011  -9.365  33.802  0.00  0.00    -0.281 N 
ATOM     14  C   UNL     1      -5.696  -9.104  34.977  0.00  0.00    +0.248 C 
ATOM     30  O   UNL     1      -6.637  -9.766  35.390  0.00  0.00    -0.270 OA
ATOM     31  H   UNL     1      -4.382  -8.630  33.477  0.00  0.00    +0.155 HD
BRANCH  14  15
ATOM     15  C   UNL     1      -5.287  -7.930  35.806  0.00  0.00    +0.037 A 
ATOM     16  C   UNL     1      -5.014  -6.626  35.195  0.00  0.00    +0.013 A 
ATOM     17  C   UNL     1      -4.604  -5.514  36.016  0.00  0.00    +0.005 A 
ATOM     18  C   UNL     1      -4.466  -5.701  37.458  0.00  0.00    -0.033 A 
ATOM     28  C   UNL     1      -4.748  -7.004  38.039  0.00  0.00    +0.005 A 
ATOM     29  C   UNL     1      -5.149  -8.096  37.237  0.00  0.00    +0.013 A 
BRANCH  18  19
ATOM     19  C   UNL     1      -4.014  -4.577  38.408  0.00  0.00    +0.119 C 
BRANCH  19  20
ATOM     20  N   UNL     1      -5.081  -3.760  39.058  0.00  0.00    -0.302 NA
ATOM     21  C   UNL     1      -6.026  -4.618  39.905  0.00  0.00    +0.066 C 
ATOM     22  C   UNL     1      -7.123  -3.745  40.596  0.00  0.00    -0.064 C 
ATOM     23  N   UNL     1      -7.902  -2.973  39.530  0.00  0.00    +0.379 N 
ATOM     24  C   UNL     1      -8.972  -2.195  40.172  0.00  0.00    -0.096 C 
ATOM     25  H   UNL     1      -8.384  -3.719  38.856  0.00  0.00    -0.082 HD
ATOM     26  C   UNL     1      -6.971  -2.119  38.682  0.00  0.00    -0.064 C 
ATOM     27  C   UNL     1      -5.867  -2.992  38.023  0.00  0.00    +0.066 C 
ENDBRANCH  19  20
ENDBRANCH  18  19
ENDBRANCH  14  15
ENDBRANCH  12  13
TORSDOF 6
ENDMDL
MODEL 2
REMARK VINA RESULT:      -8.0      4.146     12.899
REMARK  Name = C:\Users\Docking\Desktop\test protocol\1iep_ligandH.pdb
REMARK  8 active torsions:
REMARK  status: ('A' for Active; 'I' for Inactive)
REMARK    1  A    between atoms: _5  and  _11
REMARK    2  A    between atoms: _19  and  _21
REMARK    3  A    between atoms: _22  and  _66
REMARK    4  A    between atoms: _27  and  _30
REMARK    5  A    between atoms: _32  and  _33
REMARK    6  A    between atoms: _38  and  _43
REMARK    7  A    between atoms: _43  and  _46
REMARK    8  A    between atoms: _53  and  _55
REMARK                            x       y       z     vdW  Elec       q    Type
REMARK                         _______ _______ _______ _____ _____    ______ ____
ROOT
ATOM     10  C   UNL     1      -6.172 -10.621  34.092  0.00  0.00    +0.038 A 
ATOM     11  C   UNL     1      -6.450 -10.960  32.743  0.00  0.00    +0.047 A 
ATOM     12  C   UNL     1      -6.026 -10.101  31.649  0.00  0.00    +0.035 A 
ATOM     32  C   UNL     1      -5.318  -8.904  31.964  0.00  0.00    +0.024 A 
ATOM     33  C   UNL     1      -5.028  -8.544  33.329  0.00  0.00    +0.007 A 
ATOM     34  C   UNL     1      -5.445  -9.386  34.414  0.00  0.00    -0.029 A 
ATOM     35  C   UNL     1      -5.112  -8.947  35.858  0.00  0.00    +0.045 C 
ENDROOT
BRANCH  10   9
ATOM      4  C   UNL     1      -5.413 -14.161  37.243  0.00  0.00    +0.077 A 
ATOM      5  C   UNL     1      -4.053 -14.326  36.820  0.00  0.00    +0.048 A 
ATOM      6  C   UNL     1      -3.589 -13.485  35.784  0.00  0.00    +0.116 A 
ATOM      7  N   UNL     1      -4.432 -12.552  35.220  0.00  0.00    -0.223 NA
ATOM      8  C   UNL     1      -5.739 -12.420  35.651  0.00  0.00    +0.220 A 
ATOM      9  N   UNL     1      -6.602 -11.482  35.104  0.00  0.00    -0.283 N 
ATOM     36  H   UNL     1      -7.561 -11.421  35.444  0.00  0.00    +0.155 HD
ATOM     37  N   UNL     1      -6.206 -13.212  36.638  0.00  0.00    -0.214 NA
BRANCH   4   3
ATOM      1  C   UNL     1      -6.181 -17.008  39.814  0.00  0.00    +0.020 A 
ATOM      2  C   UNL     1      -5.530 -16.264  38.760  0.00  0.00    +0.013 A 
ATOM      3  C   UNL     1      -6.049 -14.972  38.329  0.00  0.00    +0.019 A 
ATOM     38  C   UNL     1      -7.237 -14.456  38.992  0.00  0.00    +0.120 A 
ATOM     39  N   UNL     1      -7.844 -15.195  40.003  0.00  0.00    -0.263 NA
ATOM     40  C   UNL     1      -7.354 -16.440  40.424  0.00  0.00    +0.111 A 
ENDBRANCH   4   3
ENDBRANCH  10   9
BRANCH  12  13
ATOM     13  N   UNL     1      -6.287 -10.389  30.260  0.00  0.00    -0.281 N 
ATOM     14  C   UNL     1      -6.225 -11.615  29.619  0.00  0.00    +0.248 C 
ATOM     30  O   UNL     1      -5.725 -12.621  30.099  0.00  0.00    -0.270 OA
ATOM     31  H   UNL     1      -6.550  -9.592  29.680  0.00  0.00    +0.155 HD
BRANCH  14  15
ATOM     15  C   UNL     1      -6.787 -11.737  28.239  0.00  0.00    +0.037 A 
ATOM     16  C   UNL     1      -5.936 -11.585  27.056  0.00  0.00    +0.013 A 
ATOM     17  C   UNL     1      -6.507 -11.691  25.736  0.00  0.00    +0.005 A 
ATOM     18  C   UNL     1      -7.937 -11.952  25.594  0.00  0.00    -0.033 A 
ATOM     28  C   UNL     1      -8.757 -12.104  26.784  0.00  0.00    +0.005 A 
ATOM     29  C   UNL     1      -8.201 -12.000  28.079  0.00  0.00    +0.013 A 
BRANCH  18  19
ATOM     19  C   UNL     1      -8.635 -12.060  24.225  0.00  0.00    +0.119 C 
BRANCH  19  20
ATOM     20  N   UNL     1      -9.186 -13.394  23.841  0.00  0.00    -0.302 NA
ATOM     21  C   UNL     1      -8.170 -14.232  23.060  0.00  0.00    +0.066 C 
ATOM     22  C   UNL     1      -8.755 -15.633  22.686  0.00  0.00    -0.064 C 
ATOM     23  N   UNL     1     -10.040 -15.446  21.877  0.00  0.00    +0.379 N 
ATOM     24  C   UNL     1     -10.561 -16.761  21.474  0.00  0.00    -0.096 C 
ATOM     25  H   UNL     1      -9.777 -14.888  20.949  0.00  0.00    -0.082 HD
ATOM     26  C   UNL     1     -11.055 -14.612  22.646  0.00  0.00    -0.064 C 
ATOM     27  C   UNL     1     -10.453 -13.234  23.038  0.00  0.00    +0.066 C 
ENDBRANCH  19  20
ENDBRANCH  18  19
ENDBRANCH  14  15
ENDBRANCH  12  13
TORSDOF 6
ENDMDL
MODEL 3
REMARK VINA RESULT:      -8.0     19.699     25.001
REMARK  Name = C:\Users\Docking\Desktop\test protocol\1iep_ligandH.pdb
REMARK  8 active torsions:
REMARK  status: ('A' for Active; 'I' for Inactive)
REMARK    1  A    between atoms: _5  and  _11
REMARK    2  A    between atoms: _19  and  _21
REMARK    3  A    between atoms: _22  and  _66
REMARK    4  A    between atoms: _27  and  _30
REMARK    5  A    between atoms: _32  and  _33
REMARK    6  A    between atoms: _38  and  _43
REMARK    7  A    between atoms: _43  and  _46
REMARK    8  A    between atoms: _53  and  _55
REMARK                            x       y       z     vdW  Elec       q    Type
REMARK                         _______ _______ _______ _____ _____    ______ ____
ROOT
ATOM     10  C   UNL     1     -10.948   9.898  28.946  0.00  0.00    +0.038 A 
ATOM     11  C   UNL     1     -10.892  10.363  27.607  0.00  0.00    +0.047 A 
ATOM     12  C   UNL     1     -10.061   9.699  26.615  0.00  0.00    +0.035 A 
ATOM     32  C   UNL     1      -9.302   8.563  27.020  0.00  0.00    +0.024 A 
ATOM     33  C   UNL     1      -9.346   8.078  28.377  0.00  0.00    +0.007 A 
ATOM     34  C   UNL     1     -10.162   8.730  29.361  0.00  0.00    -0.029 A 
ATOM     35  C   UNL     1     -10.166   8.170  30.803  0.00  0.00    +0.045 C 
ENDROOT
BRANCH  10   9
ATOM      4  C   UNL     1     -11.772  13.460  32.056  0.00  0.00    +0.077 A 
ATOM      5  C   UNL     1     -10.459  14.007  31.869  0.00  0.00    +0.048 A 
ATOM      6  C   UNL     1      -9.600  13.337  30.969  0.00  0.00    +0.116 A 
ATOM      7  N   UNL     1     -10.032  12.207  30.311  0.00  0.00    -0.223 NA
ATOM      8  C   UNL     1     -11.304  11.705  30.515  0.00  0.00    +0.220 A 
ATOM      9  N   UNL     1     -11.763  10.574  29.858  0.00  0.00    -0.283 N 
ATOM     36  H   UNL     1     -12.705  10.231  30.042  0.00  0.00    +0.155 HD
ATOM     37  N   UNL     1     -12.144  12.325  31.371  0.00  0.00    -0.214 NA
BRANCH   4   3
ATOM      1  C   UNL     1     -14.753  13.880  34.555  0.00  0.00    +0.020 A 
ATOM      2  C   UNL     1     -13.786  13.255  33.682  0.00  0.00    +0.013 A 
ATOM      3  C   UNL     1     -12.797  14.056  32.971  0.00  0.00    +0.019 A 
ATOM     38  C   UNL     1     -12.813  15.498  33.168  0.00  0.00    +0.120 A 
ATOM     39  N   UNL     1     -13.757  16.072  34.013  0.00  0.00    -0.263 NA
ATOM     40  C   UNL     1     -14.715  15.312  34.701  0.00  0.00    +0.111 A 
ENDBRANCH   4   3
ENDBRANCH  10   9
BRANCH  12  13
ATOM     13  N   UNL     1      -9.958  10.131  25.243  0.00  0.00    -0.281 N 
ATOM     14  C   UNL     1      -9.122  11.102  24.716  0.00  0.00    +0.248 C 
ATOM     30  O   UNL     1      -8.483  11.901  25.385  0.00  0.00    -0.270 OA
ATOM     31  H   UNL     1     -10.576   9.663  24.579  0.00  0.00    +0.155 HD
BRANCH  14  15
ATOM     15  C   UNL     1      -8.987  11.210  23.231  0.00  0.00    +0.037 A 
ATOM     16  C   UNL     1      -8.376  12.387  22.608  0.00  0.00    +0.013 A 
ATOM     17  C   UNL     1      -8.274  12.473  21.172  0.00  0.00    +0.005 A 
ATOM     18  C   UNL     1      -8.782  11.378  20.351  0.00  0.00    -0.033 A 
ATOM     28  C   UNL     1      -9.378  10.219  20.996  0.00  0.00    +0.005 A 
ATOM     29  C   UNL     1      -9.482  10.132  22.402  0.00  0.00    +0.013 A 
BRANCH  18  19
ATOM     19  C   UNL     1      -8.734  11.394  18.811  0.00  0.00    +0.119 C 
BRANCH  19  20
ATOM     20  N   UNL     1      -8.528  10.087  18.119  0.00  0.00    -0.302 NA
ATOM     21  C   UNL     1      -7.064   9.640  18.159  0.00  0.00    +0.066 C 
ATOM     22  C   UNL     1      -6.871   8.260  17.451  0.00  0.00    -0.064 C 
ATOM     23  N   UNL     1      -7.368   8.357  16.007  0.00  0.00    +0.379 N 
ATOM     24  C   UNL     1      -7.135   7.078  15.321  0.00  0.00    -0.096 C 
ATOM     25  H   UNL     1      -6.759   9.134  15.491  0.00  0.00    -0.082 HD
ATOM     26  C   UNL     1      -8.823   8.803  15.959  0.00  0.00    -0.064 C 
ATOM     27  C   UNL     1      -9.009  10.161  16.691  0.00  0.00    +0.066 C 
ENDBRANCH  19  20
ENDBRANCH  18  19
ENDBRANCH  14  15
ENDBRANCH  12  13
TORSDOF 6
ENDMDL
MODEL 4
REMARK VINA RESULT:      -7.6     17.882     24.494
REMARK  Name = C:\Users\Docking\Desktop\test protocol\1iep_ligandH.pdb
REMARK  8 active torsions:
REMARK  status: ('A' for Active; 'I' for Inactive)
REMARK    1  A    between atoms: _5  and  _11
REMARK    2  A    between atoms: _19  and  _21
REMARK    3  A    between atoms: _22  and  _66
REMARK    4  A    between atoms: _27  and  _30
REMARK    5  A    between atoms: _32  and  _33
REMARK    6  A    between atoms: _38  and  _43
REMARK    7  A    between atoms: _43  and  _46
REMARK    8  A    between atoms: _53  and  _55
REMARK                            x       y       z     vdW  Elec       q    Type
REMARK                         _______ _______ _______ _____ _____    ______ ____
ROOT
ATOM     10  C   UNL     1     -22.551  -4.167  50.597  0.00  0.00    +0.038 A 
ATOM     11  C   UNL     1     -21.272  -3.827  50.087  0.00  0.00    +0.047 A 
ATOM     12  C   UNL     1     -20.176  -4.783  50.105  0.00  0.00    +0.035 A 
ATOM     32  C   UNL     1     -20.418  -6.078  50.648  0.00  0.00    +0.024 A 
ATOM     33  C   UNL     1     -21.712  -6.441  51.171  0.00  0.00    +0.007 A 
ATOM     34  C   UNL     1     -22.796  -5.501  51.158  0.00  0.00    -0.029 A 
ATOM     35  C   UNL     1     -24.160  -5.942  51.739  0.00  0.00    +0.045 C 
ENDROOT
BRANCH  10   9
ATOM      4  C   UNL     1     -24.390   0.109  51.767  0.00  0.00    +0.077 A 
ATOM      5  C   UNL     1     -23.239   0.456  52.551  0.00  0.00    +0.048 A 
ATOM      6  C   UNL     1     -22.199  -0.497  52.633  0.00  0.00    +0.116 A 
ATOM      7  N   UNL     1     -22.312  -1.703  51.976  0.00  0.00    -0.223 NA
ATOM      8  C   UNL     1     -23.436  -2.007  51.230  0.00  0.00    +0.220 A 
ATOM      9  N   UNL     1     -23.568  -3.210  50.555  0.00  0.00    -0.283 N 
ATOM     36  H   UNL     1     -24.416  -3.399  50.021  0.00  0.00    +0.155 HD
ATOM     37  N   UNL     1     -24.444  -1.114  51.137  0.00  0.00    -0.214 NA
BRANCH   4   3
ATOM      1  C   UNL     1     -27.851   1.546  50.647  0.00  0.00    +0.020 A 
ATOM      2  C   UNL     1     -26.737   0.638  50.794  0.00  0.00    +0.013 A 
ATOM      3  C   UNL     1     -25.569   1.012  51.581  0.00  0.00    +0.019 A 
ATOM     38  C   UNL     1     -25.559   2.324  52.211  0.00  0.00    +0.120 A 
ATOM     39  N   UNL     1     -26.645   3.179  52.050  0.00  0.00    -0.263 NA
ATOM     40  C   UNL     1     -27.774   2.830  51.294  0.00  0.00    +0.111 A 
ENDBRANCH   4   3
ENDBRANCH  10   9
BRANCH  12  13
ATOM     13  N   UNL     1     -18.854  -4.491  49.609  0.00  0.00    -0.281 N 
ATOM     14  C   UNL     1     -17.773  -3.984  50.312  0.00  0.00    +0.248 C 
ATOM     30  O   UNL     1     -17.843  -3.501  51.432  0.00  0.00    -0.270 OA
ATOM     31  H   UNL     1     -18.695  -4.681  48.620  0.00  0.00    +0.155 HD
BRANCH  14  15
ATOM     15  C   UNL     1     -16.422  -4.003  49.672  0.00  0.00    +0.037 A 
ATOM     16  C   UNL     1     -15.743  -2.761  49.295  0.00  0.00    +0.013 A 
ATOM     17  C   UNL     1     -14.448  -2.808  48.664  0.00  0.00    +0.005 A 
ATOM     18  C   UNL     1     -13.823  -4.103  48.407  0.00  0.00    -0.033 A 
ATOM     28  C   UNL     1     -14.517  -5.320  48.796  0.00  0.00    +0.005 A 
ATOM     29  C   UNL     1     -15.787  -5.277  49.414  0.00  0.00    +0.013 A 
BRANCH  18  19
ATOM     19  C   UNL     1     -12.453  -4.249  47.718  0.00  0.00    +0.119 C 
BRANCH  19  20
ATOM     20  N   UNL     1     -11.241  -4.189  48.589  0.00  0.00    -0.302 NA
ATOM     21  C   UNL     1     -10.743  -2.754  48.783  0.00  0.00    +0.066 C 
ATOM     22  C   UNL     1      -9.488  -2.708  49.714  0.00  0.00    -0.064 C 
ATOM     23  N   UNL     1      -8.386  -3.588  49.123  0.00  0.00    +0.379 N 
ATOM     24  C   UNL     1      -7.184  -3.501  49.966  0.00  0.00    -0.096 C 
ATOM     25  H   UNL     1      -8.126  -3.177  48.120  0.00  0.00    -0.082 HD
ATOM     26  C   UNL     1      -8.873  -5.017  48.925  0.00  0.00    -0.064 C 
ATOM     27  C   UNL     1     -10.138  -5.049  48.022  0.00  0.00    +0.066 C 
ENDBRANCH  19  20
ENDBRANCH  18  19
ENDBRANCH  14  15
ENDBRANCH  12  13
TORSDOF 6
ENDMDL
MODEL 5
REMARK VINA RESULT:      -7.6      4.788     13.636
REMARK  Name = C:\Users\Docking\Desktop\test protocol\1iep_ligandH.pdb
REMARK  8 active torsions:
REMARK  status: ('A' for Active; 'I' for Inactive)
REMARK    1  A    between atoms: _5  and  _11
REMARK    2  A    between atoms: _19  and  _21
REMARK    3  A    between atoms: _22  and  _66
REMARK    4  A    between atoms: _27  and  _30
REMARK    5  A    between atoms: _32  and  _33
REMARK    6  A    between atoms: _38  and  _43
REMARK    7  A    between atoms: _43  and  _46
REMARK    8  A    between atoms: _53  and  _55
REMARK                            x       y       z     vdW  Elec       q    Type
REMARK                         _______ _______ _______ _____ _____    ______ ____
ROOT
ATOM     10  C   UNL     1      -6.580 -10.747  33.558  0.00  0.00    +0.038 A 
ATOM     11  C   UNL     1      -6.459 -11.640  32.462  0.00  0.00    +0.047 A 
ATOM     12  C   UNL     1      -5.732 -11.262  31.260  0.00  0.00    +0.035 A 
ATOM     32  C   UNL     1      -5.138  -9.967  31.209  0.00  0.00    +0.024 A 
ATOM     33  C   UNL     1      -5.252  -9.046  32.313  0.00  0.00    +0.007 A 
ATOM     34  C   UNL     1      -5.970  -9.413  33.500  0.00  0.00    -0.029 A 
ATOM     35  C   UNL     1      -6.066  -8.383  34.650  0.00  0.00    +0.045 C 
ENDROOT
BRANCH  10   9
ATOM      4  C   UNL     1      -6.782 -12.501  38.021  0.00  0.00    +0.077 A 
ATOM      5  C   UNL     1      -5.355 -12.626  38.099  0.00  0.00    +0.048 A 
ATOM      6  C   UNL     1      -4.606 -12.235  36.967  0.00  0.00    +0.116 A 
ATOM      7  N   UNL     1      -5.247 -11.755  35.845  0.00  0.00    -0.223 NA
ATOM      8  C   UNL     1      -6.625 -11.649  35.802  0.00  0.00    +0.220 A 
ATOM      9  N   UNL     1      -7.289 -11.162  34.687  0.00  0.00    -0.283 N 
ATOM     36  H   UNL     1      -8.307 -11.106  34.692  0.00  0.00    +0.155 HD
ATOM     37  N   UNL     1      -7.363 -12.017  36.870  0.00  0.00    -0.214 NA
BRANCH   4   3
ATOM      1  C   UNL     1      -8.187 -13.498  41.532  0.00  0.00    +0.020 A 
ATOM      2  C   UNL     1      -7.250 -13.146  40.491  0.00  0.00    +0.013 A 
ATOM      3  C   UNL     1      -7.710 -12.870  39.136  0.00  0.00    +0.019 A 
ATOM     38  C   UNL     1      -9.137 -12.957  38.866  0.00  0.00    +0.120 A 
ATOM     39  N   UNL     1     -10.017 -13.300  39.888  0.00  0.00    -0.263 NA
ATOM     40  C   UNL     1      -9.585 -13.570  41.196  0.00  0.00    +0.111 A 
ENDBRANCH   4   3
ENDBRANCH  10   9
BRANCH  12  13
ATOM     13  N   UNL     1      -5.582 -12.123  30.114  0.00  0.00    -0.281 N 
ATOM     14  C   UNL     1      -6.487 -12.339  29.087  0.00  0.00    +0.248 C 
ATOM     30  O   UNL     1      -7.657 -11.985  29.111  0.00  0.00    -0.270 OA
ATOM     31  H   UNL     1      -4.702 -12.635  30.051  0.00  0.00    +0.155 HD
BRANCH  14  15
ATOM     15  C   UNL     1      -6.031 -13.066  27.864  0.00  0.00    +0.037 A 
ATOM     16  C   UNL     1      -5.306 -14.336  27.960  0.00  0.00    +0.013 A 
ATOM     17  C   UNL     1      -4.862 -15.008  26.765  0.00  0.00    +0.005 A 
ATOM     18  C   UNL     1      -5.144 -14.412  25.461  0.00  0.00    -0.033 A 
ATOM     28  C   UNL     1      -5.870 -13.154  25.394  0.00  0.00    +0.005 A 
ATOM     29  C   UNL     1      -6.306 -12.492  26.564  0.00  0.00    +0.013 A 
BRANCH  18  19
ATOM     19  C   UNL     1      -4.690 -15.048  24.134  0.00  0.00    +0.119 C 
BRANCH  19  20
ATOM     20  N   UNL     1      -5.300 -16.359  23.761  0.00  0.00    -0.302 NA
ATOM     21  C   UNL     1      -4.448 -17.120  22.742  0.00  0.00    +0.066 C 
ATOM     22  C   UNL     1      -5.089 -18.499  22.379  0.00  0.00    -0.064 C 
ATOM     23  N   UNL     1      -6.504 -18.275  21.842  0.00  0.00    +0.379 N 
ATOM     24  C   UNL     1      -7.088 -19.564  21.446  0.00  0.00    -0.096 C 
ATOM     25  H   UNL     1      -6.421 -17.645  20.926  0.00  0.00    -0.082 HD
ATOM     26  C   UNL     1      -7.358 -17.516  22.848  0.00  0.00    -0.064 C 
ATOM     27  C   UNL     1      -6.696 -16.161  23.224  0.00  0.00    +0.066 C 
ENDBRANCH  19  20
ENDBRANCH  18  19
ENDBRANCH  14  15
ENDBRANCH  12  13
TORSDOF 6
ENDMDL
