MODEL 1
REMARK VINA RESULT:      -7.8      0.000      0.000
REMARK  Name = C:\Users\Docking\Desktop\test protocol\1iep_ligandH.pdb
REMARK  8 active torsions:
REMARK  status: ('A' for Active; 'I' for Inactive)
REMARK    1  A    between atoms: _5  and  _11
REMARK    2  A    between atoms: _19  and  _21
REMARK    3  A    between atoms: _22  and  _66
REMARK    4  A    between atoms: _27  and  _30
REMARK    5  A    between atoms: _32  and  _33
REMARK    6  A    between atoms: _38  and  _43
REMARK    7  A    between atoms: _43  and  _46
REMARK    8  A    between atoms: _53  and  _55
REMARK                            x       y       z     vdW  Elec       q    Type
REMARK                         _______ _______ _______ _____ _____    ______ ____
ROOT
ATOM     10  C   UNL     1      85.977  -1.289  13.349  0.00  0.00    +0.038 A 
ATOM     11  C   UNL     1      87.229  -1.546  12.735  0.00  0.00    +0.047 A 
ATOM     12  C   UNL     1      87.437  -1.294  11.317  0.00  0.00    +0.035 A 
ATOM     32  C   UNL     1      86.349  -0.776  10.556  0.00  0.00    +0.024 A 
ATOM     33  C   UNL     1      85.069  -0.510  11.165  0.00  0.00    +0.007 A 
ATOM     34  C   UNL     1      84.857  -0.759  12.562  0.00  0.00    -0.029 A 
ATOM     35  C   UNL     1      83.462  -0.462  13.159  0.00  0.00    +0.045 C 
ENDROOT
BRANCH  10   9
ATOM      4  C   UNL     1      85.256  -4.279  17.034  0.00  0.00    +0.077 A 
ATOM      5  C   UNL     1      85.131  -5.413  16.166  0.00  0.00    +0.048 A 
ATOM      6  C   UNL     1      85.251  -5.184  14.777  0.00  0.00    +0.116 A 
ATOM      7  N   UNL     1      85.480  -3.910  14.303  0.00  0.00    -0.223 NA
ATOM      8  C   UNL     1      85.594  -2.838  15.168  0.00  0.00    +0.220 A 
ATOM      9  N   UNL     1      85.832  -1.549  14.714  0.00  0.00    -0.283 N 
ATOM     36  H   UNL     1      85.903  -0.784  15.384  0.00  0.00    +0.155 HD
ATOM     37  N   UNL     1      85.482  -3.030  16.499  0.00  0.00    -0.214 NA
BRANCH   4   3
ATOM      1  C   UNL     1      84.021  -3.859  20.722  0.00  0.00    +0.020 A 
ATOM      2  C   UNL     1      84.071  -3.750  19.282  0.00  0.00    +0.013 A 
ATOM      3  C   UNL     1      85.157  -4.360  18.526  0.00  0.00    +0.019 A 
ATOM     38  C   UNL     1      86.184  -5.080  19.263  0.00  0.00    +0.120 A 
ATOM     39  N   UNL     1      86.111  -5.167  20.650  0.00  0.00    -0.263 NA
ATOM     40  C   UNL     1      85.072  -4.582  21.388  0.00  0.00    +0.111 A 
ENDBRANCH   4   3
ENDBRANCH  10   9
BRANCH  12  13
ATOM     13  N   UNL     1      88.684  -1.543  10.637  0.00  0.00    -0.281 N 
ATOM     14  C   UNL     1      89.788  -0.711  10.551  0.00  0.00    +0.248 C 
ATOM     30  O   UNL     1      89.791   0.469  10.869  0.00  0.00    -0.270 OA
ATOM     31  H   UNL     1      88.761  -2.442  10.161  0.00  0.00    +0.155 HD
BRANCH  14  15
ATOM     15  C   UNL     1      91.071  -1.267  10.022  0.00  0.00    +0.037 A 
ATOM     16  C   UNL     1      91.451  -2.662  10.260  0.00  0.00    +0.013 A 
ATOM     17  C   UNL     1      92.702  -3.167   9.753  0.00  0.00    +0.005 A 
ATOM     18  C   UNL     1      93.582  -2.277   9.000  0.00  0.00    -0.033 A 
ATOM     28  C   UNL     1      93.178  -0.899   8.773  0.00  0.00    +0.005 A 
ATOM     29  C   UNL     1      91.953  -0.400   9.270  0.00  0.00    +0.013 A 
BRANCH  18  19
ATOM     19  C   UNL     1      94.944  -2.725   8.440  0.00  0.00    +0.119 C 
BRANCH  19  20
ATOM     20  N   UNL     1      95.531  -1.911   7.334  0.00  0.00    -0.302 NA
ATOM     21  C   UNL     1      96.000  -2.782   6.165  0.00  0.00    +0.066 C 
ATOM     22  C   UNL     1      96.590  -1.912   5.008  0.00  0.00    -0.064 C 
ATOM     23  N   UNL     1      97.742  -1.063   5.548  0.00  0.00    +0.379 N 
ATOM     24  C   UNL     1      98.337  -0.287   4.450  0.00  0.00    -0.096 C 
ATOM     25  H   UNL     1      98.524  -1.759   5.932  0.00  0.00    -0.082 HD
ATOM     26  C   UNL     1      97.285  -0.196   6.712  0.00  0.00    -0.064 C 
ATOM     27  C   UNL     1      96.673  -1.068   7.844  0.00  0.00    +0.066 C 
ENDBRANCH  19  20
ENDBRANCH  18  19
ENDBRANCH  14  15
ENDBRANCH  12  13
TORSDOF 6
ENDMDL
MODEL 2
REMARK VINA RESULT:      -7.6      7.238     13.234
REMARK  Name = C:\Users\Docking\Desktop\test protocol\1iep_ligandH.pdb
REMARK  8 active torsions:
REMARK  status: ('A' for Active; 'I' for Inactive)
REMARK    1  A    between atoms: _5  and  _11
REMARK    2  A    between atoms: _19  and  _21
REMARK    3  A    between atoms: _22  and  _66
REMARK    4  A    between atoms: _27  and  _30
REMARK    5  A    between atoms: _32  and  _33
REMARK    6  A    between atoms: _38  and  _43
REMARK    7  A    between atoms: _43  and  _46
REMARK    8  A    between atoms: _53  and  _55
REMARK                            x       y       z     vdW  Elec       q    Type
REMARK                         _______ _______ _______ _____ _____    ______ ____
ROOT
ATOM     10  C   UNL     1      86.988  -6.030  26.102  0.00  0.00    +0.038 A 
ATOM     11  C   UNL     1      86.763  -6.040  24.702  0.00  0.00    +0.047 A 
ATOM     12  C   UNL     1      86.365  -4.833  23.994  0.00  0.00    +0.035 A 
ATOM     32  C   UNL     1      86.206  -3.632  24.745  0.00  0.00    +0.024 A 
ATOM     33  C   UNL     1      86.429  -3.603  26.169  0.00  0.00    +0.007 A 
ATOM     34  C   UNL     1      86.820  -4.791  26.872  0.00  0.00    -0.029 A 
ATOM     35  C   UNL     1      87.040  -4.704  28.401  0.00  0.00    +0.045 C 
ENDROOT
BRANCH  10   9
ATOM      4  C   UNL     1      90.301  -9.228  27.455  0.00  0.00    +0.077 A 
ATOM      5  C   UNL     1      91.359  -8.482  26.835  0.00  0.00    +0.048 A 
ATOM      6  C   UNL     1      91.007  -7.285  26.172  0.00  0.00    +0.116 A 
ATOM      7  N   UNL     1      89.692  -6.874  26.138  0.00  0.00    -0.223 NA
ATOM      8  C   UNL     1      88.696  -7.617  26.745  0.00  0.00    +0.220 A 
ATOM      9  N   UNL     1      87.369  -7.218  26.730  0.00  0.00    -0.283 N 
ATOM     36  H   UNL     1      86.663  -7.797  27.183  0.00  0.00    +0.155 HD
ATOM     37  N   UNL     1      89.006  -8.764  27.383  0.00  0.00    -0.214 NA
BRANCH   4   3
ATOM      1  C   UNL     1      89.690 -12.658  29.232  0.00  0.00    +0.020 A 
ATOM      2  C   UNL     1      89.430 -11.432  28.514  0.00  0.00    +0.013 A 
ATOM      3  C   UNL     1      90.514 -10.511  28.196  0.00  0.00    +0.019 A 
ATOM     38  C   UNL     1      91.860 -10.864  28.622  0.00  0.00    +0.120 A 
ATOM     39  N   UNL     1      92.080 -12.051  29.313  0.00  0.00    -0.263 NA
ATOM     40  C   UNL     1      91.044 -12.945  29.626  0.00  0.00    +0.111 A 
ENDBRANCH   4   3
ENDBRANCH  10   9
BRANCH  12  13
ATOM     13  N   UNL     1      86.115  -4.785  22.575  0.00  0.00    -0.281 N 
ATOM     14  C   UNL     1      87.025  -4.550  21.558  0.00  0.00    +0.248 C 
ATOM     30  O   UNL     1      88.160  -4.132  21.729  0.00  0.00    -0.270 OA
ATOM     31  H   UNL     1      85.149  -4.943  22.285  0.00  0.00    +0.155 HD
BRANCH  14  15
ATOM     15  C   UNL     1      86.609  -4.803  20.144  0.00  0.00    +0.037 A 
ATOM     16  C   UNL     1      87.500  -5.482  19.200  0.00  0.00    +0.013 A 
ATOM     17  C   UNL     1      87.081  -5.698  17.838  0.00  0.00    +0.005 A 
ATOM     18  C   UNL     1      85.762  -5.234  17.412  0.00  0.00    -0.033 A 
ATOM     28  C   UNL     1      84.897  -4.568  18.371  0.00  0.00    +0.005 A 
ATOM     29  C   UNL     1      85.305  -4.354  19.707  0.00  0.00    +0.013 A 
BRANCH  18  19
ATOM     19  C   UNL     1      85.241  -5.403  15.973  0.00  0.00    +0.119 C 
BRANCH  19  20
ATOM     20  N   UNL     1      85.059  -4.162  15.162  0.00  0.00    -0.302 NA
ATOM     21  C   UNL     1      83.794  -4.220  14.300  0.00  0.00    +0.066 C 
ATOM     22  C   UNL     1      83.607  -2.905  13.475  0.00  0.00    -0.064 C 
ATOM     23  N   UNL     1      84.845  -2.671  12.607  0.00  0.00    +0.379 N 
ATOM     24  C   UNL     1      84.647  -1.466  11.787  0.00  0.00    -0.096 C 
ATOM     25  H   UNL     1      84.942  -3.539  11.915  0.00  0.00    -0.082 HD
ATOM     26  C   UNL     1      86.107  -2.614  13.456  0.00  0.00    -0.064 C 
ATOM     27  C   UNL     1      86.267  -3.914  14.294  0.00  0.00    +0.066 C 
ENDBRANCH  19  20
ENDBRANCH  18  19
ENDBRANCH  14  15
ENDBRANCH  12  13
TORSDOF 6
ENDMDL
MODEL 3
REMARK VINA RESULT:      -7.5      8.787     14.640
REMARK  Name = C:\Users\Docking\Desktop\test protocol\1iep_ligandH.pdb
REMARK  8 active torsions:
REMARK  status: ('A' for Active; 'I' for Inactive)
REMARK    1  A    between atoms: _5  and  _11
REMARK    2  A    between atoms: _19  and  _21
REMARK    3  A    between atoms: _22  and  _66
REMARK    4  A    between atoms: _27  and  _30
REMARK    5  A    between atoms: _32  and  _33
REMARK    6  A    between atoms: _38  and  _43
REMARK    7  A    between atoms: _43  and  _46
REMARK    8  A    between atoms: _53  and  _55
REMARK                            x       y       z     vdW  Elec       q    Type
REMARK                         _______ _______ _______ _____ _____    ______ ____
ROOT
ATOM     10  C   UNL     1      87.614  -7.213  27.289  0.00  0.00    +0.038 A 
ATOM     11  C   UNL     1      87.458  -7.244  25.880  0.00  0.00    +0.047 A 
ATOM     12  C   UNL     1      87.190  -6.030  25.125  0.00  0.00    +0.035 A 
ATOM     32  C   UNL     1      87.089  -4.800  25.838  0.00  0.00    +0.024 A 
ATOM     33  C   UNL     1      87.244  -4.750  27.271  0.00  0.00    +0.007 A 
ATOM     34  C   UNL     1      87.506  -5.945  28.021  0.00  0.00    -0.029 A 
ATOM     35  C   UNL     1      87.656  -5.833  29.556  0.00  0.00    +0.045 C 
ENDROOT
BRANCH  10   9
ATOM      4  C   UNL     1      90.427 -10.953  28.353  0.00  0.00    +0.077 A 
ATOM      5  C   UNL     1      91.464 -10.500  27.470  0.00  0.00    +0.048 A 
ATOM      6  C   UNL     1      91.230  -9.304  26.755  0.00  0.00    +0.116 A 
ATOM      7  N   UNL     1      90.045  -8.620  26.919  0.00  0.00    -0.223 NA
ATOM      8  C   UNL     1      89.066  -9.085  27.777  0.00  0.00    +0.220 A 
ATOM      9  N   UNL     1      87.870  -8.409  27.963  0.00  0.00    -0.283 N 
ATOM     36  H   UNL     1      87.170  -8.789  28.600  0.00  0.00    +0.155 HD
ATOM     37  N   UNL     1      89.264 -10.226  28.470  0.00  0.00    -0.214 NA
BRANCH   4   3
ATOM      1  C   UNL     1      91.838 -13.953  30.429  0.00  0.00    +0.020 A 
ATOM      2  C   UNL     1      91.797 -12.748  29.633  0.00  0.00    +0.013 A 
ATOM      3  C   UNL     1      90.526 -12.198  29.179  0.00  0.00    +0.019 A 
ATOM     38  C   UNL     1      89.305 -12.896  29.551  0.00  0.00    +0.120 A 
ATOM     39  N   UNL     1      89.375 -14.055  30.318  0.00  0.00    -0.263 NA
ATOM     40  C   UNL     1      90.593 -14.595  30.759  0.00  0.00    +0.111 A 
ENDBRANCH   4   3
ENDBRANCH  10   9
BRANCH  12  13
ATOM     13  N   UNL     1      87.015  -6.001  23.694  0.00  0.00    -0.281 N 
ATOM     14  C   UNL     1      86.103  -5.259  22.963  0.00  0.00    +0.248 C 
ATOM     30  O   UNL     1      85.151  -4.664  23.445  0.00  0.00    -0.270 OA
ATOM     31  H   UNL     1      87.640  -6.601  23.155  0.00  0.00    +0.155 HD
BRANCH  14  15
ATOM     15  C   UNL     1      86.263  -5.177  21.479  0.00  0.00    +0.037 A 
ATOM     16  C   UNL     1      87.500  -5.607  20.823  0.00  0.00    +0.013 A 
ATOM     17  C   UNL     1      87.635  -5.501  19.392  0.00  0.00    +0.005 A 
ATOM     18  C   UNL     1      86.527  -4.964  18.606  0.00  0.00    -0.033 A 
ATOM     28  C   UNL     1      85.308  -4.550  19.282  0.00  0.00    +0.005 A 
ATOM     29  C   UNL     1      85.173  -4.651  20.684  0.00  0.00    +0.013 A 
BRANCH  18  19
ATOM     19  C   UNL     1      86.590  -4.796  17.076  0.00  0.00    +0.119 C 
BRANCH  19  20
ATOM     20  N   UNL     1      85.304  -4.534  16.363  0.00  0.00    -0.302 NA
ATOM     21  C   UNL     1      85.133  -5.436  15.138  0.00  0.00    +0.066 C 
ATOM     22  C   UNL     1      83.772  -5.164  14.417  0.00  0.00    -0.064 C 
ATOM     23  N   UNL     1      83.696  -3.689  14.019  0.00  0.00    +0.379 N 
ATOM     24  C   UNL     1      82.443  -3.443  13.289  0.00  0.00    -0.096 C 
ATOM     25  H   UNL     1      84.540  -3.484  13.320  0.00  0.00    -0.082 HD
ATOM     26  C   UNL     1      83.868  -2.785  15.231  0.00  0.00    -0.064 C 
ATOM     27  C   UNL     1      85.209  -3.084  15.957  0.00  0.00    +0.066 C 
ENDBRANCH  19  20
ENDBRANCH  18  19
ENDBRANCH  14  15
ENDBRANCH  12  13
TORSDOF 6
ENDMDL
MODEL 4
REMARK VINA RESULT:      -7.4     36.140     40.074
REMARK  Name = C:\Users\Docking\Desktop\test protocol\1iep_ligandH.pdb
REMARK  8 active torsions:
REMARK  status: ('A' for Active; 'I' for Inactive)
REMARK    1  A    between atoms: _5  and  _11
REMARK    2  A    between atoms: _19  and  _21
REMARK    3  A    between atoms: _22  and  _66
REMARK    4  A    between atoms: _27  and  _30
REMARK    5  A    between atoms: _32  and  _33
REMARK    6  A    between atoms: _38  and  _43
REMARK    7  A    between atoms: _43  and  _46
REMARK    8  A    between atoms: _53  and  _55
REMARK                            x       y       z     vdW  Elec       q    Type
REMARK                         _______ _______ _______ _____ _____    ______ ____
ROOT
ATOM     10  C   UNL     1      64.919 -10.790 -14.223  0.00  0.00    +0.038 A 
ATOM     11  C   UNL     1      63.639 -10.705 -13.617  0.00  0.00    +0.047 A 
ATOM     12  C   UNL     1      62.450 -10.429 -14.408  0.00  0.00    +0.035 A 
ATOM     32  C   UNL     1      62.600 -10.248 -15.813  0.00  0.00    +0.024 A 
ATOM     33  C   UNL     1      63.893 -10.330 -16.445  0.00  0.00    +0.007 A 
ATOM     34  C   UNL     1      65.070 -10.599 -15.670  0.00  0.00    -0.029 A 
ATOM     35  C   UNL     1      66.432 -10.670 -16.400  0.00  0.00    +0.045 C 
ENDROOT
BRANCH  10   9
ATOM      4  C   UNL     1      68.180 -13.783 -12.367  0.00  0.00    +0.077 A 
ATOM      5  C   UNL     1      67.612 -14.915 -13.040  0.00  0.00    +0.048 A 
ATOM      6  C   UNL     1      66.476 -14.685 -13.849  0.00  0.00    +0.116 A 
ATOM      7  N   UNL     1      65.957 -13.414 -13.969  0.00  0.00    -0.223 NA
ATOM      8  C   UNL     1      66.528 -12.345 -13.304  0.00  0.00    +0.220 A 
ATOM      9  N   UNL     1      66.028 -11.057 -13.416  0.00  0.00    -0.283 N 
ATOM     36  H   UNL     1      66.473 -10.296 -12.904  0.00  0.00    +0.155 HD
ATOM     37  N   UNL     1      67.613 -12.538 -12.525  0.00  0.00    -0.214 NA
BRANCH   4   3
ATOM      1  C   UNL     1      71.860 -14.143 -11.091  0.00  0.00    +0.020 A 
ATOM      2  C   UNL     1      70.732 -14.073 -11.991  0.00  0.00    +0.013 A 
ATOM      3  C   UNL     1      69.384 -13.864 -11.480  0.00  0.00    +0.019 A 
ATOM     38  C   UNL     1      69.209 -13.728 -10.041  0.00  0.00    +0.120 A 
ATOM     39  N   UNL     1      70.314 -13.801  -9.199  0.00  0.00    -0.263 NA
ATOM     40  C   UNL     1      71.616 -14.003  -9.679  0.00  0.00    +0.111 A 
ENDBRANCH   4   3
ENDBRANCH  10   9
BRANCH  12  13
ATOM     13  N   UNL     1      61.126 -10.323 -13.847  0.00  0.00    -0.281 N 
ATOM     14  C   UNL     1      60.345  -9.186 -13.716  0.00  0.00    +0.248 C 
ATOM     30  O   UNL     1      60.755  -8.045 -13.867  0.00  0.00    -0.270 OA
ATOM     31  H   UNL     1      60.714 -11.191 -13.505  0.00  0.00    +0.155 HD
BRANCH  14  15
ATOM     15  C   UNL     1      58.904  -9.338 -13.349  0.00  0.00    +0.037 A 
ATOM     16  C   UNL     1      57.875  -9.533 -14.374  0.00  0.00    +0.013 A 
ATOM     17  C   UNL     1      56.491  -9.660 -13.994  0.00  0.00    +0.005 A 
ATOM     18  C   UNL     1      56.127  -9.594 -12.581  0.00  0.00    -0.033 A 
ATOM     28  C   UNL     1      57.168  -9.405 -11.585  0.00  0.00    +0.005 A 
ATOM     29  C   UNL     1      58.526  -9.279 -11.953  0.00  0.00    +0.013 A 
BRANCH  18  19
ATOM     19  C   UNL     1      54.672  -9.698 -12.086  0.00  0.00    +0.119 C 
BRANCH  19  20
ATOM     20  N   UNL     1      53.670  -8.785 -12.712  0.00  0.00    -0.302 NA
ATOM     21  C   UNL     1      54.077  -7.314 -12.587  0.00  0.00    +0.066 C 
ATOM     22  C   UNL     1      53.029  -6.373 -13.266  0.00  0.00    -0.064 C 
ATOM     23  N   UNL     1      51.654  -6.609 -12.639  0.00  0.00    +0.379 N 
ATOM     24  C   UNL     1      50.678  -5.686 -13.235  0.00  0.00    -0.096 C 
ATOM     25  H   UNL     1      51.732  -6.366 -11.554  0.00  0.00    -0.082 HD
ATOM     26  C   UNL     1      51.242  -8.070 -12.756  0.00  0.00    -0.064 C 
ATOM     27  C   UNL     1      52.305  -8.998 -12.104  0.00  0.00    +0.066 C 
ENDBRANCH  19  20
ENDBRANCH  18  19
ENDBRANCH  14  15
ENDBRANCH  12  13
TORSDOF 6
ENDMDL
MODEL 5
REMARK VINA RESULT:      -7.4     20.081     31.417
REMARK  Name = C:\Users\Docking\Desktop\test protocol\1iep_ligandH.pdb
REMARK  8 active torsions:
REMARK  status: ('A' for Active; 'I' for Inactive)
REMARK    1  A    between atoms: _5  and  _11
REMARK    2  A    between atoms: _19  and  _21
REMARK    3  A    between atoms: _22  and  _66
REMARK    4  A    between atoms: _27  and  _30
REMARK    5  A    between atoms: _32  and  _33
REMARK    6  A    between atoms: _38  and  _43
REMARK    7  A    between atoms: _43  and  _46
REMARK    8  A    between atoms: _53  and  _55
REMARK                            x       y       z     vdW  Elec       q    Type
REMARK                         _______ _______ _______ _____ _____    ______ ____
ROOT
ATOM     10  C   UNL     1     101.966  -2.570 -16.657  0.00  0.00    +0.038 A 
ATOM     11  C   UNL     1     101.949  -2.438 -15.245  0.00  0.00    +0.047 A 
ATOM     12  C   UNL     1     102.314  -3.550 -14.380  0.00  0.00    +0.035 A 
ATOM     32  C   UNL     1     102.694  -4.781 -14.988  0.00  0.00    +0.024 A 
ATOM     33  C   UNL     1     102.717  -4.934 -16.422  0.00  0.00    +0.007 A 
ATOM     34  C   UNL     1     102.355  -3.842 -17.279  0.00  0.00    -0.029 A 
ATOM     35  C   UNL     1     102.391  -4.064 -18.809  0.00  0.00    +0.045 C 
ENDROOT
BRANCH  10   9
ATOM      4  C   UNL     1     103.062   1.200 -19.417  0.00  0.00    +0.077 A 
ATOM      5  C   UNL     1     104.471   0.976 -19.266  0.00  0.00    +0.048 A 
ATOM      6  C   UNL     1     104.872  -0.116 -18.464  0.00  0.00    +0.116 A 
ATOM      7  N   UNL     1     103.926  -0.917 -17.863  0.00  0.00    -0.223 NA
ATOM      8  C   UNL     1     102.575  -0.673 -18.028  0.00  0.00    +0.220 A 
ATOM      9  N   UNL     1     101.607  -1.471 -17.439  0.00  0.00    -0.283 N 
ATOM     36  H   UNL     1     100.620  -1.253 -17.579  0.00  0.00    +0.155 HD
ATOM     37  N   UNL     1     102.167   0.365 -18.788  0.00  0.00    -0.214 NA
BRANCH   4   3
ATOM      1  C   UNL     1     101.837   4.724 -20.593  0.00  0.00    +0.020 A 
ATOM      2  C   UNL     1     102.407   3.688 -19.763  0.00  0.00    +0.013 A 
ATOM      3  C   UNL     1     102.482   2.311 -20.235  0.00  0.00    +0.019 A 
ATOM     38  C   UNL     1     101.967   2.014 -21.564  0.00  0.00    +0.120 A 
ATOM     39  N   UNL     1     101.423   3.032 -22.340  0.00  0.00    -0.263 NA
ATOM     40  C   UNL     1     101.344   4.360 -21.896  0.00  0.00    +0.111 A 
ENDBRANCH   4   3
ENDBRANCH  10   9
BRANCH  12  13
ATOM     13  N   UNL     1     102.307  -3.477 -12.940  0.00  0.00    -0.281 N 
ATOM     14  C   UNL     1     103.276  -2.938 -12.110  0.00  0.00    +0.248 C 
ATOM     30  O   UNL     1     104.401  -2.628 -12.472  0.00  0.00    -0.270 OA
ATOM     31  H   UNL     1     101.488  -3.870 -12.476  0.00  0.00    +0.155 HD
BRANCH  14  15
ATOM     15  C   UNL     1     102.955  -2.728 -10.666  0.00  0.00    +0.037 A 
ATOM     16  C   UNL     1     101.587  -2.878 -10.162  0.00  0.00    +0.013 A 
ATOM     17  C   UNL     1     101.301  -2.653  -8.767  0.00  0.00    +0.005 A 
ATOM     18  C   UNL     1     102.387  -2.277  -7.865  0.00  0.00    -0.033 A 
ATOM     28  C   UNL     1     103.736  -2.140  -8.390  0.00  0.00    +0.005 A 
ATOM     29  C   UNL     1     104.019  -2.359  -9.757  0.00  0.00    +0.013 A 
BRANCH  18  19
ATOM     19  C   UNL     1     102.170  -1.996  -6.367  0.00  0.00    +0.119 C 
BRANCH  19  20
ATOM     20  N   UNL     1     101.006  -2.661  -5.708  0.00  0.00    -0.302 NA
ATOM     21  C   UNL     1     100.107  -1.657  -4.981  0.00  0.00    +0.066 C 
ATOM     22  C   UNL     1      98.882  -2.367  -4.317  0.00  0.00    -0.064 C 
ATOM     23  N   UNL     1      99.382  -3.444  -3.353  0.00  0.00    +0.379 N 
ATOM     24  C   UNL     1      98.234  -4.073  -2.683  0.00  0.00    -0.096 C 
ATOM     25  H   UNL     1      99.995  -2.939  -2.570  0.00  0.00    -0.082 HD
ATOM     26  C   UNL     1     100.279  -4.445  -4.067  0.00  0.00    -0.064 C 
ATOM     27  C   UNL     1     101.477  -3.726  -4.748  0.00  0.00    +0.066 C 
ENDBRANCH  19  20
ENDBRANCH  18  19
ENDBRANCH  14  15
ENDBRANCH  12  13
TORSDOF 6
ENDMDL
