MODEL 1
REMARK VINA RESULT:      -8.5      0.000      0.000
REMARK  Name = C:\Users\Docking\Desktop\test protocol\1iep_ligandH.pdb
REMARK  8 active torsions:
REMARK  status: ('A' for Active; 'I' for Inactive)
REMARK    1  A    between atoms: _5  and  _11
REMARK    2  A    between atoms: _19  and  _21
REMARK    3  A    between atoms: _22  and  _66
REMARK    4  A    between atoms: _27  and  _30
REMARK    5  A    between atoms: _32  and  _33
REMARK    6  A    between atoms: _38  and  _43
REMARK    7  A    between atoms: _43  and  _46
REMARK    8  A    between atoms: _53  and  _55
REMARK                            x       y       z     vdW  Elec       q    Type
REMARK                         _______ _______ _______ _____ _____    ______ ____
ROOT
ATOM     10  C   UNL     1      -3.016 -14.670  36.632  0.00  0.00    +0.038 A 
ATOM     11  C   UNL     1      -1.891 -14.078  37.261  0.00  0.00    +0.047 A 
ATOM     12  C   UNL     1      -0.540 -14.535  36.973  0.00  0.00    +0.035 A 
ATOM     32  C   UNL     1      -0.371 -15.596  36.037  0.00  0.00    +0.024 A 
ATOM     33  C   UNL     1      -1.504 -16.210  35.389  0.00  0.00    +0.007 A 
ATOM     34  C   UNL     1      -2.838 -15.765  35.670  0.00  0.00    -0.029 A 
ATOM     35  C   UNL     1      -4.015 -16.465  34.951  0.00  0.00    +0.045 C 
ENDROOT
BRANCH  10   9
ATOM      4  C   UNL     1      -7.016 -14.704  39.284  0.00  0.00    +0.077 A 
ATOM      5  C   UNL     1      -6.537 -15.785  40.098  0.00  0.00    +0.048 A 
ATOM      6  C   UNL     1      -5.260 -16.308  39.797  0.00  0.00    +0.116 A 
ATOM      7  N   UNL     1      -4.524 -15.782  38.757  0.00  0.00    -0.223 NA
ATOM      8  C   UNL     1      -5.016 -14.741  37.990  0.00  0.00    +0.220 A 
ATOM      9  N   UNL     1      -4.290 -14.192  36.945  0.00  0.00    -0.283 N 
ATOM     36  H   UNL     1      -4.691 -13.430  36.399  0.00  0.00    +0.155 HD
ATOM     37  N   UNL     1      -6.234 -14.225  38.257  0.00  0.00    -0.214 NA
BRANCH   4   3
ATOM      1  C   UNL     1      -9.799 -12.018  39.861  0.00  0.00    +0.020 A 
ATOM      2  C   UNL     1      -8.493 -12.607  39.677  0.00  0.00    +0.013 A 
ATOM      3  C   UNL     1      -8.344 -14.043  39.481  0.00  0.00    +0.019 A 
ATOM     38  C   UNL     1      -9.547 -14.862  39.476  0.00  0.00    +0.120 A 
ATOM     39  N   UNL     1     -10.792 -14.268  39.658  0.00  0.00    -0.263 NA
ATOM     40  C   UNL     1     -10.947 -12.886  39.849  0.00  0.00    +0.111 A 
ENDBRANCH   4   3
ENDBRANCH  10   9
BRANCH  12  13
ATOM     13  N   UNL     1       0.639 -13.977  37.587  0.00  0.00    -0.281 N 
ATOM     14  C   UNL     1       1.509 -13.036  37.061  0.00  0.00    +0.248 C 
ATOM     30  O   UNL     1       1.524 -12.687  35.890  0.00  0.00    -0.270 OA
ATOM     31  H   UNL     1       0.859 -14.318  38.523  0.00  0.00    +0.155 HD
BRANCH  14  15
ATOM     15  C   UNL     1       2.518 -12.402  37.964  0.00  0.00    +0.037 A 
ATOM     16  C   UNL     1       2.302 -12.326  39.411  0.00  0.00    +0.013 A 
ATOM     17  C   UNL     1       3.283 -11.694  40.256  0.00  0.00    +0.005 A 
ATOM     18  C   UNL     1       4.491 -11.133  39.656  0.00  0.00    -0.033 A 
ATOM     28  C   UNL     1       4.683 -11.227  38.218  0.00  0.00    +0.005 A 
ATOM     29  C   UNL     1       3.723 -11.845  37.386  0.00  0.00    +0.013 A 
BRANCH  18  19
ATOM     19  C   UNL     1       5.582 -10.422  40.479  0.00  0.00    +0.119 C 
BRANCH  19  20
ATOM     20  N   UNL     1       5.484 -10.512  41.966  0.00  0.00    -0.302 NA
ATOM     21  C   UNL     1       4.741  -9.316  42.567  0.00  0.00    +0.066 C 
ATOM     22  C   UNL     1       4.628  -9.438  44.121  0.00  0.00    -0.064 C 
ATOM     23  N   UNL     1       6.029  -9.563  44.723  0.00  0.00    +0.379 N 
ATOM     24  C   UNL     1       5.929  -9.620  46.189  0.00  0.00    -0.096 C 
ATOM     25  H   UNL     1       6.594  -8.640  44.458  0.00  0.00    -0.082 HD
ATOM     26  C   UNL     1       6.776 -10.749  44.129  0.00  0.00    -0.064 C 
ATOM     27  C   UNL     1       6.856 -10.632  42.582  0.00  0.00    +0.066 C 
ENDBRANCH  19  20
ENDBRANCH  18  19
ENDBRANCH  14  15
ENDBRANCH  12  13
TORSDOF 6
ENDMDL
MODEL 2
REMARK VINA RESULT:      -7.9      6.942     13.085
REMARK  Name = C:\Users\Docking\Desktop\test protocol\1iep_ligandH.pdb
REMARK  8 active torsions:
REMARK  status: ('A' for Active; 'I' for Inactive)
REMARK    1  A    between atoms: _5  and  _11
REMARK    2  A    between atoms: _19  and  _21
REMARK    3  A    between atoms: _22  and  _66
REMARK    4  A    between atoms: _27  and  _30
REMARK    5  A    between atoms: _32  and  _33
REMARK    6  A    between atoms: _38  and  _43
REMARK    7  A    between atoms: _43  and  _46
REMARK    8  A    between atoms: _53  and  _55
REMARK                            x       y       z     vdW  Elec       q    Type
REMARK                         _______ _______ _______ _____ _____    ______ ____
ROOT
ATOM     10  C   UNL     1      -4.995 -14.728  36.223  0.00  0.00    +0.038 A 
ATOM     11  C   UNL     1      -6.193 -14.914  36.959  0.00  0.00    +0.047 A 
ATOM     12  C   UNL     1      -6.189 -14.915  38.414  0.00  0.00    +0.035 A 
ATOM     32  C   UNL     1      -4.948 -14.720  39.087  0.00  0.00    +0.024 A 
ATOM     33  C   UNL     1      -3.721 -14.530  38.354  0.00  0.00    +0.007 A 
ATOM     34  C   UNL     1      -3.718 -14.531  36.919  0.00  0.00    -0.029 A 
ATOM     35  C   UNL     1      -2.371 -14.330  36.185  0.00  0.00    +0.045 C 
ENDROOT
BRANCH  10   9
ATOM      4  C   UNL     1      -6.310 -12.793  32.032  0.00  0.00    +0.077 A 
ATOM      5  C   UNL     1      -6.952 -11.685  32.677  0.00  0.00    +0.048 A 
ATOM      6  C   UNL     1      -6.928 -11.654  34.090  0.00  0.00    +0.116 A 
ATOM      7  N   UNL     1      -6.305 -12.662  34.794  0.00  0.00    -0.223 NA
ATOM      8  C   UNL     1      -5.696 -13.717  34.140  0.00  0.00    +0.220 A 
ATOM      9  N   UNL     1      -5.056 -14.737  34.828  0.00  0.00    -0.283 N 
ATOM     36  H   UNL     1      -4.625 -15.502  34.309  0.00  0.00    +0.155 HD
ATOM     37  N   UNL     1      -5.706 -13.770  32.792  0.00  0.00    -0.214 NA
BRANCH   4   3
ATOM      1  C   UNL     1      -6.861 -12.303  28.190  0.00  0.00    +0.020 A 
ATOM      2  C   UNL     1      -6.955 -12.093  29.617  0.00  0.00    +0.013 A 
ATOM      3  C   UNL     1      -6.248 -12.966  30.546  0.00  0.00    +0.019 A 
ATOM     38  C   UNL     1      -5.447 -14.049  29.995  0.00  0.00    +0.120 A 
ATOM     39  N   UNL     1      -5.377 -14.227  28.616  0.00  0.00    -0.263 NA
ATOM     40  C   UNL     1      -6.054 -13.395  27.713  0.00  0.00    +0.111 A 
ENDBRANCH   4   3
ENDBRANCH  10   9
BRANCH  12  13
ATOM     13  N   UNL     1      -7.373 -15.107  39.215  0.00  0.00    -0.281 N 
ATOM     14  C   UNL     1      -8.428 -14.228  39.400  0.00  0.00    +0.248 C 
ATOM     30  O   UNL     1      -8.412 -13.051  39.073  0.00  0.00    -0.270 OA
ATOM     31  H   UNL     1      -7.441 -15.999  39.705  0.00  0.00    +0.155 HD
BRANCH  14  15
ATOM     15  C   UNL     1      -9.675 -14.726  40.057  0.00  0.00    +0.037 A 
ATOM     16  C   UNL     1     -10.993 -14.492  39.462  0.00  0.00    +0.013 A 
ATOM     17  C   UNL     1     -12.181 -14.968  40.125  0.00  0.00    +0.005 A 
ATOM     18  C   UNL     1     -12.055 -15.684  41.392  0.00  0.00    -0.033 A 
ATOM     28  C   UNL     1     -10.735 -15.907  41.958  0.00  0.00    +0.005 A 
ATOM     29  C   UNL     1      -9.569 -15.441  41.311  0.00  0.00    +0.013 A 
BRANCH  18  19
ATOM     19  C   UNL     1     -13.270 -16.209  42.180  0.00  0.00    +0.119 C 
BRANCH  19  20
ATOM     20  N   UNL     1     -13.832 -15.321  43.242  0.00  0.00    -0.302 NA
ATOM     21  C   UNL     1     -13.153 -15.545  44.596  0.00  0.00    +0.066 C 
ATOM     22  C   UNL     1     -13.737 -14.593  45.690  0.00  0.00    -0.064 C 
ATOM     23  N   UNL     1     -15.248 -14.811  45.798  0.00  0.00    +0.379 N 
ATOM     24  C   UNL     1     -15.791 -13.959  46.866  0.00  0.00    -0.096 C 
ATOM     25  H   UNL     1     -15.416 -15.872  46.094  0.00  0.00    -0.082 HD
ATOM     26  C   UNL     1     -15.930 -14.593  44.455  0.00  0.00    -0.064 C 
ATOM     27  C   UNL     1     -15.322 -15.523  43.369  0.00  0.00    +0.066 C 
ENDBRANCH  19  20
ENDBRANCH  18  19
ENDBRANCH  14  15
ENDBRANCH  12  13
TORSDOF 6
ENDMDL
MODEL 3
REMARK VINA RESULT:      -7.7      7.464      9.371
REMARK  Name = C:\Users\Docking\Desktop\test protocol\1iep_ligandH.pdb
REMARK  8 active torsions:
REMARK  status: ('A' for Active; 'I' for Inactive)
REMARK    1  A    between atoms: _5  and  _11
REMARK    2  A    between atoms: _19  and  _21
REMARK    3  A    between atoms: _22  and  _66
REMARK    4  A    between atoms: _27  and  _30
REMARK    5  A    between atoms: _32  and  _33
REMARK    6  A    between atoms: _38  and  _43
REMARK    7  A    between atoms: _43  and  _46
REMARK    8  A    between atoms: _53  and  _55
REMARK                            x       y       z     vdW  Elec       q    Type
REMARK                         _______ _______ _______ _____ _____    ______ ____
ROOT
ATOM     10  C   UNL     1      -7.082 -14.740  40.418  0.00  0.00    +0.038 A 
ATOM     11  C   UNL     1      -6.813 -13.517  39.751  0.00  0.00    +0.047 A 
ATOM     12  C   UNL     1      -5.791 -13.431  38.721  0.00  0.00    +0.035 A 
ATOM     32  C   UNL     1      -5.061 -14.611  38.392  0.00  0.00    +0.024 A 
ATOM     33  C   UNL     1      -5.320 -15.862  39.061  0.00  0.00    +0.007 A 
ATOM     34  C   UNL     1      -6.327 -15.952  40.080  0.00  0.00    -0.029 A 
ATOM     35  C   UNL     1      -6.557 -17.318  40.768  0.00  0.00    +0.045 C 
ENDROOT
BRANCH  10   9
ATOM      4  C   UNL     1     -11.677 -14.970  41.785  0.00  0.00    +0.077 A 
ATOM      5  C   UNL     1     -12.140 -15.015  40.428  0.00  0.00    +0.048 A 
ATOM      6  C   UNL     1     -11.164 -14.970  39.407  0.00  0.00    +0.116 A 
ATOM      7  N   UNL     1      -9.827 -14.886  39.732  0.00  0.00    -0.223 NA
ATOM      8  C   UNL     1      -9.415 -14.842  41.051  0.00  0.00    +0.220 A 
ATOM      9  N   UNL     1      -8.075 -14.766  41.400  0.00  0.00    -0.283 N 
ATOM     36  H   UNL     1      -7.812 -14.728  42.384  0.00  0.00    +0.155 HD
ATOM     37  N   UNL     1     -10.328 -14.882  42.043  0.00  0.00    -0.214 NA
BRANCH   4   3
ATOM      1  C   UNL     1     -14.868 -15.167  44.039  0.00  0.00    +0.020 A 
ATOM      2  C   UNL     1     -14.035 -15.131  42.859  0.00  0.00    +0.013 A 
ATOM      3  C   UNL     1     -12.587 -15.012  42.973  0.00  0.00    +0.019 A 
ATOM     38  C   UNL     1     -12.009 -14.933  44.306  0.00  0.00    +0.120 A 
ATOM     39  N   UNL     1     -12.836 -14.969  45.424  0.00  0.00    -0.263 NA
ATOM     40  C   UNL     1     -14.231 -15.081  45.327  0.00  0.00    +0.111 A 
ENDBRANCH   4   3
ENDBRANCH  10   9
BRANCH  12  13
ATOM     13  N   UNL     1      -5.468 -12.216  38.015  0.00  0.00    -0.281 N 
ATOM     14  C   UNL     1      -6.299 -11.451  37.213  0.00  0.00    +0.248 C 
ATOM     30  O   UNL     1      -7.393 -11.814  36.806  0.00  0.00    -0.270 OA
ATOM     31  H   UNL     1      -4.512 -11.878  38.120  0.00  0.00    +0.155 HD
BRANCH  14  15
ATOM     15  C   UNL     1      -5.843 -10.092  36.789  0.00  0.00    +0.037 A 
ATOM     16  C   UNL     1      -4.987  -9.275  37.652  0.00  0.00    +0.013 A 
ATOM     17  C   UNL     1      -4.575  -7.960  37.227  0.00  0.00    +0.005 A 
ATOM     18  C   UNL     1      -5.020  -7.456  35.929  0.00  0.00    -0.033 A 
ATOM     28  C   UNL     1      -5.865  -8.290  35.091  0.00  0.00    +0.005 A 
ATOM     29  C   UNL     1      -6.271  -9.578  35.505  0.00  0.00    +0.013 A 
BRANCH  18  19
ATOM     19  C   UNL     1      -4.647  -6.057  35.404  0.00  0.00    +0.119 C 
BRANCH  19  20
ATOM     20  N   UNL     1      -5.435  -4.899  35.922  0.00  0.00    -0.302 NA
ATOM     21  C   UNL     1      -5.439  -3.722  34.942  0.00  0.00    +0.066 C 
ATOM     22  C   UNL     1      -6.287  -2.529  35.490  0.00  0.00    -0.064 C 
ATOM     23  N   UNL     1      -5.737  -2.098  36.851  0.00  0.00    +0.379 N 
ATOM     24  C   UNL     1      -6.496  -0.939  37.342  0.00  0.00    -0.096 C 
ATOM     25  H   UNL     1      -4.681  -1.774  36.702  0.00  0.00    -0.082 HD
ATOM     26  C   UNL     1      -5.727  -3.263  37.830  0.00  0.00    -0.064 C 
ATOM     27  C   UNL     1      -4.907  -4.455  37.264  0.00  0.00    +0.066 C 
ENDBRANCH  19  20
ENDBRANCH  18  19
ENDBRANCH  14  15
ENDBRANCH  12  13
TORSDOF 6
ENDMDL
MODEL 4
REMARK VINA RESULT:      -7.6      7.811     14.115
REMARK  Name = C:\Users\Docking\Desktop\test protocol\1iep_ligandH.pdb
REMARK  8 active torsions:
REMARK  status: ('A' for Active; 'I' for Inactive)
REMARK    1  A    between atoms: _5  and  _11
REMARK    2  A    between atoms: _19  and  _21
REMARK    3  A    between atoms: _22  and  _66
REMARK    4  A    between atoms: _27  and  _30
REMARK    5  A    between atoms: _32  and  _33
REMARK    6  A    between atoms: _38  and  _43
REMARK    7  A    between atoms: _43  and  _46
REMARK    8  A    between atoms: _53  and  _55
REMARK                            x       y       z     vdW  Elec       q    Type
REMARK                         _______ _______ _______ _____ _____    ______ ____
ROOT
ATOM     10  C   UNL     1      -6.160 -13.276  38.032  0.00  0.00    +0.038 A 
ATOM     11  C   UNL     1      -7.219 -13.229  38.974  0.00  0.00    +0.047 A 
ATOM     12  C   UNL     1      -7.843 -14.447  39.466  0.00  0.00    +0.035 A 
ATOM     32  C   UNL     1      -7.362 -15.697  38.978  0.00  0.00    +0.024 A 
ATOM     33  C   UNL     1      -6.287 -15.763  38.019  0.00  0.00    +0.007 A 
ATOM     34  C   UNL     1      -5.669 -14.564  37.529  0.00  0.00    -0.029 A 
ATOM     35  C   UNL     1      -4.525 -14.695  36.497  0.00  0.00    +0.045 C 
ENDROOT
BRANCH  10   9
ATOM      4  C   UNL     1      -6.130  -9.398  35.203  0.00  0.00    +0.077 A 
ATOM      5  C   UNL     1      -7.322  -9.813  34.522  0.00  0.00    +0.048 A 
ATOM      6  C   UNL     1      -7.908 -11.034  34.925  0.00  0.00    +0.116 A 
ATOM      7  N   UNL     1      -7.336 -11.776  35.935  0.00  0.00    -0.223 NA
ATOM      8  C   UNL     1      -6.185 -11.348  36.570  0.00  0.00    +0.220 A 
ATOM      9  N   UNL     1      -5.597 -12.075  37.594  0.00  0.00    -0.283 N 
ATOM     36  H   UNL     1      -4.744 -11.729  38.033  0.00  0.00    +0.155 HD
ATOM     37  N   UNL     1      -5.605 -10.186  36.203  0.00  0.00    -0.214 NA
BRANCH   4   3
ATOM      1  C   UNL     1      -4.035  -6.649  33.371  0.00  0.00    +0.020 A 
ATOM      2  C   UNL     1      -4.730  -7.891  33.620  0.00  0.00    +0.013 A 
ATOM      3  C   UNL     1      -5.396  -8.131  34.894  0.00  0.00    +0.019 A 
ATOM     38  C   UNL     1      -5.340  -7.084  35.903  0.00  0.00    +0.120 A 
ATOM     39  N   UNL     1      -4.662  -5.899  35.636  0.00  0.00    -0.263 NA
ATOM     40  C   UNL     1      -4.016  -5.658  34.414  0.00  0.00    +0.111 A 
ENDBRANCH   4   3
ENDBRANCH  10   9
BRANCH  12  13
ATOM     13  N   UNL     1      -8.928 -14.461  40.416  0.00  0.00    -0.281 N 
ATOM     14  C   UNL     1     -10.255 -14.788  40.190  0.00  0.00    +0.248 C 
ATOM     30  O   UNL     1     -10.756 -14.912  39.083  0.00  0.00    -0.270 OA
ATOM     31  H   UNL     1      -8.688 -14.199  41.373  0.00  0.00    +0.155 HD
BRANCH  14  15
ATOM     15  C   UNL     1     -11.158 -14.992  41.363  0.00  0.00    +0.037 A 
ATOM     16  C   UNL     1     -12.558 -15.388  41.184  0.00  0.00    +0.013 A 
ATOM     17  C   UNL     1     -13.412 -15.562  42.332  0.00  0.00    +0.005 A 
ATOM     18  C   UNL     1     -12.869 -15.340  43.669  0.00  0.00    -0.033 A 
ATOM     28  C   UNL     1     -11.476 -14.953  43.818  0.00  0.00    +0.005 A 
ATOM     29  C   UNL     1     -10.635 -14.781  42.696  0.00  0.00    +0.013 A 
BRANCH  18  19
ATOM     19  C   UNL     1     -13.714 -15.482  44.949  0.00  0.00    +0.119 C 
BRANCH  19  20
ATOM     20  N   UNL     1     -15.191 -15.307  44.816  0.00  0.00    -0.302 NA
ATOM     21  C   UNL     1     -15.707 -14.127  45.645  0.00  0.00    +0.066 C 
ATOM     22  C   UNL     1     -17.250 -13.945  45.477  0.00  0.00    -0.064 C 
ATOM     23  N   UNL     1     -17.960 -15.239  45.877  0.00  0.00    +0.379 N 
ATOM     24  C   UNL     1     -19.415 -15.052  45.775  0.00  0.00    -0.096 C 
ATOM     25  H   UNL     1     -17.719 -15.440  46.946  0.00  0.00    -0.082 HD
ATOM     26  C   UNL     1     -17.452 -16.418  45.059  0.00  0.00    -0.064 C 
ATOM     27  C   UNL     1     -15.912 -16.572  45.210  0.00  0.00    +0.066 C 
ENDBRANCH  19  20
ENDBRANCH  18  19
ENDBRANCH  14  15
ENDBRANCH  12  13
TORSDOF 6
ENDMDL
MODEL 5
REMARK VINA RESULT:      -7.6      6.938     13.228
REMARK  Name = C:\Users\Docking\Desktop\test protocol\1iep_ligandH.pdb
REMARK  8 active torsions:
REMARK  status: ('A' for Active; 'I' for Inactive)
REMARK    1  A    between atoms: _5  and  _11
REMARK    2  A    between atoms: _19  and  _21
REMARK    3  A    between atoms: _22  and  _66
REMARK    4  A    between atoms: _27  and  _30
REMARK    5  A    between atoms: _32  and  _33
REMARK    6  A    between atoms: _38  and  _43
REMARK    7  A    between atoms: _43  and  _46
REMARK    8  A    between atoms: _53  and  _55
REMARK                            x       y       z     vdW  Elec       q    Type
REMARK                         _______ _______ _______ _____ _____    ______ ____
ROOT
ATOM     10  C   UNL     1      -4.933 -14.800  36.174  0.00  0.00    +0.038 A 
ATOM     11  C   UNL     1      -6.101 -14.849  36.978  0.00  0.00    +0.047 A 
ATOM     12  C   UNL     1      -6.018 -14.804  38.429  0.00  0.00    +0.035 A 
ATOM     32  C   UNL     1      -4.729 -14.704  39.030  0.00  0.00    +0.024 A 
ATOM     33  C   UNL     1      -3.532 -14.654  38.228  0.00  0.00    +0.007 A 
ATOM     34  C   UNL     1      -3.607 -14.701  36.796  0.00  0.00    -0.029 A 
ATOM     35  C   UNL     1      -2.290 -14.650  35.987  0.00  0.00    +0.045 C 
ENDROOT
BRANCH  10   9
ATOM      4  C   UNL     1      -5.753 -12.716  31.929  0.00  0.00    +0.077 A 
ATOM      5  C   UNL     1      -5.950 -11.429  32.532  0.00  0.00    +0.048 A 
ATOM      6  C   UNL     1      -5.838 -11.348  33.938  0.00  0.00    +0.116 A 
ATOM      7  N   UNL     1      -5.551 -12.475  34.676  0.00  0.00    -0.223 NA
ATOM      8  C   UNL     1      -5.368 -13.701  34.063  0.00  0.00    +0.220 A 
ATOM      9  N   UNL     1      -5.071 -14.847  34.785  0.00  0.00    -0.283 N 
ATOM     36  H   UNL     1      -4.951 -15.734  34.297  0.00  0.00    +0.155 HD
ATOM     37  N   UNL     1      -5.471 -13.806  32.722  0.00  0.00    -0.214 NA
BRANCH   4   3
ATOM      1  C   UNL     1      -6.629 -12.384  28.131  0.00  0.00    +0.020 A 
ATOM      2  C   UNL     1      -6.583 -12.101  29.547  0.00  0.00    +0.013 A 
ATOM      3  C   UNL     1      -5.835 -12.963  30.455  0.00  0.00    +0.019 A 
ATOM     38  C   UNL     1      -5.139 -14.110  29.892  0.00  0.00    +0.120 A 
ATOM     39  N   UNL     1      -5.203 -14.358  28.524  0.00  0.00    -0.263 NA
ATOM     40  C   UNL     1      -5.921 -13.537  27.642  0.00  0.00    +0.111 A 
ENDBRANCH   4   3
ENDBRANCH  10   9
BRANCH  12  13
ATOM     13  N   UNL     1      -7.169 -14.859  39.297  0.00  0.00    -0.281 N 
ATOM     14  C   UNL     1      -8.252 -13.996  39.330  0.00  0.00    +0.248 C 
ATOM     30  O   UNL     1      -8.294 -12.917  38.759  0.00  0.00    -0.270 OA
ATOM     31  H   UNL     1      -7.186 -15.627  39.968  0.00  0.00    +0.155 HD
BRANCH  14  15
ATOM     15  C   UNL     1      -9.458 -14.382  40.124  0.00  0.00    +0.037 A 
ATOM     16  C   UNL     1     -10.738 -14.671  39.471  0.00  0.00    +0.013 A 
ATOM     17  C   UNL     1     -11.890 -15.024  40.262  0.00  0.00    +0.005 A 
ATOM     18  C   UNL     1     -11.766 -15.092  41.717  0.00  0.00    -0.033 A 
ATOM     28  C   UNL     1     -10.484 -14.806  42.338  0.00  0.00    +0.005 A 
ATOM     29  C   UNL     1      -9.353 -14.459  41.566  0.00  0.00    +0.013 A 
BRANCH  18  19
ATOM     19  C   UNL     1     -12.948 -15.440  42.641  0.00  0.00    +0.119 C 
BRANCH  19  20
ATOM     20  N   UNL     1     -13.619 -16.757  42.426  0.00  0.00    -0.302 NA
ATOM     21  C   UNL     1     -14.858 -16.922  43.310  0.00  0.00    +0.066 C 
ATOM     22  C   UNL     1     -15.561 -18.295  43.057  0.00  0.00    -0.064 C 
ATOM     23  N   UNL     1     -14.564 -19.428  43.305  0.00  0.00    +0.379 N 
ATOM     24  C   UNL     1     -15.237 -20.723  43.124  0.00  0.00    -0.096 C 
ATOM     25  H   UNL     1     -14.237 -19.363  44.369  0.00  0.00    -0.082 HD
ATOM     26  C   UNL     1     -13.327 -19.271  42.432  0.00  0.00    -0.064 C 
ATOM     27  C   UNL     1     -12.654 -17.891  42.670  0.00  0.00    +0.066 C 
ENDBRANCH  19  20
ENDBRANCH  18  19
ENDBRANCH  14  15
ENDBRANCH  12  13
TORSDOF 6
ENDMDL
