MODEL 1
REMARK VINA RESULT:      -9.5      0.000      0.000
REMARK  Name = C:\Users\Docking\Desktop\test protocol\1iep_ligandH.pdb
REMARK  8 active torsions:
REMARK  status: ('A' for Active; 'I' for Inactive)
REMARK    1  A    between atoms: _5  and  _11
REMARK    2  A    between atoms: _19  and  _21
REMARK    3  A    between atoms: _22  and  _66
REMARK    4  A    between atoms: _27  and  _30
REMARK    5  A    between atoms: _32  and  _33
REMARK    6  A    between atoms: _38  and  _43
REMARK    7  A    between atoms: _43  and  _46
REMARK    8  A    between atoms: _53  and  _55
REMARK                            x       y       z     vdW  Elec       q    Type
REMARK                         _______ _______ _______ _____ _____    ______ ____
ROOT
ATOM     10  C   UNL     1      -4.460  16.716  24.183  0.00  0.00    +0.038 A 
ATOM     11  C   UNL     1      -4.831  15.944  23.053  0.00  0.00    +0.047 A 
ATOM     12  C   UNL     1      -4.911  14.493  23.125  0.00  0.00    +0.035 A 
ATOM     32  C   UNL     1      -4.609  13.861  24.367  0.00  0.00    +0.024 A 
ATOM     33  C   UNL     1      -4.229  14.631  25.525  0.00  0.00    +0.007 A 
ATOM     34  C   UNL     1      -4.145  16.062  25.459  0.00  0.00    -0.029 A 
ATOM     35  C   UNL     1      -3.726  16.835  26.731  0.00  0.00    +0.045 C 
ENDROOT
BRANCH  10   9
ATOM      4  C   UNL     1      -2.205  20.755  22.902  0.00  0.00    +0.077 A 
ATOM      5  C   UNL     1      -1.039  20.037  22.473  0.00  0.00    +0.048 A 
ATOM      6  C   UNL     1      -1.057  18.631  22.605  0.00  0.00    +0.116 A 
ATOM      7  N   UNL     1      -2.164  17.999  23.129  0.00  0.00    -0.223 NA
ATOM      8  C   UNL     1      -3.271  18.721  23.535  0.00  0.00    +0.220 A 
ATOM      9  N   UNL     1      -4.399  18.105  24.056  0.00  0.00    -0.283 N 
ATOM     36  H   UNL     1      -5.193  18.674  24.351  0.00  0.00    +0.155 HD
ATOM     37  N   UNL     1      -3.278  20.065  23.420  0.00  0.00    -0.214 NA
BRANCH   4   3
ATOM      1  C   UNL     1      -3.344  24.350  21.866  0.00  0.00    +0.020 A 
ATOM      2  C   UNL     1      -3.252  22.909  21.902  0.00  0.00    +0.013 A 
ATOM      3  C   UNL     1      -2.339  22.244  22.823  0.00  0.00    +0.019 A 
ATOM     38  C   UNL     1      -1.527  23.072  23.701  0.00  0.00    +0.120 A 
ATOM     39  N   UNL     1      -1.635  24.458  23.643  0.00  0.00    -0.263 NA
ATOM     40  C   UNL     1      -2.509  25.110  22.760  0.00  0.00    +0.111 A 
ENDBRANCH   4   3
ENDBRANCH  10   9
BRANCH  12  13
ATOM     13  N   UNL     1      -5.275  13.656  22.009  0.00  0.00    -0.281 N 
ATOM     14  C   UNL     1      -4.468  13.226  20.969  0.00  0.00    +0.248 C 
ATOM     30  O   UNL     1      -3.356  13.672  20.726  0.00  0.00    -0.270 OA
ATOM     31  H   UNL     1      -6.246  13.344  21.982  0.00  0.00    +0.155 HD
BRANCH  14  15
ATOM     15  C   UNL     1      -4.973  12.154  20.058  0.00  0.00    +0.037 A 
ATOM     16  C   UNL     1      -4.134  11.605  18.990  0.00  0.00    +0.013 A 
ATOM     17  C   UNL     1      -4.652  10.584  18.115  0.00  0.00    +0.005 A 
ATOM     18  C   UNL     1      -6.019  10.103  18.306  0.00  0.00    -0.033 A 
ATOM     28  C   UNL     1      -6.828  10.661  19.377  0.00  0.00    +0.005 A 
ATOM     29  C   UNL     1      -6.323  11.663  20.236  0.00  0.00    +0.013 A 
BRANCH  18  19
ATOM     19  C   UNL     1      -6.661   9.031  17.406  0.00  0.00    +0.119 C 
BRANCH  19  20
ATOM     20  N   UNL     1      -6.516   9.201  15.930  0.00  0.00    -0.302 NA
ATOM     21  C   UNL     1      -7.713   9.930  15.314  0.00  0.00    +0.066 C 
ATOM     22  C   UNL     1      -7.534  10.119  13.773  0.00  0.00    -0.064 C 
ATOM     23  N   UNL     1      -7.335   8.753  13.114  0.00  0.00    +0.379 N 
ATOM     24  C   UNL     1      -7.224   8.922  11.658  0.00  0.00    -0.096 C 
ATOM     25  H   UNL     1      -8.248   8.145  13.316  0.00  0.00    -0.082 HD
ATOM     26  C   UNL     1      -6.148   8.019  13.722  0.00  0.00    -0.064 C 
ATOM     27  C   UNL     1      -6.323   7.863  15.258  0.00  0.00    +0.066 C 
ENDBRANCH  19  20
ENDBRANCH  18  19
ENDBRANCH  14  15
ENDBRANCH  12  13
TORSDOF 6
ENDMDL
MODEL 2
REMARK VINA RESULT:      -9.0      2.758      4.998
REMARK  Name = C:\Users\Docking\Desktop\test protocol\1iep_ligandH.pdb
REMARK  8 active torsions:
REMARK  status: ('A' for Active; 'I' for Inactive)
REMARK    1  A    between atoms: _5  and  _11
REMARK    2  A    between atoms: _19  and  _21
REMARK    3  A    between atoms: _22  and  _66
REMARK    4  A    between atoms: _27  and  _30
REMARK    5  A    between atoms: _32  and  _33
REMARK    6  A    between atoms: _38  and  _43
REMARK    7  A    between atoms: _43  and  _46
REMARK    8  A    between atoms: _53  and  _55
REMARK                            x       y       z     vdW  Elec       q    Type
REMARK                         _______ _______ _______ _____ _____    ______ ____
ROOT
ATOM     10  C   UNL     1      -5.299  12.983  21.383  0.00  0.00    +0.038 A 
ATOM     11  C   UNL     1      -5.523  12.629  20.028  0.00  0.00    +0.047 A 
ATOM     12  C   UNL     1      -6.152  11.366  19.674  0.00  0.00    +0.035 A 
ATOM     32  C   UNL     1      -6.543  10.487  20.727  0.00  0.00    +0.024 A 
ATOM     33  C   UNL     1      -6.322  10.831  22.110  0.00  0.00    +0.007 A 
ATOM     34  C   UNL     1      -5.699  12.074  22.464  0.00  0.00    -0.029 A 
ATOM     35  C   UNL     1      -5.481  12.387  23.963  0.00  0.00    +0.045 C 
ENDROOT
BRANCH  10   9
ATOM      4  C   UNL     1      -1.937  16.319  20.604  0.00  0.00    +0.077 A 
ATOM      5  C   UNL     1      -1.324  15.543  19.565  0.00  0.00    +0.048 A 
ATOM      6  C   UNL     1      -1.900  14.288  19.267  0.00  0.00    +0.116 A 
ATOM      7  N   UNL     1      -3.007  13.851  19.961  0.00  0.00    -0.223 NA
ATOM      8  C   UNL     1      -3.573  14.624  20.959  0.00  0.00    +0.220 A 
ATOM      9  N   UNL     1      -4.691  14.208  21.665  0.00  0.00    -0.283 N 
ATOM     36  H   UNL     1      -5.074  14.803  22.399  0.00  0.00    +0.155 HD
ATOM     37  N   UNL     1      -3.041  15.825  21.264  0.00  0.00    -0.214 NA
BRANCH   4   3
ATOM      1  C   UNL     1      -0.437  19.931  20.567  0.00  0.00    +0.020 A 
ATOM      2  C   UNL     1      -0.896  18.643  20.101  0.00  0.00    +0.013 A 
ATOM      3  C   UNL     1      -1.447  17.667  21.033  0.00  0.00    +0.019 A 
ATOM     38  C   UNL     1      -1.519  18.029  22.441  0.00  0.00    +0.120 A 
ATOM     39  N   UNL     1      -1.068  19.276  22.860  0.00  0.00    -0.263 NA
ATOM     40  C   UNL     1      -0.535  20.223  21.973  0.00  0.00    +0.111 A 
ENDBRANCH   4   3
ENDBRANCH  10   9
BRANCH  12  13
ATOM     13  N   UNL     1      -6.398  10.949  18.316  0.00  0.00    -0.281 N 
ATOM     14  C   UNL     1      -5.563  10.220  17.484  0.00  0.00    +0.248 C 
ATOM     30  O   UNL     1      -4.383   9.999  17.712  0.00  0.00    -0.270 OA
ATOM     31  H   UNL     1      -7.297  11.224  17.920  0.00  0.00    +0.155 HD
BRANCH  14  15
ATOM     15  C   UNL     1      -6.115   9.671  16.209  0.00  0.00    +0.037 A 
ATOM     16  C   UNL     1      -5.482   8.536  15.533  0.00  0.00    +0.013 A 
ATOM     17  C   UNL     1      -6.025   8.037  14.294  0.00  0.00    +0.005 A 
ATOM     18  C   UNL     1      -7.210   8.673  13.724  0.00  0.00    -0.033 A 
ATOM     28  C   UNL     1      -7.822   9.794  14.418  0.00  0.00    +0.005 A 
ATOM     29  C   UNL     1      -7.292  10.287  15.632  0.00  0.00    +0.013 A 
BRANCH  18  19
ATOM     19  C   UNL     1      -7.845   8.220  12.396  0.00  0.00    +0.119 C 
BRANCH  19  20
ATOM     20  N   UNL     1      -7.911   9.224  11.292  0.00  0.00    -0.302 NA
ATOM     21  C   UNL     1      -6.812  10.283  11.413  0.00  0.00    +0.066 C 
ATOM     22  C   UNL     1      -6.881  11.312  10.238  0.00  0.00    -0.064 C 
ATOM     23  N   UNL     1      -8.264  11.966  10.217  0.00  0.00    +0.379 N 
ATOM     24  C   UNL     1      -8.313  12.975   9.150  0.00  0.00    -0.096 C 
ATOM     25  H   UNL     1      -8.403  12.494  11.189  0.00  0.00    -0.082 HD
ATOM     26  C   UNL     1      -9.363  10.919  10.100  0.00  0.00    -0.064 C 
ATOM     27  C   UNL     1      -9.267   9.885  11.256  0.00  0.00    +0.066 C 
ENDBRANCH  19  20
ENDBRANCH  18  19
ENDBRANCH  14  15
ENDBRANCH  12  13
TORSDOF 6
ENDMDL
MODEL 3
REMARK VINA RESULT:      -8.8      2.561      4.349
REMARK  Name = C:\Users\Docking\Desktop\test protocol\1iep_ligandH.pdb
REMARK  8 active torsions:
REMARK  status: ('A' for Active; 'I' for Inactive)
REMARK    1  A    between atoms: _5  and  _11
REMARK    2  A    between atoms: _19  and  _21
REMARK    3  A    between atoms: _22  and  _66
REMARK    4  A    between atoms: _27  and  _30
REMARK    5  A    between atoms: _32  and  _33
REMARK    6  A    between atoms: _38  and  _43
REMARK    7  A    between atoms: _43  and  _46
REMARK    8  A    between atoms: _53  and  _55
REMARK                            x       y       z     vdW  Elec       q    Type
REMARK                         _______ _______ _______ _____ _____    ______ ____
ROOT
ATOM     10  C   UNL     1      -1.624  18.884  21.990  0.00  0.00    +0.038 A 
ATOM     11  C   UNL     1      -2.244  17.639  21.713  0.00  0.00    +0.047 A 
ATOM     12  C   UNL     1      -1.770  16.785  20.635  0.00  0.00    +0.035 A 
ATOM     32  C   UNL     1      -0.659  17.230  19.860  0.00  0.00    +0.024 A 
ATOM     33  C   UNL     1      -0.018  18.493  20.127  0.00  0.00    +0.007 A 
ATOM     34  C   UNL     1      -0.483  19.341  21.187  0.00  0.00    -0.029 A 
ATOM     35  C   UNL     1       0.239  20.687  21.424  0.00  0.00    +0.045 C 
ENDROOT
BRANCH  10   9
ATOM      4  C   UNL     1      -3.256  19.405  26.474  0.00  0.00    +0.077 A 
ATOM      5  C   UNL     1      -3.135  18.001  26.744  0.00  0.00    +0.048 A 
ATOM      6  C   UNL     1      -2.655  17.178  25.700  0.00  0.00    +0.116 A 
ATOM      7  N   UNL     1      -2.324  17.729  24.481  0.00  0.00    -0.223 NA
ATOM      8  C   UNL     1      -2.455  19.087  24.253  0.00  0.00    +0.220 A 
ATOM      9  N   UNL     1      -2.120  19.663  23.037  0.00  0.00    -0.283 N 
ATOM     36  H   UNL     1      -2.238  20.668  22.906  0.00  0.00    +0.155 HD
ATOM     37  N   UNL     1      -2.912  19.893  25.233  0.00  0.00    -0.214 NA
BRANCH   4   3
ATOM      1  C   UNL     1      -5.102  21.061  29.498  0.00  0.00    +0.020 A 
ATOM      2  C   UNL     1      -4.661  20.059  28.555  0.00  0.00    +0.013 A 
ATOM      3  C   UNL     1      -3.744  20.403  27.476  0.00  0.00    +0.019 A 
ATOM     38  C   UNL     1      -3.288  21.782  27.378  0.00  0.00    +0.120 A 
ATOM     39  N   UNL     1      -3.731  22.726  28.299  0.00  0.00    -0.263 NA
ATOM     40  C   UNL     1      -4.615  22.406  29.341  0.00  0.00    +0.111 A 
ENDBRANCH   4   3
ENDBRANCH  10   9
BRANCH  12  13
ATOM     13  N   UNL     1      -2.365  15.515  20.302  0.00  0.00    -0.281 N 
ATOM     14  C   UNL     1      -3.042  14.645  21.141  0.00  0.00    +0.248 C 
ATOM     30  O   UNL     1      -3.054  14.730  22.360  0.00  0.00    -0.270 OA
ATOM     31  H   UNL     1      -2.275  15.220  19.329  0.00  0.00    +0.155 HD
BRANCH  14  15
ATOM     15  C   UNL     1      -3.805  13.509  20.540  0.00  0.00    +0.037 A 
ATOM     16  C   UNL     1      -5.129  13.134  21.041  0.00  0.00    +0.013 A 
ATOM     17  C   UNL     1      -5.836  12.023  20.455  0.00  0.00    +0.005 A 
ATOM     18  C   UNL     1      -5.220  11.280  19.359  0.00  0.00    -0.033 A 
ATOM     28  C   UNL     1      -3.907  11.677  18.878  0.00  0.00    +0.005 A 
ATOM     29  C   UNL     1      -3.210  12.764  19.451  0.00  0.00    +0.013 A 
BRANCH  18  19
ATOM     19  C   UNL     1      -5.892  10.067  18.688  0.00  0.00    +0.119 C 
BRANCH  19  20
ATOM     20  N   UNL     1      -6.693  10.326  17.454  0.00  0.00    -0.302 NA
ATOM     21  C   UNL     1      -8.081   9.684  17.525  0.00  0.00    +0.066 C 
ATOM     22  C   UNL     1      -8.913   9.983  16.236  0.00  0.00    -0.064 C 
ATOM     23  N   UNL     1      -8.147   9.483  15.010  0.00  0.00    +0.379 N 
ATOM     24  C   UNL     1      -8.953   9.711  13.801  0.00  0.00    -0.096 C 
ATOM     25  H   UNL     1      -8.010   8.382  15.123  0.00  0.00    -0.082 HD
ATOM     26  C   UNL     1      -6.764  10.114  14.933  0.00  0.00    -0.064 C 
ATOM     27  C   UNL     1      -5.956   9.836  16.231  0.00  0.00    +0.066 C 
ENDBRANCH  19  20
ENDBRANCH  18  19
ENDBRANCH  14  15
ENDBRANCH  12  13
TORSDOF 6
ENDMDL
MODEL 4
REMARK VINA RESULT:      -8.8      2.578      4.678
REMARK  Name = C:\Users\Docking\Desktop\test protocol\1iep_ligandH.pdb
REMARK  8 active torsions:
REMARK  status: ('A' for Active; 'I' for Inactive)
REMARK    1  A    between atoms: _5  and  _11
REMARK    2  A    between atoms: _19  and  _21
REMARK    3  A    between atoms: _22  and  _66
REMARK    4  A    between atoms: _27  and  _30
REMARK    5  A    between atoms: _32  and  _33
REMARK    6  A    between atoms: _38  and  _43
REMARK    7  A    between atoms: _43  and  _46
REMARK    8  A    between atoms: _53  and  _55
REMARK                            x       y       z     vdW  Elec       q    Type
REMARK                         _______ _______ _______ _____ _____    ______ ____
ROOT
ATOM     10  C   UNL     1      -1.302  18.711  22.765  0.00  0.00    +0.038 A 
ATOM     11  C   UNL     1      -1.768  17.403  22.479  0.00  0.00    +0.047 A 
ATOM     12  C   UNL     1      -1.722  16.866  21.127  0.00  0.00    +0.035 A 
ATOM     32  C   UNL     1      -1.193  17.690  20.091  0.00  0.00    +0.024 A 
ATOM     33  C   UNL     1      -0.716  19.023  20.364  0.00  0.00    +0.007 A 
ATOM     34  C   UNL     1      -0.761  19.558  21.695  0.00  0.00    -0.029 A 
ATOM     35  C   UNL     1      -0.242  20.996  21.929  0.00  0.00    +0.045 C 
ENDROOT
BRANCH  10   9
ATOM      4  C   UNL     1      -3.512  19.100  27.008  0.00  0.00    +0.077 A 
ATOM      5  C   UNL     1      -4.640  18.336  26.557  0.00  0.00    +0.048 A 
ATOM      6  C   UNL     1      -4.615  17.868  25.224  0.00  0.00    +0.116 A 
ATOM      7  N   UNL     1      -3.538  18.148  24.412  0.00  0.00    -0.223 NA
ATOM      8  C   UNL     1      -2.467  18.889  24.878  0.00  0.00    +0.220 A 
ATOM      9  N   UNL     1      -1.370  19.176  24.081  0.00  0.00    -0.283 N 
ATOM     36  H   UNL     1      -0.603  19.732  24.459  0.00  0.00    +0.155 HD
ATOM     37  N   UNL     1      -2.468  19.349  26.146  0.00  0.00    -0.214 NA
BRANCH   4   3
ATOM      1  C   UNL     1      -4.327  20.243  30.659  0.00  0.00    +0.020 A 
ATOM      2  C   UNL     1      -4.499  19.690  29.335  0.00  0.00    +0.013 A 
ATOM      3  C   UNL     1      -3.389  19.661  28.390  0.00  0.00    +0.019 A 
ATOM     38  C   UNL     1      -2.109  20.203  28.820  0.00  0.00    +0.120 A 
ATOM     39  N   UNL     1      -1.974  20.731  30.101  0.00  0.00    -0.263 NA
ATOM     40  C   UNL     1      -3.035  20.765  31.018  0.00  0.00    +0.111 A 
ENDBRANCH   4   3
ENDBRANCH  10   9
BRANCH  12  13
ATOM     13  N   UNL     1      -2.188  15.548  20.775  0.00  0.00    -0.281 N 
ATOM     14  C   UNL     1      -3.301  14.881  21.260  0.00  0.00    +0.248 C 
ATOM     30  O   UNL     1      -3.949  15.234  22.233  0.00  0.00    -0.270 OA
ATOM     31  H   UNL     1      -1.630  15.046  20.085  0.00  0.00    +0.155 HD
BRANCH  14  15
ATOM     15  C   UNL     1      -3.750  13.632  20.572  0.00  0.00    +0.037 A 
ATOM     16  C   UNL     1      -2.904  12.964  19.580  0.00  0.00    +0.013 A 
ATOM     17  C   UNL     1      -3.368  11.770  18.919  0.00  0.00    +0.005 A 
ATOM     18  C   UNL     1      -4.688  11.237  19.249  0.00  0.00    -0.033 A 
ATOM     28  C   UNL     1      -5.505  11.917  20.240  0.00  0.00    +0.005 A 
ATOM     29  C   UNL     1      -5.053  13.087  20.889  0.00  0.00    +0.013 A 
BRANCH  18  19
ATOM     19  C   UNL     1      -5.273   9.980  18.577  0.00  0.00    +0.119 C 
BRANCH  19  20
ATOM     20  N   UNL     1      -6.162  10.188  17.395  0.00  0.00    -0.302 NA
ATOM     21  C   UNL     1      -7.615   9.811  17.695  0.00  0.00    +0.066 C 
ATOM     22  C   UNL     1      -8.535  10.056  16.454  0.00  0.00    -0.064 C 
ATOM     23  N   UNL     1      -8.003   9.257  15.263  0.00  0.00    +0.379 N 
ATOM     24  C   UNL     1      -8.898   9.439  14.111  0.00  0.00    -0.096 C 
ATOM     25  H   UNL     1      -8.026   8.178  15.543  0.00  0.00    -0.082 HD
ATOM     26  C   UNL     1      -6.557   9.623  14.960  0.00  0.00    -0.064 C 
ATOM     27  C   UNL     1      -5.657   9.404  16.208  0.00  0.00    +0.066 C 
ENDBRANCH  19  20
ENDBRANCH  18  19
ENDBRANCH  14  15
ENDBRANCH  12  13
TORSDOF 6
ENDMDL
MODEL 5
REMARK VINA RESULT:      -8.7      4.250     13.576
REMARK  Name = C:\Users\Docking\Desktop\test protocol\1iep_ligandH.pdb
REMARK  8 active torsions:
REMARK  status: ('A' for Active; 'I' for Inactive)
REMARK    1  A    between atoms: _5  and  _11
REMARK    2  A    between atoms: _19  and  _21
REMARK    3  A    between atoms: _22  and  _66
REMARK    4  A    between atoms: _27  and  _30
REMARK    5  A    between atoms: _32  and  _33
REMARK    6  A    between atoms: _38  and  _43
REMARK    7  A    between atoms: _43  and  _46
REMARK    8  A    between atoms: _53  and  _55
REMARK                            x       y       z     vdW  Elec       q    Type
REMARK                         _______ _______ _______ _____ _____    ______ ____
ROOT
ATOM     10  C   UNL     1      -2.266  17.038  21.031  0.00  0.00    +0.038 A 
ATOM     11  C   UNL     1      -2.906  17.489  22.214  0.00  0.00    +0.047 A 
ATOM     12  C   UNL     1      -2.366  18.598  22.985  0.00  0.00    +0.035 A 
ATOM     32  C   UNL     1      -1.174  19.227  22.521  0.00  0.00    +0.024 A 
ATOM     33  C   UNL     1      -0.510  18.780  21.321  0.00  0.00    +0.007 A 
ATOM     34  C   UNL     1      -1.036  17.685  20.558  0.00  0.00    -0.029 A 
ATOM     35  C   UNL     1      -0.279  17.244  19.284  0.00  0.00    +0.045 C 
ENDROOT
BRANCH  10   9
ATOM      4  C   UNL     1      -4.454  12.769  20.863  0.00  0.00    +0.077 A 
ATOM      5  C   UNL     1      -4.454  12.646  22.292  0.00  0.00    +0.048 A 
ATOM      6  C   UNL     1      -3.875  13.700  23.034  0.00  0.00    +0.116 A 
ATOM      7  N   UNL     1      -3.339  14.791  22.384  0.00  0.00    -0.223 NA
ATOM      8  C   UNL     1      -3.354  14.877  21.004  0.00  0.00    +0.220 A 
ATOM      9  N   UNL     1      -2.828  15.968  20.330  0.00  0.00    -0.283 N 
ATOM     36  H   UNL     1      -2.851  15.991  19.311  0.00  0.00    +0.155 HD
ATOM     37  N   UNL     1      -3.900  13.883  20.273  0.00  0.00    -0.214 NA
BRANCH   4   3
ATOM      1  C   UNL     1      -4.921  10.231  17.924  0.00  0.00    +0.020 A 
ATOM      2  C   UNL     1      -4.318  11.225  18.781  0.00  0.00    +0.013 A 
ATOM      3  C   UNL     1      -5.033  11.740  19.942  0.00  0.00    +0.019 A 
ATOM     38  C   UNL     1      -6.367  11.224  20.210  0.00  0.00    +0.120 A 
ATOM     39  N   UNL     1      -6.923  10.268  19.366  0.00  0.00    -0.263 NA
ATOM     40  C   UNL     1      -6.245   9.766  18.245  0.00  0.00    +0.111 A 
ENDBRANCH   4   3
ENDBRANCH  10   9
BRANCH  12  13
ATOM     13  N   UNL     1      -2.967  19.095  24.198  0.00  0.00    -0.281 N 
ATOM     14  C   UNL     1      -2.912  18.539  25.466  0.00  0.00    +0.248 C 
ATOM     30  O   UNL     1      -2.512  17.410  25.708  0.00  0.00    -0.270 OA
ATOM     31  H   UNL     1      -3.498  19.962  24.111  0.00  0.00    +0.155 HD
BRANCH  14  15
ATOM     15  C   UNL     1      -3.381  19.350  26.630  0.00  0.00    +0.037 A 
ATOM     16  C   UNL     1      -3.156  20.796  26.690  0.00  0.00    +0.013 A 
ATOM     17  C   UNL     1      -3.604  21.551  27.833  0.00  0.00    +0.005 A 
ATOM     18  C   UNL     1      -4.284  20.860  28.926  0.00  0.00    -0.033 A 
ATOM     28  C   UNL     1      -4.500  19.425  28.838  0.00  0.00    +0.005 A 
ATOM     29  C   UNL     1      -4.061  18.682  27.720  0.00  0.00    +0.013 A 
BRANCH  18  19
ATOM     19  C   UNL     1      -4.778  21.583  30.194  0.00  0.00    +0.119 C 
BRANCH  19  20
ATOM     20  N   UNL     1      -3.739  22.147  31.107  0.00  0.00    -0.302 NA
ATOM     21  C   UNL     1      -3.280  23.539  30.664  0.00  0.00    +0.066 C 
ATOM     22  C   UNL     1      -2.211  24.124  31.644  0.00  0.00    -0.064 C 
ATOM     23  N   UNL     1      -1.023  23.164  31.729  0.00  0.00    +0.379 N 
ATOM     24  C   UNL     1       0.010  23.738  32.604  0.00  0.00    -0.096 C 
ATOM     25  H   UNL     1      -0.588  23.072  30.707  0.00  0.00    -0.082 HD
ATOM     26  C   UNL     1      -1.471  21.776  32.166  0.00  0.00    -0.064 C 
ATOM     27  C   UNL     1      -2.555  21.217  31.203  0.00  0.00    +0.066 C 
ENDBRANCH  19  20
ENDBRANCH  18  19
ENDBRANCH  14  15
ENDBRANCH  12  13
TORSDOF 6
ENDMDL
