MODEL 1
REMARK VINA RESULT:      -7.9      0.000      0.000
REMARK  Name = C:\Users\Docking\Desktop\test protocol\1iep_ligandH.pdb
REMARK  8 active torsions:
REMARK  status: ('A' for Active; 'I' for Inactive)
REMARK    1  A    between atoms: _5  and  _11
REMARK    2  A    between atoms: _19  and  _21
REMARK    3  A    between atoms: _22  and  _66
REMARK    4  A    between atoms: _27  and  _30
REMARK    5  A    between atoms: _32  and  _33
REMARK    6  A    between atoms: _38  and  _43
REMARK    7  A    between atoms: _43  and  _46
REMARK    8  A    between atoms: _53  and  _55
REMARK                            x       y       z     vdW  Elec       q    Type
REMARK                         _______ _______ _______ _____ _____    ______ ____
ROOT
ATOM     10  C   UNL     1      20.341 -19.855   1.984  0.00  0.00    +0.038 A 
ATOM     11  C   UNL     1      19.113 -19.887   2.694  0.00  0.00    +0.047 A 
ATOM     12  C   UNL     1      18.685 -21.083   3.403  0.00  0.00    +0.035 A 
ATOM     32  C   UNL     1      19.533 -22.228   3.370  0.00  0.00    +0.024 A 
ATOM     33  C   UNL     1      20.783 -22.213   2.652  0.00  0.00    +0.007 A 
ATOM     34  C   UNL     1      21.210 -21.037   1.949  0.00  0.00    -0.029 A 
ATOM     35  C   UNL     1      22.557 -21.081   1.191  0.00  0.00    +0.045 C 
ENDROOT
BRANCH  10   9
ATOM      4  C   UNL     1      22.747 -15.710   1.726  0.00  0.00    +0.077 A 
ATOM      5  C   UNL     1      23.310 -15.887   3.034  0.00  0.00    +0.048 A 
ATOM      6  C   UNL     1      22.949 -17.055   3.743  0.00  0.00    +0.116 A 
ATOM      7  N   UNL     1      22.089 -17.971   3.176  0.00  0.00    -0.223 NA
ATOM      8  C   UNL     1      21.563 -17.769   1.913  0.00  0.00    +0.220 A 
ATOM      9  N   UNL     1      20.703 -18.680   1.321  0.00  0.00    -0.283 N 
ATOM     36  H   UNL     1      20.331 -18.491   0.390  0.00  0.00    +0.155 HD
ATOM     37  N   UNL     1      21.891 -16.661   1.217  0.00  0.00    -0.214 NA
BRANCH   4   3
ATOM      1  C   UNL     1      22.441 -12.915  -0.993  0.00  0.00    +0.020 A 
ATOM      2  C   UNL     1      22.115 -14.061  -0.176  0.00  0.00    +0.013 A 
ATOM      3  C   UNL     1      23.036 -14.530   0.852  0.00  0.00    +0.019 A 
ATOM     38  C   UNL     1      24.289 -13.811   1.029  0.00  0.00    +0.120 A 
ATOM     39  N   UNL     1      24.577 -12.711   0.226  0.00  0.00    -0.263 NA
ATOM     40  C   UNL     1      23.698 -12.252  -0.767  0.00  0.00    +0.111 A 
ENDBRANCH   4   3
ENDBRANCH  10   9
BRANCH  12  13
ATOM     13  N   UNL     1      17.445 -21.176   4.133  0.00  0.00    -0.281 N 
ATOM     14  C   UNL     1      16.179 -21.435   3.634  0.00  0.00    +0.248 C 
ATOM     30  O   UNL     1      15.887 -21.413   2.447  0.00  0.00    -0.270 OA
ATOM     31  H   UNL     1      17.509 -21.035   5.142  0.00  0.00    +0.155 HD
BRANCH  14  15
ATOM     15  C   UNL     1      15.075 -21.749   4.591  0.00  0.00    +0.037 A 
ATOM     16  C   UNL     1      14.138 -22.845   4.337  0.00  0.00    +0.013 A 
ATOM     17  C   UNL     1      13.071 -23.116   5.268  0.00  0.00    +0.005 A 
ATOM     18  C   UNL     1      12.938 -22.288   6.464  0.00  0.00    -0.033 A 
ATOM     28  C   UNL     1      13.885 -21.210   6.695  0.00  0.00    +0.005 A 
ATOM     29  C   UNL     1      14.931 -20.941   5.783  0.00  0.00    +0.013 A 
BRANCH  18  19
ATOM     19  C   UNL     1      11.818 -22.491   7.502  0.00  0.00    +0.119 C 
BRANCH  19  20
ATOM     20  N   UNL     1      10.689 -21.513   7.489  0.00  0.00    -0.302 NA
ATOM     21  C   UNL     1       9.901 -21.528   8.802  0.00  0.00    +0.066 C 
ATOM     22  C   UNL     1       8.738 -20.484   8.780  0.00  0.00    -0.064 C 
ATOM     23  N   UNL     1       7.818 -20.775   7.593  0.00  0.00    +0.379 N 
ATOM     24  C   UNL     1       6.691 -19.831   7.603  0.00  0.00    -0.096 C 
ATOM     25  H   UNL     1       7.402 -21.800   7.731  0.00  0.00    -0.082 HD
ATOM     26  C   UNL     1       8.593 -20.764   6.283  0.00  0.00    -0.064 C 
ATOM     27  C   UNL     1       9.765 -21.785   6.327  0.00  0.00    +0.066 C 
ENDBRANCH  19  20
ENDBRANCH  18  19
ENDBRANCH  14  15
ENDBRANCH  12  13
TORSDOF 6
ENDMDL
MODEL 2
REMARK VINA RESULT:      -7.5      6.539      9.631
REMARK  Name = C:\Users\Docking\Desktop\test protocol\1iep_ligandH.pdb
REMARK  8 active torsions:
REMARK  status: ('A' for Active; 'I' for Inactive)
REMARK    1  A    between atoms: _5  and  _11
REMARK    2  A    between atoms: _19  and  _21
REMARK    3  A    between atoms: _22  and  _66
REMARK    4  A    between atoms: _27  and  _30
REMARK    5  A    between atoms: _32  and  _33
REMARK    6  A    between atoms: _38  and  _43
REMARK    7  A    between atoms: _43  and  _46
REMARK    8  A    between atoms: _53  and  _55
REMARK                            x       y       z     vdW  Elec       q    Type
REMARK                         _______ _______ _______ _____ _____    ______ ____
ROOT
ATOM     10  C   UNL     1      18.058 -26.382   1.357  0.00  0.00    +0.038 A 
ATOM     11  C   UNL     1      17.165 -25.676   2.203  0.00  0.00    +0.047 A 
ATOM     12  C   UNL     1      17.650 -24.674   3.140  0.00  0.00    +0.035 A 
ATOM     32  C   UNL     1      19.051 -24.415   3.188  0.00  0.00    +0.024 A 
ATOM     33  C   UNL     1      19.972 -25.125   2.336  0.00  0.00    +0.007 A 
ATOM     34  C   UNL     1      19.500 -26.116   1.412  0.00  0.00    -0.029 A 
ATOM     35  C   UNL     1      20.535 -26.851   0.527  0.00  0.00    +0.045 C 
ENDROOT
BRANCH  10   9
ATOM      4  C   UNL     1      16.287 -27.675  -2.912  0.00  0.00    +0.077 A 
ATOM      5  C   UNL     1      16.381 -26.337  -3.422  0.00  0.00    +0.048 A 
ATOM      6  C   UNL     1      16.883 -25.345  -2.552  0.00  0.00    +0.116 A 
ATOM      7  N   UNL     1      17.261 -25.676  -1.269  0.00  0.00    -0.223 NA
ATOM      8  C   UNL     1      17.156 -26.976  -0.808  0.00  0.00    +0.220 A 
ATOM      9  N   UNL     1      17.538 -27.333   0.476  0.00  0.00    -0.283 N 
ATOM     36  H   UNL     1      17.438 -28.301   0.781  0.00  0.00    +0.155 HD
ATOM     37  N   UNL     1      16.678 -27.942  -1.619  0.00  0.00    -0.214 NA
BRANCH   4   3
ATOM      1  C   UNL     1      13.954 -30.407  -4.459  0.00  0.00    +0.020 A 
ATOM      2  C   UNL     1      14.393 -29.282  -3.666  0.00  0.00    +0.013 A 
ATOM      3  C   UNL     1      15.779 -28.834  -3.712  0.00  0.00    +0.019 A 
ATOM     38  C   UNL     1      16.703 -29.552  -4.578  0.00  0.00    +0.120 A 
ATOM     39  N   UNL     1      16.251 -30.633  -5.329  0.00  0.00    -0.263 NA
ATOM     40  C   UNL     1      14.920 -31.074  -5.291  0.00  0.00    +0.111 A 
ENDBRANCH   4   3
ENDBRANCH  10   9
BRANCH  12  13
ATOM     13  N   UNL     1      16.792 -23.931   4.029  0.00  0.00    -0.281 N 
ATOM     14  C   UNL     1      15.896 -22.925   3.705  0.00  0.00    +0.248 C 
ATOM     30  O   UNL     1      15.851 -22.362   2.621  0.00  0.00    -0.270 OA
ATOM     31  H   UNL     1      16.852 -24.176   5.017  0.00  0.00    +0.155 HD
BRANCH  14  15
ATOM     15  C   UNL     1      14.917 -22.469   4.738  0.00  0.00    +0.037 A 
ATOM     16  C   UNL     1      15.186 -21.297   5.575  0.00  0.00    +0.013 A 
ATOM     17  C   UNL     1      14.233 -20.889   6.576  0.00  0.00    +0.005 A 
ATOM     18  C   UNL     1      13.000 -21.654   6.745  0.00  0.00    -0.033 A 
ATOM     28  C   UNL     1      12.755 -22.809   5.898  0.00  0.00    +0.005 A 
ATOM     29  C   UNL     1      13.688 -23.213   4.916  0.00  0.00    +0.013 A 
BRANCH  18  19
ATOM     19  C   UNL     1      11.936 -21.303   7.802  0.00  0.00    +0.119 C 
BRANCH  19  20
ATOM     20  N   UNL     1      10.507 -21.324   7.368  0.00  0.00    -0.302 NA
ATOM     21  C   UNL     1       9.853 -19.944   7.478  0.00  0.00    +0.066 C 
ATOM     22  C   UNL     1       8.365 -19.980   6.999  0.00  0.00    -0.064 C 
ATOM     23  N   UNL     1       7.592 -21.013   7.821  0.00  0.00    +0.379 N 
ATOM     24  C   UNL     1       6.180 -21.008   7.412  0.00  0.00    -0.096 C 
ATOM     25  H   UNL     1       7.637 -20.697   8.889  0.00  0.00    -0.082 HD
ATOM     26  C   UNL     1       8.238 -22.388   7.719  0.00  0.00    -0.064 C 
ATOM     27  C   UNL     1       9.724 -22.335   8.170  0.00  0.00    +0.066 C 
ENDBRANCH  19  20
ENDBRANCH  18  19
ENDBRANCH  14  15
ENDBRANCH  12  13
TORSDOF 6
ENDMDL
MODEL 3
REMARK VINA RESULT:      -7.5      8.161     13.757
REMARK  Name = C:\Users\Docking\Desktop\test protocol\1iep_ligandH.pdb
REMARK  8 active torsions:
REMARK  status: ('A' for Active; 'I' for Inactive)
REMARK    1  A    between atoms: _5  and  _11
REMARK    2  A    between atoms: _19  and  _21
REMARK    3  A    between atoms: _22  and  _66
REMARK    4  A    between atoms: _27  and  _30
REMARK    5  A    between atoms: _32  and  _33
REMARK    6  A    between atoms: _38  and  _43
REMARK    7  A    between atoms: _43  and  _46
REMARK    8  A    between atoms: _53  and  _55
REMARK                            x       y       z     vdW  Elec       q    Type
REMARK                         _______ _______ _______ _____ _____    ______ ____
ROOT
ATOM     10  C   UNL     1      13.236 -25.140  -3.367  0.00  0.00    +0.038 A 
ATOM     11  C   UNL     1      13.731 -24.659  -2.128  0.00  0.00    +0.047 A 
ATOM     12  C   UNL     1      14.448 -23.396  -2.044  0.00  0.00    +0.035 A 
ATOM     32  C   UNL     1      14.640 -22.647  -3.241  0.00  0.00    +0.024 A 
ATOM     33  C   UNL     1      14.144 -23.121  -4.509  0.00  0.00    +0.007 A 
ATOM     34  C   UNL     1      13.439 -24.368  -4.599  0.00  0.00    -0.029 A 
ATOM     35  C   UNL     1      12.935 -24.830  -5.986  0.00  0.00    +0.045 C 
ENDROOT
BRANCH  10   9
ATOM      4  C   UNL     1      13.098 -29.900  -3.964  0.00  0.00    +0.077 A 
ATOM      5  C   UNL     1      14.495 -29.960  -4.282  0.00  0.00    +0.048 A 
ATOM      6  C   UNL     1      15.212 -28.743  -4.289  0.00  0.00    +0.116 A 
ATOM      7  N   UNL     1      14.569 -27.560  -3.997  0.00  0.00    -0.223 NA
ATOM      8  C   UNL     1      13.220 -27.537  -3.695  0.00  0.00    +0.220 A 
ATOM      9  N   UNL     1      12.555 -26.359  -3.390  0.00  0.00    -0.283 N 
ATOM     36  H   UNL     1      11.557 -26.383  -3.181  0.00  0.00    +0.155 HD
ATOM     37  N   UNL     1      12.513 -28.686  -3.684  0.00  0.00    -0.214 NA
BRANCH   4   3
ATOM      1  C   UNL     1       9.936 -32.202  -3.885  0.00  0.00    +0.020 A 
ATOM      2  C   UNL     1      10.752 -31.011  -3.936  0.00  0.00    +0.013 A 
ATOM      3  C   UNL     1      12.206 -31.102  -3.913  0.00  0.00    +0.019 A 
ATOM     38  C   UNL     1      12.809 -32.424  -3.838  0.00  0.00    +0.120 A 
ATOM     39  N   UNL     1      11.998 -33.554  -3.789  0.00  0.00    -0.263 NA
ATOM     40  C   UNL     1      10.597 -33.478  -3.809  0.00  0.00    +0.111 A 
ENDBRANCH   4   3
ENDBRANCH  10   9
BRANCH  12  13
ATOM     13  N   UNL     1      14.981 -22.861  -0.816  0.00  0.00    -0.281 N 
ATOM     14  C   UNL     1      16.128 -23.250  -0.144  0.00  0.00    +0.248 C 
ATOM     30  O   UNL     1      16.760 -24.268  -0.387  0.00  0.00    -0.270 OA
ATOM     31  H   UNL     1      14.448 -22.103  -0.389  0.00  0.00    +0.155 HD
BRANCH  14  15
ATOM     15  C   UNL     1      16.640 -22.393   0.968  0.00  0.00    +0.037 A 
ATOM     16  C   UNL     1      17.056 -22.974   2.247  0.00  0.00    +0.013 A 
ATOM     17  C   UNL     1      17.530 -22.123   3.309  0.00  0.00    +0.005 A 
ATOM     18  C   UNL     1      17.593 -20.679   3.095  0.00  0.00    -0.033 A 
ATOM     28  C   UNL     1      17.179 -20.129   1.815  0.00  0.00    +0.005 A 
ATOM     29  C   UNL     1      16.713 -20.960   0.772  0.00  0.00    +0.013 A 
BRANCH  18  19
ATOM     19  C   UNL     1      18.065 -19.693   4.179  0.00  0.00    +0.119 C 
BRANCH  19  20
ATOM     20  N   UNL     1      19.529 -19.403   4.249  0.00  0.00    -0.302 NA
ATOM     21  C   UNL     1      19.887 -18.541   5.463  0.00  0.00    +0.066 C 
ATOM     22  C   UNL     1      21.424 -18.266   5.533  0.00  0.00    -0.064 C 
ATOM     23  N   UNL     1      21.877 -17.591   4.237  0.00  0.00    +0.379 N 
ATOM     24  C   UNL     1      23.312 -17.279   4.323  0.00  0.00    -0.096 C 
ATOM     25  H   UNL     1      21.326 -16.626   4.148  0.00  0.00    -0.082 HD
ATOM     26  C   UNL     1      21.523 -18.439   3.024  0.00  0.00    -0.064 C 
ATOM     27  C   UNL     1      19.997 -18.732   2.981  0.00  0.00    +0.066 C 
ENDBRANCH  19  20
ENDBRANCH  18  19
ENDBRANCH  14  15
ENDBRANCH  12  13
TORSDOF 6
ENDMDL
MODEL 4
REMARK VINA RESULT:      -7.5     20.871     24.884
REMARK  Name = C:\Users\Docking\Desktop\test protocol\1iep_ligandH.pdb
REMARK  8 active torsions:
REMARK  status: ('A' for Active; 'I' for Inactive)
REMARK    1  A    between atoms: _5  and  _11
REMARK    2  A    between atoms: _19  and  _21
REMARK    3  A    between atoms: _22  and  _66
REMARK    4  A    between atoms: _27  and  _30
REMARK    5  A    between atoms: _32  and  _33
REMARK    6  A    between atoms: _38  and  _43
REMARK    7  A    between atoms: _43  and  _46
REMARK    8  A    between atoms: _53  and  _55
REMARK                            x       y       z     vdW  Elec       q    Type
REMARK                         _______ _______ _______ _____ _____    ______ ____
ROOT
ATOM     10  C   UNL     1      16.929 -40.728   0.610  0.00  0.00    +0.038 A 
ATOM     11  C   UNL     1      17.229 -41.436   1.801  0.00  0.00    +0.047 A 
ATOM     12  C   UNL     1      18.161 -42.554   1.798  0.00  0.00    +0.035 A 
ATOM     32  C   UNL     1      18.770 -42.921   0.563  0.00  0.00    +0.024 A 
ATOM     33  C   UNL     1      18.476 -42.212  -0.657  0.00  0.00    +0.007 A 
ATOM     34  C   UNL     1      17.556 -41.111  -0.661  0.00  0.00    -0.029 A 
ATOM     35  C   UNL     1      17.273 -40.392  -2.000  0.00  0.00    +0.045 C 
ENDROOT
BRANCH  10   9
ATOM      4  C   UNL     1      12.512 -38.893   0.208  0.00  0.00    +0.077 A 
ATOM      5  C   UNL     1      11.959 -40.157  -0.183  0.00  0.00    +0.048 A 
ATOM      6  C   UNL     1      12.845 -41.253  -0.275  0.00  0.00    +0.116 A 
ATOM      7  N   UNL     1      14.184 -41.086   0.005  0.00  0.00    -0.223 NA
ATOM      8  C   UNL     1      14.686 -39.852   0.377  0.00  0.00    +0.220 A 
ATOM      9  N   UNL     1      16.028 -39.663   0.671  0.00  0.00    -0.283 N 
ATOM     36  H   UNL     1      16.360 -38.735   0.935  0.00  0.00    +0.155 HD
ATOM     37  N   UNL     1      13.860 -38.789   0.471  0.00  0.00    -0.214 NA
BRANCH   4   3
ATOM      1  C   UNL     1      11.204 -35.227  -0.178  0.00  0.00    +0.020 A 
ATOM      2  C   UNL     1      12.019 -36.407  -0.354  0.00  0.00    +0.013 A 
ATOM      3  C   UNL     1      11.703 -37.642   0.353  0.00  0.00    +0.019 A 
ATOM     38  C   UNL     1      10.546 -37.649   1.237  0.00  0.00    +0.120 A 
ATOM     39  N   UNL     1       9.781 -36.497   1.387  0.00  0.00    -0.263 NA
ATOM     40  C   UNL     1      10.076 -35.302   0.713  0.00  0.00    +0.111 A 
ENDBRANCH   4   3
ENDBRANCH  10   9
BRANCH  12  13
ATOM     13  N   UNL     1      18.498 -43.315   2.975  0.00  0.00    -0.281 N 
ATOM     14  C   UNL     1      19.659 -43.250   3.728  0.00  0.00    +0.248 C 
ATOM     30  O   UNL     1      20.679 -42.675   3.377  0.00  0.00    -0.270 OA
ATOM     31  H   UNL     1      17.795 -43.984   3.291  0.00  0.00    +0.155 HD
BRANCH  14  15
ATOM     15  C   UNL     1      19.698 -43.935   5.056  0.00  0.00    +0.037 A 
ATOM     16  C   UNL     1      19.542 -43.183   6.303  0.00  0.00    +0.013 A 
ATOM     17  C   UNL     1      19.600 -43.865   7.572  0.00  0.00    +0.005 A 
ATOM     18  C   UNL     1      19.814 -45.310   7.598  0.00  0.00    -0.033 A 
ATOM     28  C   UNL     1      19.961 -46.033   6.345  0.00  0.00    +0.005 A 
ATOM     29  C   UNL     1      19.905 -45.367   5.100  0.00  0.00    +0.013 A 
BRANCH  18  19
ATOM     19  C   UNL     1      19.912 -46.118   8.906  0.00  0.00    +0.119 C 
BRANCH  19  20
ATOM     20  N   UNL     1      21.262 -46.619   9.302  0.00  0.00    -0.302 NA
ATOM     21  C   UNL     1      21.374 -46.836  10.813  0.00  0.00    +0.066 C 
ATOM     22  C   UNL     1      22.785 -47.381  11.207  0.00  0.00    -0.064 C 
ATOM     23  N   UNL     1      23.859 -46.408  10.719  0.00  0.00    +0.379 N 
ATOM     24  C   UNL     1      25.184 -46.889  11.138  0.00  0.00    -0.096 C 
ATOM     25  H   UNL     1      23.680 -45.428  11.220  0.00  0.00    -0.082 HD
ATOM     26  C   UNL     1      23.753 -46.184   9.217  0.00  0.00    -0.064 C 
ATOM     27  C   UNL     1      22.338 -45.670   8.833  0.00  0.00    +0.066 C 
ENDBRANCH  19  20
ENDBRANCH  18  19
ENDBRANCH  14  15
ENDBRANCH  12  13
TORSDOF 6
ENDMDL
MODEL 5
REMARK VINA RESULT:      -7.3     18.644     27.781
REMARK  Name = C:\Users\Docking\Desktop\test protocol\1iep_ligandH.pdb
REMARK  8 active torsions:
REMARK  status: ('A' for Active; 'I' for Inactive)
REMARK    1  A    between atoms: _5  and  _11
REMARK    2  A    between atoms: _19  and  _21
REMARK    3  A    between atoms: _22  and  _66
REMARK    4  A    between atoms: _27  and  _30
REMARK    5  A    between atoms: _32  and  _33
REMARK    6  A    between atoms: _38  and  _43
REMARK    7  A    between atoms: _43  and  _46
REMARK    8  A    between atoms: _53  and  _55
REMARK                            x       y       z     vdW  Elec       q    Type
REMARK                         _______ _______ _______ _____ _____    ______ ____
ROOT
ATOM     10  C   UNL     1      -3.014  -5.902  16.987  0.00  0.00    +0.038 A 
ATOM     11  C   UNL     1      -1.953  -5.889  16.046  0.00  0.00    +0.047 A 
ATOM     12  C   UNL     1      -0.696  -6.568  16.319  0.00  0.00    +0.035 A 
ATOM     32  C   UNL     1      -0.555  -7.253  17.561  0.00  0.00    +0.024 A 
ATOM     33  C   UNL     1      -1.623  -7.275  18.530  0.00  0.00    +0.007 A 
ATOM     34  C   UNL     1      -2.864  -6.605  18.266  0.00  0.00    -0.029 A 
ATOM     35  C   UNL     1      -3.972  -6.657  19.344  0.00  0.00    +0.045 C 
ENDROOT
BRANCH  10   9
ATOM      4  C   UNL     1      -7.385  -5.738  15.009  0.00  0.00    +0.077 A 
ATOM      5  C   UNL     1      -7.288  -7.090  14.540  0.00  0.00    +0.048 A 
ATOM      6  C   UNL     1      -6.094  -7.791  14.822  0.00  0.00    +0.116 A 
ATOM      7  N   UNL     1      -5.079  -7.175  15.523  0.00  0.00    -0.223 NA
ATOM      8  C   UNL     1      -5.204  -5.869  15.959  0.00  0.00    +0.220 A 
ATOM      9  N   UNL     1      -4.200  -5.233  16.672  0.00  0.00    -0.283 N 
ATOM     36  H   UNL     1      -4.327  -4.266  16.970  0.00  0.00    +0.155 HD
ATOM     37  N   UNL     1      -6.334  -5.178  15.701  0.00  0.00    -0.214 NA
BRANCH   4   3
ATOM      1  C   UNL     1     -10.202  -3.619  13.315  0.00  0.00    +0.020 A 
ATOM      2  C   UNL     1      -9.037  -4.459  13.469  0.00  0.00    +0.013 A 
ATOM      3  C   UNL     1      -8.584  -4.869  14.792  0.00  0.00    +0.019 A 
ATOM     38  C   UNL     1      -9.338  -4.407  15.948  0.00  0.00    +0.120 A 
ATOM     39  N   UNL     1     -10.456  -3.598  15.769  0.00  0.00    -0.263 NA
ATOM     40  C   UNL     1     -10.900  -3.196  14.500  0.00  0.00    +0.111 A 
ENDBRANCH   4   3
ENDBRANCH  10   9
BRANCH  12  13
ATOM     13  N   UNL     1       0.419  -6.582  15.406  0.00  0.00    -0.281 N 
ATOM     14  C   UNL     1       1.669  -6.010  15.578  0.00  0.00    +0.248 C 
ATOM     30  O   UNL     1       1.948  -5.212  16.461  0.00  0.00    -0.270 OA
ATOM     31  H   UNL     1       0.269  -7.073  14.524  0.00  0.00    +0.155 HD
BRANCH  14  15
ATOM     15  C   UNL     1       2.763  -6.364  14.624  0.00  0.00    +0.037 A 
ATOM     16  C   UNL     1       2.467  -6.862  13.279  0.00  0.00    +0.013 A 
ATOM     17  C   UNL     1       3.541  -7.213  12.384  0.00  0.00    +0.005 A 
ATOM     18  C   UNL     1       4.924  -7.066  12.833  0.00  0.00    -0.033 A 
ATOM     28  C   UNL     1       5.189  -6.565  14.171  0.00  0.00    +0.005 A 
ATOM     29  C   UNL     1       4.139  -6.221  15.051  0.00  0.00    +0.013 A 
BRANCH  18  19
ATOM     19  C   UNL     1       6.133  -7.436  11.953  0.00  0.00    +0.119 C 
BRANCH  19  20
ATOM     20  N   UNL     1       7.322  -8.025  12.638  0.00  0.00    -0.302 NA
ATOM     21  C   UNL     1       8.578  -7.171  12.443  0.00  0.00    +0.066 C 
ATOM     22  C   UNL     1       9.808  -7.790  13.185  0.00  0.00    -0.064 C 
ATOM     23  N   UNL     1      10.038  -9.216  12.682  0.00  0.00    +0.379 N 
ATOM     24  C   UNL     1      11.228  -9.780  13.336  0.00  0.00    -0.096 C 
ATOM     25  H   UNL     1      10.247  -9.160  11.589  0.00  0.00    -0.082 HD
ATOM     26  C   UNL     1       8.793 -10.071  12.870  0.00  0.00    -0.064 C 
ATOM     27  C   UNL     1       7.570  -9.432  12.154  0.00  0.00    +0.066 C 
ENDBRANCH  19  20
ENDBRANCH  18  19
ENDBRANCH  14  15
ENDBRANCH  12  13
TORSDOF 6
ENDMDL
