MODEL 1
REMARK VINA RESULT:      -7.6      0.000      0.000
REMARK  Name = C:\Users\Docking\Desktop\test protocol\1iep_ligandH.pdb
REMARK  8 active torsions:
REMARK  status: ('A' for Active; 'I' for Inactive)
REMARK    1  A    between atoms: _5  and  _11
REMARK    2  A    between atoms: _19  and  _21
REMARK    3  A    between atoms: _22  and  _66
REMARK    4  A    between atoms: _27  and  _30
REMARK    5  A    between atoms: _32  and  _33
REMARK    6  A    between atoms: _38  and  _43
REMARK    7  A    between atoms: _43  and  _46
REMARK    8  A    between atoms: _53  and  _55
REMARK                            x       y       z     vdW  Elec       q    Type
REMARK                         _______ _______ _______ _____ _____    ______ ____
ROOT
ATOM     10  C   UNL     1       7.446   4.283   4.466  0.00  0.00    +0.038 A 
ATOM     11  C   UNL     1       7.494   3.843   5.813  0.00  0.00    +0.047 A 
ATOM     12  C   UNL     1       8.345   4.503   6.791  0.00  0.00    +0.035 A 
ATOM     32  C   UNL     1       9.133   5.610   6.362  0.00  0.00    +0.024 A 
ATOM     33  C   UNL     1       9.098   6.070   4.996  0.00  0.00    +0.007 A 
ATOM     34  C   UNL     1       8.262   5.422   4.027  0.00  0.00    -0.029 A 
ATOM     35  C   UNL     1       8.268   5.953   2.575  0.00  0.00    +0.045 C 
ENDROOT
BRANCH  10   9
ATOM      4  C   UNL     1       6.589   0.805   1.271  0.00  0.00    +0.077 A 
ATOM      5  C   UNL     1       7.926   0.298   1.376  0.00  0.00    +0.048 A 
ATOM      6  C   UNL     1       8.806   0.964   2.258  0.00  0.00    +0.116 A 
ATOM      7  N   UNL     1       8.369   2.056   2.977  0.00  0.00    -0.223 NA
ATOM      8  C   UNL     1       7.073   2.521   2.851  0.00  0.00    +0.220 A 
ATOM      9  N   UNL     1       6.611   3.613   3.569  0.00  0.00    -0.283 N 
ATOM     36  H   UNL     1       5.650   3.929   3.443  0.00  0.00    +0.155 HD
ATOM     37  N   UNL     1       6.215   1.903   2.014  0.00  0.00    -0.214 NA
BRANCH   4   3
ATOM      1  C   UNL     1       4.425  -1.749  -0.753  0.00  0.00    +0.020 A 
ATOM      2  C   UNL     1       5.456  -1.222   0.111  0.00  0.00    +0.013 A 
ATOM      3  C   UNL     1       5.542   0.207   0.383  0.00  0.00    +0.019 A 
ATOM     38  C   UNL     1       4.560   1.083  -0.239  0.00  0.00    +0.120 A 
ATOM     39  N   UNL     1       3.580   0.548  -1.068  0.00  0.00    -0.263 NA
ATOM     40  C   UNL     1       3.488  -0.826  -1.338  0.00  0.00    +0.111 A 
ENDBRANCH   4   3
ENDBRANCH  10   9
BRANCH  12  13
ATOM     13  N   UNL     1       8.441   4.095   8.171  0.00  0.00    -0.281 N 
ATOM     14  C   UNL     1       9.255   3.116   8.715  0.00  0.00    +0.248 C 
ATOM     30  O   UNL     1       9.874   2.289   8.061  0.00  0.00    -0.270 OA
ATOM     31  H   UNL     1       7.835   4.590   8.826  0.00  0.00    +0.155 HD
BRANCH  14  15
ATOM     15  C   UNL     1       9.390   3.032  10.201  0.00  0.00    +0.037 A 
ATOM     16  C   UNL     1       9.991   1.862  10.845  0.00  0.00    +0.013 A 
ATOM     17  C   UNL     1      10.094   1.799  12.281  0.00  0.00    +0.005 A 
ATOM     18  C   UNL     1       9.595   2.914  13.084  0.00  0.00    -0.033 A 
ATOM     28  C   UNL     1       9.008   4.065  12.419  0.00  0.00    +0.005 A 
ATOM     29  C   UNL     1       8.905   4.129  11.011  0.00  0.00    +0.013 A 
BRANCH  18  19
ATOM     19  C   UNL     1       9.645   2.924  14.623  0.00  0.00    +0.119 C 
BRANCH  19  20
ATOM     20  N   UNL     1       9.897   4.235  15.291  0.00  0.00    -0.302 NA
ATOM     21  C   UNL     1      11.369   4.649  15.206  0.00  0.00    +0.066 C 
ATOM     22  C   UNL     1      11.612   6.034  15.889  0.00  0.00    -0.064 C 
ATOM     23  N   UNL     1      11.151   5.968  17.346  0.00  0.00    +0.379 N 
ATOM     24  C   UNL     1      11.431   7.251  18.008  0.00  0.00    -0.096 C 
ATOM     25  H   UNL     1      11.757   5.185  17.857  0.00  0.00    -0.082 HD
ATOM     26  C   UNL     1       9.689   5.555  17.440  0.00  0.00    -0.064 C 
ATOM     27  C   UNL     1       9.454   4.191  16.732  0.00  0.00    +0.066 C 
ENDBRANCH  19  20
ENDBRANCH  18  19
ENDBRANCH  14  15
ENDBRANCH  12  13
TORSDOF 6
ENDMDL
MODEL 2
REMARK VINA RESULT:      -7.4      7.486     12.874
REMARK  Name = C:\Users\Docking\Desktop\test protocol\1iep_ligandH.pdb
REMARK  8 active torsions:
REMARK  status: ('A' for Active; 'I' for Inactive)
REMARK    1  A    between atoms: _5  and  _11
REMARK    2  A    between atoms: _19  and  _21
REMARK    3  A    between atoms: _22  and  _66
REMARK    4  A    between atoms: _27  and  _30
REMARK    5  A    between atoms: _32  and  _33
REMARK    6  A    between atoms: _38  and  _43
REMARK    7  A    between atoms: _43  and  _46
REMARK    8  A    between atoms: _53  and  _55
REMARK                            x       y       z     vdW  Elec       q    Type
REMARK                         _______ _______ _______ _____ _____    ______ ____
ROOT
ATOM     10  C   UNL     1       3.505  -4.765  -2.818  0.00  0.00    +0.038 A 
ATOM     11  C   UNL     1       3.628  -3.410  -2.417  0.00  0.00    +0.047 A 
ATOM     12  C   UNL     1       4.846  -2.918  -1.792  0.00  0.00    +0.035 A 
ATOM     32  C   UNL     1       5.920  -3.833  -1.592  0.00  0.00    +0.024 A 
ATOM     33  C   UNL     1       5.812  -5.214  -1.992  0.00  0.00    +0.007 A 
ATOM     34  C   UNL     1       4.612  -5.706  -2.607  0.00  0.00    -0.029 A 
ATOM     35  C   UNL     1       4.548  -7.198  -3.010  0.00  0.00    +0.045 C 
ENDROOT
BRANCH  10   9
ATOM      4  C   UNL     1       0.307  -4.690  -6.396  0.00  0.00    +0.077 A 
ATOM      5  C   UNL     1       1.062  -3.715  -7.129  0.00  0.00    +0.048 A 
ATOM      6  C   UNL     1       2.264  -3.253  -6.547  0.00  0.00    +0.116 A 
ATOM      7  N   UNL     1       2.671  -3.737  -5.323  0.00  0.00    -0.223 NA
ATOM      8  C   UNL     1       1.919  -4.677  -4.642  0.00  0.00    +0.220 A 
ATOM      9  N   UNL     1       2.313  -5.183  -3.413  0.00  0.00    -0.283 N 
ATOM     36  H   UNL     1       1.726  -5.870  -2.939  0.00  0.00    +0.155 HD
ATOM     37  N   UNL     1       0.766  -5.133  -5.176  0.00  0.00    -0.214 NA
BRANCH   4   3
ATOM      1  C   UNL     1      -3.186  -6.447  -6.509  0.00  0.00    +0.020 A 
ATOM      2  C   UNL     1      -1.956  -5.895  -5.990  0.00  0.00    +0.013 A 
ATOM      3  C   UNL     1      -0.982  -5.278  -6.881  0.00  0.00    +0.019 A 
ATOM     38  C   UNL     1      -1.285  -5.234  -8.304  0.00  0.00    +0.120 A 
ATOM     39  N   UNL     1      -2.477  -5.775  -8.775  0.00  0.00    -0.263 NA
ATOM     40  C   UNL     1      -3.422  -6.373  -7.927  0.00  0.00    +0.111 A 
ENDBRANCH   4   3
ENDBRANCH  10   9
BRANCH  12  13
ATOM     13  N   UNL     1       5.026  -1.555  -1.357  0.00  0.00    -0.281 N 
ATOM     14  C   UNL     1       5.567  -0.498  -2.071  0.00  0.00    +0.248 C 
ATOM     30  O   UNL     1       6.177  -0.615  -3.123  0.00  0.00    -0.270 OA
ATOM     31  H   UNL     1       4.717  -1.344  -0.408  0.00  0.00    +0.155 HD
BRANCH  14  15
ATOM     15  C   UNL     1       5.421   0.888  -1.531  0.00  0.00    +0.037 A 
ATOM     16  C   UNL     1       4.793   1.134  -0.230  0.00  0.00    +0.013 A 
ATOM     17  C   UNL     1       4.650   2.482   0.261  0.00  0.00    +0.005 A 
ATOM     18  C   UNL     1       5.137   3.595  -0.551  0.00  0.00    -0.033 A 
ATOM     28  C   UNL     1       5.760   3.322  -1.835  0.00  0.00    +0.005 A 
ATOM     29  C   UNL     1       5.901   2.002  -2.320  0.00  0.00    +0.013 A 
BRANCH  18  19
ATOM     19  C   UNL     1       5.006   5.067  -0.116  0.00  0.00    +0.119 C 
BRANCH  19  20
ATOM     20  N   UNL     1       5.158   5.366   1.339  0.00  0.00    -0.302 NA
ATOM     21  C   UNL     1       4.844   6.830   1.660  0.00  0.00    +0.066 C 
ATOM     22  C   UNL     1       4.986   7.120   3.190  0.00  0.00    -0.064 C 
ATOM     23  N   UNL     1       6.400   6.757   3.646  0.00  0.00    +0.379 N 
ATOM     24  C   UNL     1       6.555   7.083   5.071  0.00  0.00    -0.096 C 
ATOM     25  H   UNL     1       7.114   7.394   3.074  0.00  0.00    -0.082 HD
ATOM     26  C   UNL     1       6.722   5.303   3.328  0.00  0.00    -0.064 C 
ATOM     27  C   UNL     1       6.549   5.019   1.810  0.00  0.00    +0.066 C 
ENDBRANCH  19  20
ENDBRANCH  18  19
ENDBRANCH  14  15
ENDBRANCH  12  13
TORSDOF 6
ENDMDL
MODEL 3
REMARK VINA RESULT:      -7.0     18.081     24.774
REMARK  Name = C:\Users\Docking\Desktop\test protocol\1iep_ligandH.pdb
REMARK  8 active torsions:
REMARK  status: ('A' for Active; 'I' for Inactive)
REMARK    1  A    between atoms: _5  and  _11
REMARK    2  A    between atoms: _19  and  _21
REMARK    3  A    between atoms: _22  and  _66
REMARK    4  A    between atoms: _27  and  _30
REMARK    5  A    between atoms: _32  and  _33
REMARK    6  A    between atoms: _38  and  _43
REMARK    7  A    between atoms: _43  and  _46
REMARK    8  A    between atoms: _53  and  _55
REMARK                            x       y       z     vdW  Elec       q    Type
REMARK                         _______ _______ _______ _____ _____    ______ ____
ROOT
ATOM     10  C   UNL     1      -2.662   8.757 -16.716  0.00  0.00    +0.038 A 
ATOM     11  C   UNL     1      -1.752   8.820 -15.630  0.00  0.00    +0.047 A 
ATOM     12  C   UNL     1      -0.490   8.097 -15.663  0.00  0.00    +0.035 A 
ATOM     32  C   UNL     1      -0.186   7.322 -16.819  0.00  0.00    +0.024 A 
ATOM     33  C   UNL     1      -1.100   7.246 -17.932  0.00  0.00    +0.007 A 
ATOM     34  C   UNL     1      -2.347   7.955 -17.904  0.00  0.00    -0.029 A 
ATOM     35  C   UNL     1      -3.291   7.832 -19.123  0.00  0.00    +0.045 C 
ENDROOT
BRANCH  10   9
ATOM      4  C   UNL     1      -5.346  12.638 -17.594  0.00  0.00    +0.077 A 
ATOM      5  C   UNL     1      -4.264  13.311 -18.253  0.00  0.00    +0.048 A 
ATOM      6  C   UNL     1      -3.031  12.626 -18.339  0.00  0.00    +0.116 A 
ATOM      7  N   UNL     1      -2.901  11.364 -17.802  0.00  0.00    -0.223 NA
ATOM      8  C   UNL     1      -3.965  10.744 -17.171  0.00  0.00    +0.220 A 
ATOM      9  N   UNL     1      -3.859   9.472 -16.632  0.00  0.00    -0.283 N 
ATOM     36  H   UNL     1      -4.665   9.052 -16.168  0.00  0.00    +0.155 HD
ATOM     37  N   UNL     1      -5.152  11.378 -17.075  0.00  0.00    -0.214 NA
BRANCH   4   3
ATOM      1  C   UNL     1      -8.289  15.011 -16.588  0.00  0.00    +0.020 A 
ATOM      2  C   UNL     1      -6.951  14.483 -16.721  0.00  0.00    +0.013 A 
ATOM      3  C   UNL     1      -6.711  13.230 -17.426  0.00  0.00    +0.019 A 
ATOM     38  C   UNL     1      -7.857  12.531 -17.989  0.00  0.00    +0.120 A 
ATOM     39  N   UNL     1      -9.134  13.063 -17.844  0.00  0.00    -0.263 NA
ATOM     40  C   UNL     1      -9.377  14.267 -17.166  0.00  0.00    +0.111 A 
ENDBRANCH   4   3
ENDBRANCH  10   9
BRANCH  12  13
ATOM     13  N   UNL     1       0.469   8.117 -14.587  0.00  0.00    -0.281 N 
ATOM     14  C   UNL     1       0.374   7.501 -13.349  0.00  0.00    +0.248 C 
ATOM     30  O   UNL     1      -0.652   7.014 -12.897  0.00  0.00    -0.270 OA
ATOM     31  H   UNL     1       1.323   8.648 -14.758  0.00  0.00    +0.155 HD
BRANCH  14  15
ATOM     15  C   UNL     1       1.589   7.429 -12.483  0.00  0.00    +0.037 A 
ATOM     16  C   UNL     1       1.712   8.251 -11.276  0.00  0.00    +0.013 A 
ATOM     17  C   UNL     1       2.903   8.175 -10.467  0.00  0.00    +0.005 A 
ATOM     18  C   UNL     1       3.981   7.271 -10.863  0.00  0.00    -0.033 A 
ATOM     28  C   UNL     1       3.830   6.463 -12.061  0.00  0.00    +0.005 A 
ATOM     29  C   UNL     1       2.665   6.536 -12.857  0.00  0.00    +0.013 A 
BRANCH  18  19
ATOM     19  C   UNL     1       5.295   7.141 -10.071  0.00  0.00    +0.119 C 
BRANCH  19  20
ATOM     20  N   UNL     1       5.206   6.608  -8.679  0.00  0.00    -0.302 NA
ATOM     21  C   UNL     1       6.498   6.838  -7.891  0.00  0.00    +0.066 C 
ATOM     22  C   UNL     1       6.379   6.294  -6.430  0.00  0.00    -0.064 C 
ATOM     23  N   UNL     1       6.027   4.806  -6.470  0.00  0.00    +0.379 N 
ATOM     24  C   UNL     1       5.971   4.278  -5.099  0.00  0.00    -0.096 C 
ATOM     25  H   UNL     1       6.851   4.278  -7.003  0.00  0.00    -0.082 HD
ATOM     26  C   UNL     1       4.744   4.568  -7.254  0.00  0.00    -0.064 C 
ATOM     27  C   UNL     1       4.863   5.138  -8.695  0.00  0.00    +0.066 C 
ENDBRANCH  19  20
ENDBRANCH  18  19
ENDBRANCH  14  15
ENDBRANCH  12  13
TORSDOF 6
ENDMDL
MODEL 4
REMARK VINA RESULT:      -7.0      1.701      2.669
REMARK  Name = C:\Users\Docking\Desktop\test protocol\1iep_ligandH.pdb
REMARK  8 active torsions:
REMARK  status: ('A' for Active; 'I' for Inactive)
REMARK    1  A    between atoms: _5  and  _11
REMARK    2  A    between atoms: _19  and  _21
REMARK    3  A    between atoms: _22  and  _66
REMARK    4  A    between atoms: _27  and  _30
REMARK    5  A    between atoms: _32  and  _33
REMARK    6  A    between atoms: _38  and  _43
REMARK    7  A    between atoms: _43  and  _46
REMARK    8  A    between atoms: _53  and  _55
REMARK                            x       y       z     vdW  Elec       q    Type
REMARK                         _______ _______ _______ _____ _____    ______ ____
ROOT
ATOM     10  C   UNL     1       7.312   4.358   4.545  0.00  0.00    +0.038 A 
ATOM     11  C   UNL     1       7.418   3.849   5.864  0.00  0.00    +0.047 A 
ATOM     12  C   UNL     1       8.249   4.507   6.860  0.00  0.00    +0.035 A 
ATOM     32  C   UNL     1       8.957   5.684   6.478  0.00  0.00    +0.024 A 
ATOM     33  C   UNL     1       8.862   6.214   5.141  0.00  0.00    +0.007 A 
ATOM     34  C   UNL     1       8.045   5.568   4.154  0.00  0.00    -0.029 A 
ATOM     35  C   UNL     1       7.986   6.177   2.733  0.00  0.00    +0.045 C 
ENDROOT
BRANCH  10   9
ATOM      4  C   UNL     1       6.538   0.879   1.329  0.00  0.00    +0.077 A 
ATOM      5  C   UNL     1       7.874   0.375   1.466  0.00  0.00    +0.048 A 
ATOM      6  C   UNL     1       8.731   1.043   2.369  0.00  0.00    +0.116 A 
ATOM      7  N   UNL     1       8.275   2.133   3.077  0.00  0.00    -0.223 NA
ATOM      8  C   UNL     1       6.981   2.595   2.921  0.00  0.00    +0.220 A 
ATOM      9  N   UNL     1       6.499   3.686   3.629  0.00  0.00    -0.283 N 
ATOM     36  H   UNL     1       5.541   4.000   3.479  0.00  0.00    +0.155 HD
ATOM     37  N   UNL     1       6.144   1.975   2.064  0.00  0.00    -0.214 NA
BRANCH   4   3
ATOM      1  C   UNL     1       4.417  -1.682  -0.731  0.00  0.00    +0.020 A 
ATOM      2  C   UNL     1       5.426  -1.153   0.158  0.00  0.00    +0.013 A 
ATOM      3  C   UNL     1       5.514   0.279   0.418  0.00  0.00    +0.019 A 
ATOM     38  C   UNL     1       4.557   1.155  -0.242  0.00  0.00    +0.120 A 
ATOM     39  N   UNL     1       3.598   0.617  -1.094  0.00  0.00    -0.263 NA
ATOM     40  C   UNL     1       3.505  -0.759  -1.353  0.00  0.00    +0.111 A 
ENDBRANCH   4   3
ENDBRANCH  10   9
BRANCH  12  13
ATOM     13  N   UNL     1       8.401   4.033   8.213  0.00  0.00    -0.281 N 
ATOM     14  C   UNL     1       9.412   3.237   8.728  0.00  0.00    +0.248 C 
ATOM     30  O   UNL     1      10.230   2.634   8.050  0.00  0.00    -0.270 OA
ATOM     31  H   UNL     1       7.676   4.317   8.871  0.00  0.00    +0.155 HD
BRANCH  14  15
ATOM     15  C   UNL     1       9.521   3.078  10.210  0.00  0.00    +0.037 A 
ATOM     16  C   UNL     1       9.009   4.102  11.124  0.00  0.00    +0.013 A 
ATOM     17  C   UNL     1       9.143   3.931  12.549  0.00  0.00    +0.005 A 
ATOM     18  C   UNL     1       9.791   2.729  13.069  0.00  0.00    -0.033 A 
ATOM     28  C   UNL     1      10.285   1.727  12.140  0.00  0.00    +0.005 A 
ATOM     29  C   UNL     1      10.157   1.892  10.742  0.00  0.00    +0.013 A 
BRANCH  18  19
ATOM     19  C   UNL     1       9.996   2.474  14.574  0.00  0.00    +0.119 C 
BRANCH  19  20
ATOM     20  N   UNL     1       8.785   2.137  15.381  0.00  0.00    -0.302 NA
ATOM     21  C   UNL     1       9.102   2.037  16.876  0.00  0.00    +0.066 C 
ATOM     22  C   UNL     1       7.820   1.706  17.708  0.00  0.00    -0.064 C 
ATOM     23  N   UNL     1       7.206   0.402  17.196  0.00  0.00    +0.379 N 
ATOM     24  C   UNL     1       6.033   0.058  18.014  0.00  0.00    -0.096 C 
ATOM     25  H   UNL     1       7.963  -0.404  17.334  0.00  0.00    -0.082 HD
ATOM     26  C   UNL     1       6.891   0.492  15.710  0.00  0.00    -0.064 C 
ATOM     27  C   UNL     1       8.165   0.850  14.896  0.00  0.00    +0.066 C 
ENDBRANCH  19  20
ENDBRANCH  18  19
ENDBRANCH  14  15
ENDBRANCH  12  13
TORSDOF 6
ENDMDL
MODEL 5
REMARK VINA RESULT:      -7.0     25.423     30.839
REMARK  Name = C:\Users\Docking\Desktop\test protocol\1iep_ligandH.pdb
REMARK  8 active torsions:
REMARK  status: ('A' for Active; 'I' for Inactive)
REMARK    1  A    between atoms: _5  and  _11
REMARK    2  A    between atoms: _19  and  _21
REMARK    3  A    between atoms: _22  and  _66
REMARK    4  A    between atoms: _27  and  _30
REMARK    5  A    between atoms: _32  and  _33
REMARK    6  A    between atoms: _38  and  _43
REMARK    7  A    between atoms: _43  and  _46
REMARK    8  A    between atoms: _53  and  _55
REMARK                            x       y       z     vdW  Elec       q    Type
REMARK                         _______ _______ _______ _____ _____    ______ ____
ROOT
ATOM     10  C   UNL     1      12.343  27.879  -5.422  0.00  0.00    +0.038 A 
ATOM     11  C   UNL     1      11.091  27.978  -6.082  0.00  0.00    +0.047 A 
ATOM     12  C   UNL     1      10.470  29.270  -6.328  0.00  0.00    +0.035 A 
ATOM     32  C   UNL     1      11.153  30.442  -5.891  0.00  0.00    +0.024 A 
ATOM     33  C   UNL     1      12.425  30.360  -5.218  0.00  0.00    +0.007 A 
ATOM     34  C   UNL     1      13.042  29.088  -4.970  0.00  0.00    -0.029 A 
ATOM     35  C   UNL     1      14.404  29.060  -4.238  0.00  0.00    +0.045 C 
ENDROOT
BRANCH  10   9
ATOM      4  C   UNL     1      12.795  23.828  -2.888  0.00  0.00    +0.077 A 
ATOM      5  C   UNL     1      11.878  24.284  -1.884  0.00  0.00    +0.048 A 
ATOM      6  C   UNL     1      11.317  25.570  -2.053  0.00  0.00    +0.116 A 
ATOM      7  N   UNL     1      11.655  26.334  -3.149  0.00  0.00    -0.223 NA
ATOM      8  C   UNL     1      12.545  25.865  -4.098  0.00  0.00    +0.220 A 
ATOM      9  N   UNL     1      12.893  26.613  -5.212  0.00  0.00    -0.283 N 
ATOM     36  H   UNL     1      13.559  26.234  -5.885  0.00  0.00    +0.155 HD
ATOM     37  N   UNL     1      13.095  24.641  -3.958  0.00  0.00    -0.214 NA
BRANCH   4   3
ATOM      1  C   UNL     1      13.621  20.084  -2.111  0.00  0.00    +0.020 A 
ATOM      2  C   UNL     1      12.932  21.354  -2.114  0.00  0.00    +0.013 A 
ATOM      3  C   UNL     1      13.468  22.491  -2.851  0.00  0.00    +0.019 A 
ATOM     38  C   UNL     1      14.713  22.308  -3.583  0.00  0.00    +0.120 A 
ATOM     39  N   UNL     1      15.355  21.074  -3.561  0.00  0.00    -0.263 NA
ATOM     40  C   UNL     1      14.850  19.973  -2.853  0.00  0.00    +0.111 A 
ENDBRANCH   4   3
ENDBRANCH  10   9
BRANCH  12  13
ATOM     13  N   UNL     1       9.197  29.431  -6.986  0.00  0.00    -0.281 N 
ATOM     14  C   UNL     1       8.953  29.915  -8.261  0.00  0.00    +0.248 C 
ATOM     30  O   UNL     1       9.782  30.484  -8.955  0.00  0.00    -0.270 OA
ATOM     31  H   UNL     1       8.377  29.156  -6.446  0.00  0.00    +0.155 HD
BRANCH  14  15
ATOM     15  C   UNL     1       7.586  29.754  -8.844  0.00  0.00    +0.037 A 
ATOM     16  C   UNL     1       7.397  29.299 -10.224  0.00  0.00    +0.013 A 
ATOM     17  C   UNL     1       6.068  29.169 -10.767  0.00  0.00    +0.005 A 
ATOM     18  C   UNL     1       4.917  29.495  -9.928  0.00  0.00    -0.033 A 
ATOM     28  C   UNL     1       5.133  29.940  -8.562  0.00  0.00    +0.005 A 
ATOM     29  C   UNL     1       6.434  30.069  -8.026  0.00  0.00    +0.013 A 
BRANCH  18  19
ATOM     19  C   UNL     1       3.464  29.406 -10.432  0.00  0.00    +0.119 C 
BRANCH  19  20
ATOM     20  N   UNL     1       2.890  30.622 -11.082  0.00  0.00    -0.302 NA
ATOM     21  C   UNL     1       1.546  31.022 -10.467  0.00  0.00    +0.066 C 
ATOM     22  C   UNL     1       0.971  32.309 -11.144  0.00  0.00    -0.064 C 
ATOM     23  N   UNL     1       0.829  32.070 -12.649  0.00  0.00    +0.379 N 
ATOM     24  C   UNL     1       0.234  33.257 -13.280  0.00  0.00    -0.096 C 
ATOM     25  H   UNL     1       0.121  31.221 -12.791  0.00  0.00    -0.082 HD
ATOM     26  C   UNL     1       2.160  31.669 -13.267  0.00  0.00    -0.064 C 
ATOM     27  C   UNL     1       2.737  30.407 -12.568  0.00  0.00    +0.066 C 
ENDBRANCH  19  20
ENDBRANCH  18  19
ENDBRANCH  14  15
ENDBRANCH  12  13
TORSDOF 6
ENDMDL
