MODEL 1
REMARK VINA RESULT:      -8.1      0.000      0.000
REMARK  Name = C:\Users\Docking\Desktop\test protocol\1iep_ligandH.pdb
REMARK  8 active torsions:
REMARK  status: ('A' for Active; 'I' for Inactive)
REMARK    1  A    between atoms: _5  and  _11
REMARK    2  A    between atoms: _19  and  _21
REMARK    3  A    between atoms: _22  and  _66
REMARK    4  A    between atoms: _27  and  _30
REMARK    5  A    between atoms: _32  and  _33
REMARK    6  A    between atoms: _38  and  _43
REMARK    7  A    between atoms: _43  and  _46
REMARK    8  A    between atoms: _53  and  _55
REMARK                            x       y       z     vdW  Elec       q    Type
REMARK                         _______ _______ _______ _____ _____    ______ ____
ROOT
ATOM     10  C   UNL     1       6.746  26.160  25.988  0.00  0.00    +0.038 A 
ATOM     11  C   UNL     1       7.672  26.968  25.280  0.00  0.00    +0.047 A 
ATOM     12  C   UNL     1       7.382  27.444  23.936  0.00  0.00    +0.035 A 
ATOM     32  C   UNL     1       6.138  27.079  23.344  0.00  0.00    +0.024 A 
ATOM     33  C   UNL     1       5.186  26.258  24.049  0.00  0.00    +0.007 A 
ATOM     34  C   UNL     1       5.467  25.784  25.374  0.00  0.00    -0.029 A 
ATOM     35  C   UNL     1       4.412  24.901  26.080  0.00  0.00    +0.045 C 
ENDROOT
BRANCH  10   9
ATOM      4  C   UNL     1       6.685  26.661  30.761  0.00  0.00    +0.077 A 
ATOM      5  C   UNL     1       5.957  27.894  30.682  0.00  0.00    +0.048 A 
ATOM      6  C   UNL     1       5.624  28.369  29.393  0.00  0.00    +0.116 A 
ATOM      7  N   UNL     1       5.996  27.655  28.275  0.00  0.00    -0.223 NA
ATOM      8  C   UNL     1       6.699  26.470  28.387  0.00  0.00    +0.220 A 
ATOM      9  N   UNL     1       7.076  25.732  27.276  0.00  0.00    -0.283 N 
ATOM     36  H   UNL     1       7.601  24.866  27.400  0.00  0.00    +0.155 HD
ATOM     37  N   UNL     1       7.030  25.996  29.606  0.00  0.00    -0.214 NA
BRANCH   4   3
ATOM      1  C   UNL     1       7.014  24.187  33.774  0.00  0.00    +0.020 A 
ATOM      2  C   UNL     1       6.573  24.755  32.521  0.00  0.00    +0.013 A 
ATOM      3  C   UNL     1       7.107  26.028  32.051  0.00  0.00    +0.019 A 
ATOM     38  C   UNL     1       8.094  26.704  32.878  0.00  0.00    +0.120 A 
ATOM     39  N   UNL     1       8.499  26.134  34.081  0.00  0.00    -0.263 NA
ATOM     40  C   UNL     1       7.991  24.911  34.544  0.00  0.00    +0.111 A 
ENDBRANCH   4   3
ENDBRANCH  10   9
BRANCH  12  13
ATOM     13  N   UNL     1       8.287  28.260  23.165  0.00  0.00    -0.281 N 
ATOM     14  C   UNL     1       9.619  28.015  22.876  0.00  0.00    +0.248 C 
ATOM     30  O   UNL     1      10.297  27.155  23.419  0.00  0.00    -0.270 OA
ATOM     31  H   UNL     1       7.898  29.124  22.787  0.00  0.00    +0.155 HD
BRANCH  14  15
ATOM     15  C   UNL     1      10.301  28.855  21.845  0.00  0.00    +0.037 A 
ATOM     16  C   UNL     1      10.391  30.311  21.990  0.00  0.00    +0.013 A 
ATOM     17  C   UNL     1      11.040  31.100  20.972  0.00  0.00    +0.005 A 
ATOM     18  C   UNL     1      11.605  30.434  19.801  0.00  0.00    -0.033 A 
ATOM     28  C   UNL     1      11.506  28.988  19.686  0.00  0.00    +0.005 A 
ATOM     29  C   UNL     1      10.870  28.212  20.681  0.00  0.00    +0.013 A 
BRANCH  18  19
ATOM     19  C   UNL     1      12.295  31.198  18.656  0.00  0.00    +0.119 C 
BRANCH  19  20
ATOM     20  N   UNL     1      13.452  32.071  19.017  0.00  0.00    -0.302 NA
ATOM     21  C   UNL     1      13.058  33.550  19.080  0.00  0.00    +0.066 C 
ATOM     22  C   UNL     1      14.274  34.446  19.481  0.00  0.00    -0.064 C 
ATOM     23  N   UNL     1      15.413  34.232  18.483  0.00  0.00    +0.379 N 
ATOM     24  C   UNL     1      16.537  35.117  18.824  0.00  0.00    -0.096 C 
ATOM     25  H   UNL     1      15.040  34.530  17.476  0.00  0.00    -0.082 HD
ATOM     26  C   UNL     1      15.810  32.764  18.412  0.00  0.00    -0.064 C 
ATOM     27  C   UNL     1      14.587  31.878  18.042  0.00  0.00    +0.066 C 
ENDBRANCH  19  20
ENDBRANCH  18  19
ENDBRANCH  14  15
ENDBRANCH  12  13
TORSDOF 6
ENDMDL
MODEL 2
REMARK VINA RESULT:      -7.9     23.110     26.029
REMARK  Name = C:\Users\Docking\Desktop\test protocol\1iep_ligandH.pdb
REMARK  8 active torsions:
REMARK  status: ('A' for Active; 'I' for Inactive)
REMARK    1  A    between atoms: _5  and  _11
REMARK    2  A    between atoms: _19  and  _21
REMARK    3  A    between atoms: _22  and  _66
REMARK    4  A    between atoms: _27  and  _30
REMARK    5  A    between atoms: _32  and  _33
REMARK    6  A    between atoms: _38  and  _43
REMARK    7  A    between atoms: _43  and  _46
REMARK    8  A    between atoms: _53  and  _55
REMARK                            x       y       z     vdW  Elec       q    Type
REMARK                         _______ _______ _______ _____ _____    ______ ____
ROOT
ATOM     10  C   UNL     1      11.360   4.440  29.034  0.00  0.00    +0.038 A 
ATOM     11  C   UNL     1      11.245   3.962  27.704  0.00  0.00    +0.047 A 
ATOM     12  C   UNL     1      10.447   4.670  26.716  0.00  0.00    +0.035 A 
ATOM     32  C   UNL     1       9.780   5.865  27.117  0.00  0.00    +0.024 A 
ATOM     33  C   UNL     1       9.886   6.365  28.465  0.00  0.00    +0.007 A 
ATOM     34  C   UNL     1      10.670   5.668  29.445  0.00  0.00    -0.029 A 
ATOM     35  C   UNL     1      10.742   6.247  30.877  0.00  0.00    +0.045 C 
ENDROOT
BRANCH  10   9
ATOM      4  C   UNL     1      11.986   0.859  32.168  0.00  0.00    +0.077 A 
ATOM      5  C   UNL     1      10.636   0.400  32.004  0.00  0.00    +0.048 A 
ATOM      6  C   UNL     1       9.811   1.118  31.109  0.00  0.00    +0.116 A 
ATOM      7  N   UNL     1      10.310   2.211  30.434  0.00  0.00    -0.223 NA
ATOM      8  C   UNL     1      11.616   2.628  30.616  0.00  0.00    +0.220 A 
ATOM      9  N   UNL     1      12.140   3.719  29.942  0.00  0.00    -0.283 N 
ATOM     36  H   UNL     1      13.106   3.999  30.110  0.00  0.00    +0.155 HD
ATOM     37  N   UNL     1      12.423   1.960  31.467  0.00  0.00    -0.214 NA
BRANCH   4   3
ATOM      1  C   UNL     1      13.981  -1.815  34.209  0.00  0.00    +0.020 A 
ATOM      2  C   UNL     1      12.999  -1.233  33.324  0.00  0.00    +0.013 A 
ATOM      3  C   UNL     1      12.980   0.203  33.076  0.00  0.00    +0.019 A 
ATOM     38  C   UNL     1      13.976   1.028  33.743  0.00  0.00    +0.120 A 
ATOM     39  N   UNL     1      14.908   0.439  34.591  0.00  0.00    -0.263 NA
ATOM     40  C   UNL     1      14.936  -0.942  34.839  0.00  0.00    +0.111 A 
ENDBRANCH   4   3
ENDBRANCH  10   9
BRANCH  12  13
ATOM     13  N   UNL     1      10.286   4.229  25.353  0.00  0.00    -0.281 N 
ATOM     14  C   UNL     1       9.458   3.226  24.874  0.00  0.00    +0.248 C 
ATOM     30  O   UNL     1       8.884   2.409  25.578  0.00  0.00    -0.270 OA
ATOM     31  H   UNL     1      10.852   4.714  24.656  0.00  0.00    +0.155 HD
BRANCH  14  15
ATOM     15  C   UNL     1       9.249   3.106  23.399  0.00  0.00    +0.037 A 
ATOM     16  C   UNL     1       8.565   1.946  22.821  0.00  0.00    +0.013 A 
ATOM     17  C   UNL     1       8.391   1.846  21.394  0.00  0.00    +0.005 A 
ATOM     18  C   UNL     1       8.902   2.911  20.534  0.00  0.00    -0.033 A 
ATOM     28  C   UNL     1       9.573   4.053  21.134  0.00  0.00    +0.005 A 
ATOM     29  C   UNL     1       9.746   4.153  22.533  0.00  0.00    +0.013 A 
BRANCH  18  19
ATOM     19  C   UNL     1       8.781   2.878  18.999  0.00  0.00    +0.119 C 
BRANCH  19  20
ATOM     20  N   UNL     1       8.657   4.189  18.294  0.00  0.00    -0.302 NA
ATOM     21  C   UNL     1       7.211   4.692  18.267  0.00  0.00    +0.066 C 
ATOM     22  C   UNL     1       7.103   6.075  17.545  0.00  0.00    -0.064 C 
ATOM     23  N   UNL     1       7.660   5.951  16.126  0.00  0.00    +0.379 N 
ATOM     24  C   UNL     1       7.507   7.235  15.426  0.00  0.00    -0.096 C 
ATOM     25  H   UNL     1       7.045   5.195  15.586  0.00  0.00    -0.082 HD
ATOM     26  C   UNL     1       9.097   5.449  16.144  0.00  0.00    -0.064 C 
ATOM     27  C   UNL     1       9.198   4.089  16.889  0.00  0.00    +0.066 C 
ENDBRANCH  19  20
ENDBRANCH  18  19
ENDBRANCH  14  15
ENDBRANCH  12  13
TORSDOF 6
ENDMDL
MODEL 3
REMARK VINA RESULT:      -7.8     26.936     31.604
REMARK  Name = C:\Users\Docking\Desktop\test protocol\1iep_ligandH.pdb
REMARK  8 active torsions:
REMARK  status: ('A' for Active; 'I' for Inactive)
REMARK    1  A    between atoms: _5  and  _11
REMARK    2  A    between atoms: _19  and  _21
REMARK    3  A    between atoms: _22  and  _66
REMARK    4  A    between atoms: _27  and  _30
REMARK    5  A    between atoms: _32  and  _33
REMARK    6  A    between atoms: _38  and  _43
REMARK    7  A    between atoms: _43  and  _46
REMARK    8  A    between atoms: _53  and  _55
REMARK                            x       y       z     vdW  Elec       q    Type
REMARK                         _______ _______ _______ _____ _____    ______ ____
ROOT
ATOM     10  C   UNL     1      14.013  -3.736  35.635  0.00  0.00    +0.038 A 
ATOM     11  C   UNL     1      14.258  -2.451  35.087  0.00  0.00    +0.047 A 
ATOM     12  C   UNL     1      13.166  -1.609  34.626  0.00  0.00    +0.035 A 
ATOM     32  C   UNL     1      11.835  -2.105  34.742  0.00  0.00    +0.024 A 
ATOM     33  C   UNL     1      11.567  -3.409  35.297  0.00  0.00    +0.007 A 
ATOM     34  C   UNL     1      12.641  -4.246  35.750  0.00  0.00    -0.029 A 
ATOM     35  C   UNL     1      12.296  -5.637  36.330  0.00  0.00    +0.045 C 
ENDROOT
BRANCH  10   9
ATOM      4  C   UNL     1      17.195  -5.084  38.966  0.00  0.00    +0.077 A 
ATOM      5  C   UNL     1      16.665  -4.163  39.930  0.00  0.00    +0.048 A 
ATOM      6  C   UNL     1      15.578  -3.356  39.527  0.00  0.00    +0.116 A 
ATOM      7  N   UNL     1      15.067  -3.470  38.252  0.00  0.00    -0.223 NA
ATOM      8  C   UNL     1      15.603  -4.366  37.346  0.00  0.00    +0.220 A 
ATOM      9  N   UNL     1      15.100  -4.503  36.062  0.00  0.00    -0.283 N 
ATOM     36  H   UNL     1      15.528  -5.171  35.421  0.00  0.00    +0.155 HD
ATOM     37  N   UNL     1      16.642  -5.148  37.707  0.00  0.00    -0.214 NA
BRANCH   4   3
ATOM      1  C   UNL     1      20.776  -6.470  39.711  0.00  0.00    +0.020 A 
ATOM      2  C   UNL     1      19.706  -5.537  39.446  0.00  0.00    +0.013 A 
ATOM      3  C   UNL     1      18.341  -6.007  39.243  0.00  0.00    +0.019 A 
ATOM     38  C   UNL     1      18.091  -7.439  39.317  0.00  0.00    +0.120 A 
ATOM     39  N   UNL     1      19.142  -8.314  39.572  0.00  0.00    -0.263 NA
ATOM     40  C   UNL     1      20.460  -7.873  39.767  0.00  0.00    +0.111 A 
ENDBRANCH   4   3
ENDBRANCH  10   9
BRANCH  12  13
ATOM     13  N   UNL     1      13.354  -0.299  34.053  0.00  0.00    -0.281 N 
ATOM     14  C   UNL     1      12.962   0.147  32.802  0.00  0.00    +0.248 C 
ATOM     30  O   UNL     1      12.576  -0.579  31.898  0.00  0.00    -0.270 OA
ATOM     31  H   UNL     1      13.835   0.382  34.641  0.00  0.00    +0.155 HD
BRANCH  14  15
ATOM     15  C   UNL     1      13.020   1.611  32.506  0.00  0.00    +0.037 A 
ATOM     16  C   UNL     1      12.321   2.182  31.353  0.00  0.00    +0.013 A 
ATOM     17  C   UNL     1      12.408   3.595  31.081  0.00  0.00    +0.005 A 
ATOM     18  C   UNL     1      13.197   4.448  31.967  0.00  0.00    -0.033 A 
ATOM     28  C   UNL     1      13.877   3.856  33.107  0.00  0.00    +0.005 A 
ATOM     29  C   UNL     1      13.795   2.471  33.376  0.00  0.00    +0.013 A 
BRANCH  18  19
ATOM     19  C   UNL     1      13.362   5.962  31.741  0.00  0.00    +0.119 C 
BRANCH  19  20
ATOM     20  N   UNL     1      12.147   6.730  31.336  0.00  0.00    -0.302 NA
ATOM     21  C   UNL     1      12.461   7.780  30.266  0.00  0.00    +0.066 C 
ATOM     22  C   UNL     1      11.175   8.558  29.837  0.00  0.00    -0.064 C 
ATOM     23  N   UNL     1      10.544   9.211  31.068  0.00  0.00    +0.379 N 
ATOM     24  C   UNL     1       9.367   9.992  30.660  0.00  0.00    -0.096 C 
ATOM     25  H   UNL     1      11.290   9.922  31.493  0.00  0.00    -0.082 HD
ATOM     26  C   UNL     1      10.231   8.175  32.138  0.00  0.00    -0.064 C 
ATOM     27  C   UNL     1      11.510   7.387  32.535  0.00  0.00    +0.066 C 
ENDBRANCH  19  20
ENDBRANCH  18  19
ENDBRANCH  14  15
ENDBRANCH  12  13
TORSDOF 6
ENDMDL
MODEL 4
REMARK VINA RESULT:      -7.7      8.479     15.732
REMARK  Name = C:\Users\Docking\Desktop\test protocol\1iep_ligandH.pdb
REMARK  8 active torsions:
REMARK  status: ('A' for Active; 'I' for Inactive)
REMARK    1  A    between atoms: _5  and  _11
REMARK    2  A    between atoms: _19  and  _21
REMARK    3  A    between atoms: _22  and  _66
REMARK    4  A    between atoms: _27  and  _30
REMARK    5  A    between atoms: _32  and  _33
REMARK    6  A    between atoms: _38  and  _43
REMARK    7  A    between atoms: _43  and  _46
REMARK    8  A    between atoms: _53  and  _55
REMARK                            x       y       z     vdW  Elec       q    Type
REMARK                         _______ _______ _______ _____ _____    ______ ____
ROOT
ATOM     10  C   UNL     1       7.566  28.191  41.834  0.00  0.00    +0.038 A 
ATOM     11  C   UNL     1       7.673  27.391  40.668  0.00  0.00    +0.047 A 
ATOM     12  C   UNL     1       6.825  27.632  39.510  0.00  0.00    +0.035 A 
ATOM     32  C   UNL     1       5.880  28.698  39.575  0.00  0.00    +0.024 A 
ATOM     33  C   UNL     1       5.758  29.520  40.753  0.00  0.00    +0.007 A 
ATOM     34  C   UNL     1       6.590  29.285  41.899  0.00  0.00    -0.029 A 
ATOM     35  C   UNL     1       6.411  30.194  43.137  0.00  0.00    +0.045 C 
ENDROOT
BRANCH  10   9
ATOM      4  C   UNL     1      11.602  28.873  44.341  0.00  0.00    +0.077 A 
ATOM      5  C   UNL     1      12.092  29.839  43.402  0.00  0.00    +0.048 A 
ATOM      6  C   UNL     1      11.279  30.128  42.283  0.00  0.00    +0.116 A 
ATOM      7  N   UNL     1      10.067  29.491  42.126  0.00  0.00    -0.223 NA
ATOM      8  C   UNL     1       9.624  28.562  43.050  0.00  0.00    +0.220 A 
ATOM      9  N   UNL     1       8.405  27.916  42.916  0.00  0.00    -0.283 N 
ATOM     36  H   UNL     1       8.118  27.232  43.616  0.00  0.00    +0.155 HD
ATOM     37  N   UNL     1      10.383  28.268  44.126  0.00  0.00    -0.214 NA
BRANCH   4   3
ATOM      1  C   UNL     1      12.558  27.174  47.733  0.00  0.00    +0.020 A 
ATOM      2  C   UNL     1      11.799  27.537  46.558  0.00  0.00    +0.013 A 
ATOM      3  C   UNL     1      12.345  28.464  45.575  0.00  0.00    +0.019 A 
ATOM     38  C   UNL     1      13.673  29.010  45.812  0.00  0.00    +0.120 A 
ATOM     39  N   UNL     1      14.380  28.643  46.953  0.00  0.00    -0.263 NA
ATOM     40  C   UNL     1      13.864  27.754  47.907  0.00  0.00    +0.111 A 
ENDBRANCH   4   3
ENDBRANCH  10   9
BRANCH  12  13
ATOM     13  N   UNL     1       6.882  26.848  38.302  0.00  0.00    -0.281 N 
ATOM     14  C   UNL     1       6.057  25.801  37.926  0.00  0.00    +0.248 C 
ATOM     30  O   UNL     1       5.273  25.236  38.674  0.00  0.00    -0.270 OA
ATOM     31  H   UNL     1       7.621  27.096  37.643  0.00  0.00    +0.155 HD
BRANCH  14  15
ATOM     15  C   UNL     1       6.124  25.298  36.520  0.00  0.00    +0.037 A 
ATOM     16  C   UNL     1       4.929  24.801  35.833  0.00  0.00    +0.013 A 
ATOM     17  C   UNL     1       5.024  24.306  34.483  0.00  0.00    +0.005 A 
ATOM     18  C   UNL     1       6.320  24.306  33.810  0.00  0.00    -0.033 A 
ATOM     28  C   UNL     1       7.489  24.810  34.512  0.00  0.00    +0.005 A 
ATOM     29  C   UNL     1       7.400  25.295  35.836  0.00  0.00    +0.013 A 
BRANCH  18  19
ATOM     19  C   UNL     1       6.519  23.777  32.377  0.00  0.00    +0.119 C 
BRANCH  19  20
ATOM     20  N   UNL     1       5.922  24.575  31.264  0.00  0.00    -0.302 NA
ATOM     21  C   UNL     1       5.702  23.731  30.006  0.00  0.00    +0.066 C 
ATOM     22  C   UNL     1       5.056  24.575  28.859  0.00  0.00    -0.064 C 
ATOM     23  N   UNL     1       5.947  25.781  28.555  0.00  0.00    +0.379 N 
ATOM     24  C   UNL     1       5.372  26.545  27.438  0.00  0.00    -0.096 C 
ATOM     25  H   UNL     1       6.939  25.394  28.225  0.00  0.00    -0.082 HD
ATOM     26  C   UNL     1       6.172  26.625  29.802  0.00  0.00    -0.064 C 
ATOM     27  C   UNL     1       6.787  25.769  30.944  0.00  0.00    +0.066 C 
ENDBRANCH  19  20
ENDBRANCH  18  19
ENDBRANCH  14  15
ENDBRANCH  12  13
TORSDOF 6
ENDMDL
MODEL 5
REMARK VINA RESULT:      -7.7     28.526     33.299
REMARK  Name = C:\Users\Docking\Desktop\test protocol\1iep_ligandH.pdb
REMARK  8 active torsions:
REMARK  status: ('A' for Active; 'I' for Inactive)
REMARK    1  A    between atoms: _5  and  _11
REMARK    2  A    between atoms: _19  and  _21
REMARK    3  A    between atoms: _22  and  _66
REMARK    4  A    between atoms: _27  and  _30
REMARK    5  A    between atoms: _32  and  _33
REMARK    6  A    between atoms: _38  and  _43
REMARK    7  A    between atoms: _43  and  _46
REMARK    8  A    between atoms: _53  and  _55
REMARK                            x       y       z     vdW  Elec       q    Type
REMARK                         _______ _______ _______ _____ _____    ______ ____
ROOT
ATOM     10  C   UNL     1      15.460  -5.166  36.967  0.00  0.00    +0.038 A 
ATOM     11  C   UNL     1      15.479  -3.868  36.394  0.00  0.00    +0.047 A 
ATOM     12  C   UNL     1      14.265  -3.256  35.877  0.00  0.00    +0.035 A 
ATOM     32  C   UNL     1      13.048  -3.993  35.961  0.00  0.00    +0.024 A 
ATOM     33  C   UNL     1      13.011  -5.314  36.538  0.00  0.00    +0.007 A 
ATOM     34  C   UNL     1      14.205  -5.924  37.048  0.00  0.00    -0.029 A 
ATOM     35  C   UNL     1      14.108  -7.344  37.651  0.00  0.00    +0.045 C 
ENDROOT
BRANCH  10   9
ATOM      4  C   UNL     1      18.977  -5.427  40.222  0.00  0.00    +0.077 A 
ATOM      5  C   UNL     1      18.399  -4.383  41.018  0.00  0.00    +0.048 A 
ATOM      6  C   UNL     1      17.200  -3.799  40.550  0.00  0.00    +0.116 A 
ATOM      7  N   UNL     1      16.630  -4.236  39.374  0.00  0.00    -0.223 NA
ATOM      8  C   UNL     1      17.215  -5.245  38.630  0.00  0.00    +0.220 A 
ATOM      9  N   UNL     1      16.655  -5.705  37.448  0.00  0.00    -0.283 N 
ATOM     36  H   UNL     1      17.121  -6.446  36.924  0.00  0.00    +0.155 HD
ATOM     37  N   UNL     1      18.360  -5.817  39.054  0.00  0.00    -0.214 NA
BRANCH   4   3
ATOM      1  C   UNL     1      21.891  -7.057  42.261  0.00  0.00    +0.020 A 
ATOM      2  C   UNL     1      20.661  -6.358  41.964  0.00  0.00    +0.013 A 
ATOM      3  C   UNL     1      20.240  -6.144  40.585  0.00  0.00    +0.019 A 
ATOM     38  C   UNL     1      21.092  -6.654  39.522  0.00  0.00    +0.120 A 
ATOM     39  N   UNL     1      22.271  -7.322  39.837  0.00  0.00    -0.263 NA
ATOM     40  C   UNL     1      22.687  -7.533  41.160  0.00  0.00    +0.111 A 
ENDBRANCH   4   3
ENDBRANCH  10   9
BRANCH  12  13
ATOM     13  N   UNL     1      14.224  -1.945  35.277  0.00  0.00    -0.281 N 
ATOM     14  C   UNL     1      13.501  -1.538  34.168  0.00  0.00    +0.248 C 
ATOM     30  O   UNL     1      12.941  -2.297  33.391  0.00  0.00    -0.270 OA
ATOM     31  H   UNL     1      14.799  -1.231  35.725  0.00  0.00    +0.155 HD
BRANCH  14  15
ATOM     15  C   UNL     1      13.397  -0.077  33.871  0.00  0.00    +0.037 A 
ATOM     16  C   UNL     1      12.991   0.402  32.547  0.00  0.00    +0.013 A 
ATOM     17  C   UNL     1      12.915   1.817  32.282  0.00  0.00    +0.005 A 
ATOM     18  C   UNL     1      13.244   2.764  33.345  0.00  0.00    -0.033 A 
ATOM     28  C   UNL     1      13.639   2.261  34.651  0.00  0.00    +0.005 A 
ATOM     29  C   UNL     1      13.715   0.875  34.914  0.00  0.00    +0.013 A 
BRANCH  18  19
ATOM     19  C   UNL     1      13.211   4.290  33.146  0.00  0.00    +0.119 C 
BRANCH  19  20
ATOM     20  N   UNL     1      12.977   4.794  31.759  0.00  0.00    -0.302 NA
ATOM     21  C   UNL     1      13.685   6.128  31.505  0.00  0.00    +0.066 C 
ATOM     22  C   UNL     1      13.449   6.629  30.043  0.00  0.00    -0.064 C 
ATOM     23  N   UNL     1      11.946   6.755  29.787  0.00  0.00    +0.379 N 
ATOM     24  C   UNL     1      11.722   7.281  28.433  0.00  0.00    -0.096 C 
ATOM     25  H   UNL     1      11.542   7.501  30.511  0.00  0.00    -0.082 HD
ATOM     26  C   UNL     1      11.234   5.434  30.040  0.00  0.00    -0.064 C 
ATOM     27  C   UNL     1      11.500   4.931  31.486  0.00  0.00    +0.066 C 
ENDBRANCH  19  20
ENDBRANCH  18  19
ENDBRANCH  14  15
ENDBRANCH  12  13
TORSDOF 6
ENDMDL
