MODEL 1
REMARK VINA RESULT:      -9.1      0.000      0.000
REMARK  Name = C:\Users\Docking\Desktop\test protocol\1iep_ligandH.pdb
REMARK  8 active torsions:
REMARK  status: ('A' for Active; 'I' for Inactive)
REMARK    1  A    between atoms: _5  and  _11
REMARK    2  A    between atoms: _19  and  _21
REMARK    3  A    between atoms: _22  and  _66
REMARK    4  A    between atoms: _27  and  _30
REMARK    5  A    between atoms: _32  and  _33
REMARK    6  A    between atoms: _38  and  _43
REMARK    7  A    between atoms: _43  and  _46
REMARK    8  A    between atoms: _53  and  _55
REMARK                            x       y       z     vdW  Elec       q    Type
REMARK                         _______ _______ _______ _____ _____    ______ ____
ROOT
ATOM     10  C   UNL     1       7.078  22.945  13.929  0.00  0.00    +0.038 A 
ATOM     11  C   UNL     1       7.046  23.571  12.657  0.00  0.00    +0.047 A 
ATOM     12  C   UNL     1       8.132  24.434  12.215  0.00  0.00    +0.035 A 
ATOM     32  C   UNL     1       9.236  24.634  13.095  0.00  0.00    +0.024 A 
ATOM     33  C   UNL     1       9.283  24.006  14.392  0.00  0.00    +0.007 A 
ATOM     34  C   UNL     1       8.214  23.157  14.833  0.00  0.00    -0.029 A 
ATOM     35  C   UNL     1       8.316  22.515  16.237  0.00  0.00    +0.045 C 
ENDROOT
BRANCH  10   9
ATOM      4  C   UNL     1       4.967  18.652  14.313  0.00  0.00    +0.077 A 
ATOM      5  C   UNL     1       6.076  17.985  13.695  0.00  0.00    +0.048 A 
ATOM      6  C   UNL     1       7.167  18.784  13.286  0.00  0.00    +0.116 A 
ATOM      7  N   UNL     1       7.140  20.147  13.485  0.00  0.00    -0.223 NA
ATOM      8  C   UNL     1       6.054  20.759  14.083  0.00  0.00    +0.220 A 
ATOM      9  N   UNL     1       6.009  22.127  14.301  0.00  0.00    -0.283 N 
ATOM     36  H   UNL     1       5.186  22.541  14.739  0.00  0.00    +0.155 HD
ATOM     37  N   UNL     1       4.999  20.018  14.482  0.00  0.00    -0.214 NA
BRANCH   4   3
ATOM      1  C   UNL     1       2.419  16.726  16.572  0.00  0.00    +0.020 A 
ATOM      2  C   UNL     1       3.625  17.400  16.149  0.00  0.00    +0.013 A 
ATOM      3  C   UNL     1       3.741  17.944  14.802  0.00  0.00    +0.019 A 
ATOM     38  C   UNL     1       2.610  17.789  13.900  0.00  0.00    +0.120 A 
ATOM     39  N   UNL     1       1.462  17.134  14.335  0.00  0.00    -0.263 NA
ATOM     40  C   UNL     1       1.339  16.605  15.628  0.00  0.00    +0.111 A 
ENDBRANCH   4   3
ENDBRANCH  10   9
BRANCH  12  13
ATOM     13  N   UNL     1       8.151  25.102  10.938  0.00  0.00    -0.281 N 
ATOM     14  C   UNL     1       7.503  26.273  10.580  0.00  0.00    +0.248 C 
ATOM     30  O   UNL     1       6.630  26.811  11.245  0.00  0.00    -0.270 OA
ATOM     31  H   UNL     1       8.711  24.659  10.210  0.00  0.00    +0.155 HD
BRANCH  14  15
ATOM     15  C   UNL     1       7.865  26.933   9.289  0.00  0.00    +0.037 A 
ATOM     16  C   UNL     1       6.862  27.169   8.248  0.00  0.00    +0.013 A 
ATOM     17  C   UNL     1       7.242  27.792   7.005  0.00  0.00    +0.005 A 
ATOM     18  C   UNL     1       8.633  28.186   6.797  0.00  0.00    -0.033 A 
ATOM     28  C   UNL     1       9.607  27.945   7.849  0.00  0.00    +0.005 A 
ATOM     29  C   UNL     1       9.238  27.333   9.068  0.00  0.00    +0.013 A 
BRANCH  18  19
ATOM     19  C   UNL     1       9.132  28.838   5.494  0.00  0.00    +0.119 C 
BRANCH  19  20
ATOM     20  N   UNL     1      10.440  28.365   4.950  0.00  0.00    -0.302 NA
ATOM     21  C   UNL     1      11.312  29.526   4.461  0.00  0.00    +0.066 C 
ATOM     22  C   UNL     1      12.686  29.015   3.917  0.00  0.00    -0.064 C 
ATOM     23  N   UNL     1      12.443  28.008   2.791  0.00  0.00    +0.379 N 
ATOM     24  C   UNL     1      13.733  27.570   2.238  0.00  0.00    -0.096 C 
ATOM     25  H   UNL     1      11.889  28.535   1.980  0.00  0.00    -0.082 HD
ATOM     26  C   UNL     1      11.575  26.853   3.268  0.00  0.00    -0.064 C 
ATOM     27  C   UNL     1      10.224  27.373   3.834  0.00  0.00    +0.066 C 
ENDBRANCH  19  20
ENDBRANCH  18  19
ENDBRANCH  14  15
ENDBRANCH  12  13
TORSDOF 6
ENDMDL
MODEL 2
REMARK VINA RESULT:      -8.6     10.755     15.653
REMARK  Name = C:\Users\Docking\Desktop\test protocol\1iep_ligandH.pdb
REMARK  8 active torsions:
REMARK  status: ('A' for Active; 'I' for Inactive)
REMARK    1  A    between atoms: _5  and  _11
REMARK    2  A    between atoms: _19  and  _21
REMARK    3  A    between atoms: _22  and  _66
REMARK    4  A    between atoms: _27  and  _30
REMARK    5  A    between atoms: _32  and  _33
REMARK    6  A    between atoms: _38  and  _43
REMARK    7  A    between atoms: _43  and  _46
REMARK    8  A    between atoms: _53  and  _55
REMARK                            x       y       z     vdW  Elec       q    Type
REMARK                         _______ _______ _______ _____ _____    ______ ____
ROOT
ATOM     10  C   UNL     1       5.747  12.714   2.410  0.00  0.00    +0.038 A 
ATOM     11  C   UNL     1       5.394  13.692   3.374  0.00  0.00    +0.047 A 
ATOM     12  C   UNL     1       5.271  13.350   4.782  0.00  0.00    +0.035 A 
ATOM     32  C   UNL     1       5.518  12.002   5.174  0.00  0.00    +0.024 A 
ATOM     33  C   UNL     1       5.877  10.995   4.207  0.00  0.00    +0.007 A 
ATOM     34  C   UNL     1       5.997  11.326   2.816  0.00  0.00    -0.029 A 
ATOM     35  C   UNL     1       6.379  10.204   1.823  0.00  0.00    +0.045 C 
ENDROOT
BRANCH  10   9
ATOM      4  C   UNL     1       8.280  14.238  -1.372  0.00  0.00    +0.077 A 
ATOM      5  C   UNL     1       9.493  14.301  -0.609  0.00  0.00    +0.048 A 
ATOM      6  C   UNL     1       9.421  13.940   0.755  0.00  0.00    +0.116 A 
ATOM      7  N   UNL     1       8.220  13.546   1.304  0.00  0.00    -0.223 NA
ATOM      8  C   UNL     1       7.068  13.498   0.541  0.00  0.00    +0.220 A 
ATOM      9  N   UNL     1       5.852  13.097   1.071  0.00  0.00    -0.283 N 
ATOM     36  H   UNL     1       5.023  13.082   0.476  0.00  0.00    +0.155 HD
ATOM     37  N   UNL     1       7.111  13.839  -0.764  0.00  0.00    -0.214 NA
BRANCH   4   3
ATOM      1  C   UNL     1       7.850  16.217  -4.719  0.00  0.00    +0.020 A 
ATOM      2  C   UNL     1       7.920  15.934  -3.304  0.00  0.00    +0.013 A 
ATOM      3  C   UNL     1       8.195  14.585  -2.826  0.00  0.00    +0.019 A 
ATOM     38  C   UNL     1       8.396  13.536  -3.814  0.00  0.00    +0.120 A 
ATOM     39  N   UNL     1       8.321  13.837  -5.170  0.00  0.00    -0.263 NA
ATOM     40  C   UNL     1       8.055  15.132  -5.642  0.00  0.00    +0.111 A 
ENDBRANCH   4   3
ENDBRANCH  10   9
BRANCH  12  13
ATOM     13  N   UNL     1       4.907  14.299   5.805  0.00  0.00    -0.281 N 
ATOM     14  C   UNL     1       3.659  14.506   6.370  0.00  0.00    +0.248 C 
ATOM     30  O   UNL     1       2.616  14.050   5.926  0.00  0.00    -0.270 OA
ATOM     31  H   UNL     1       5.661  14.890   6.156  0.00  0.00    +0.155 HD
BRANCH  14  15
ATOM     15  C   UNL     1       3.553  15.354   7.596  0.00  0.00    +0.037 A 
ATOM     16  C   UNL     1       4.338  15.055   8.797  0.00  0.00    +0.013 A 
ATOM     17  C   UNL     1       4.204  15.879   9.972  0.00  0.00    +0.005 A 
ATOM     18  C   UNL     1       3.281  17.011   9.951  0.00  0.00    -0.033 A 
ATOM     28  C   UNL     1       2.519  17.288   8.745  0.00  0.00    +0.005 A 
ATOM     29  C   UNL     1       2.646  16.482   7.592  0.00  0.00    +0.013 A 
BRANCH  18  19
ATOM     19  C   UNL     1       3.059  17.931  11.166  0.00  0.00    +0.119 C 
BRANCH  19  20
ATOM     20  N   UNL     1       4.250  18.653  11.705  0.00  0.00    -0.302 NA
ATOM     21  C   UNL     1       4.531  18.289  13.165  0.00  0.00    +0.066 C 
ATOM     22  C   UNL     1       5.794  19.036  13.705  0.00  0.00    -0.064 C 
ATOM     23  N   UNL     1       5.595  20.545  13.552  0.00  0.00    +0.379 N 
ATOM     24  C   UNL     1       6.756  21.252  14.112  0.00  0.00    -0.096 C 
ATOM     25  H   UNL     1       4.701  20.831  14.155  0.00  0.00    -0.082 HD
ATOM     26  C   UNL     1       5.312  20.916  12.103  0.00  0.00    -0.064 C 
ATOM     27  C   UNL     1       4.073  20.146  11.567  0.00  0.00    +0.066 C 
ENDBRANCH  19  20
ENDBRANCH  18  19
ENDBRANCH  14  15
ENDBRANCH  12  13
TORSDOF 6
ENDMDL
MODEL 3
REMARK VINA RESULT:      -8.5      1.870     13.391
REMARK  Name = C:\Users\Docking\Desktop\test protocol\1iep_ligandH.pdb
REMARK  8 active torsions:
REMARK  status: ('A' for Active; 'I' for Inactive)
REMARK    1  A    between atoms: _5  and  _11
REMARK    2  A    between atoms: _19  and  _21
REMARK    3  A    between atoms: _22  and  _66
REMARK    4  A    between atoms: _27  and  _30
REMARK    5  A    between atoms: _32  and  _33
REMARK    6  A    between atoms: _38  and  _43
REMARK    7  A    between atoms: _43  and  _46
REMARK    8  A    between atoms: _53  and  _55
REMARK                            x       y       z     vdW  Elec       q    Type
REMARK                         _______ _______ _______ _____ _____    ______ ____
ROOT
ATOM     10  C   UNL     1      10.030  28.540   7.860  0.00  0.00    +0.038 A 
ATOM     11  C   UNL     1       9.751  27.367   8.607  0.00  0.00    +0.047 A 
ATOM     12  C   UNL     1       8.815  27.388   9.720  0.00  0.00    +0.035 A 
ATOM     32  C   UNL     1       8.178  28.622  10.044  0.00  0.00    +0.024 A 
ATOM     33  C   UNL     1       8.451  29.824   9.296  0.00  0.00    +0.007 A 
ATOM     34  C   UNL     1       9.376  29.810   8.199  0.00  0.00    -0.029 A 
ATOM     35  C   UNL     1       9.635  31.130   7.437  0.00  0.00    +0.045 C 
ENDROOT
BRANCH  10   9
ATOM      4  C   UNL     1      11.065  28.020   3.202  0.00  0.00    +0.077 A 
ATOM      5  C   UNL     1       9.683  27.863   2.852  0.00  0.00    +0.048 A 
ATOM      6  C   UNL     1       8.737  27.915   3.901  0.00  0.00    +0.116 A 
ATOM      7  N   UNL     1       9.155  28.111   5.200  0.00  0.00    -0.223 NA
ATOM      8  C   UNL     1      10.496  28.257   5.503  0.00  0.00    +0.220 A 
ATOM      9  N   UNL     1      10.938  28.462   6.801  0.00  0.00    -0.283 N 
ATOM     36  H   UNL     1      11.936  28.558   6.985  0.00  0.00    +0.155 HD
ATOM     37  N   UNL     1      11.418  28.209   4.520  0.00  0.00    -0.214 NA
BRANCH   4   3
ATOM      1  C   UNL     1      14.104  26.854   1.034  0.00  0.00    +0.020 A 
ATOM      2  C   UNL     1      13.040  26.830   2.010  0.00  0.00    +0.013 A 
ATOM      3  C   UNL     1      12.182  27.992   2.206  0.00  0.00    +0.019 A 
ATOM     38  C   UNL     1      12.429  29.171   1.390  0.00  0.00    +0.120 A 
ATOM     39  N   UNL     1      13.462  29.166   0.459  0.00  0.00    -0.263 NA
ATOM     40  C   UNL     1      14.296  28.054   0.263  0.00  0.00    +0.111 A 
ENDBRANCH   4   3
ENDBRANCH  10   9
BRANCH  12  13
ATOM     13  N   UNL     1       8.498  26.231  10.519  0.00  0.00    -0.281 N 
ATOM     14  C   UNL     1       7.382  25.414  10.430  0.00  0.00    +0.248 C 
ATOM     30  O   UNL     1       6.378  25.683   9.787  0.00  0.00    -0.270 OA
ATOM     31  H   UNL     1       9.179  25.983  11.237  0.00  0.00    +0.155 HD
BRANCH  14  15
ATOM     15  C   UNL     1       7.375  24.118  11.175  0.00  0.00    +0.037 A 
ATOM     16  C   UNL     1       8.460  23.763  12.093  0.00  0.00    +0.013 A 
ATOM     17  C   UNL     1       8.437  22.499  12.786  0.00  0.00    +0.005 A 
ATOM     18  C   UNL     1       7.323  21.581  12.564  0.00  0.00    -0.033 A 
ATOM     28  C   UNL     1       6.256  21.961  11.652  0.00  0.00    +0.005 A 
ATOM     29  C   UNL     1       6.276  23.199  10.970  0.00  0.00    +0.013 A 
BRANCH  18  19
ATOM     19  C   UNL     1       7.226  20.203  13.244  0.00  0.00    +0.119 C 
BRANCH  19  20
ATOM     20  N   UNL     1       6.000  19.922  14.049  0.00  0.00    -0.302 NA
ATOM     21  C   UNL     1       5.981  20.710  15.362  0.00  0.00    +0.066 C 
ATOM     22  C   UNL     1       4.681  20.421  16.180  0.00  0.00    -0.064 C 
ATOM     23  N   UNL     1       4.573  18.919  16.449  0.00  0.00    +0.379 N 
ATOM     24  C   UNL     1       3.382  18.651  17.268  0.00  0.00    -0.096 C 
ATOM     25  H   UNL     1       5.467  18.617  17.043  0.00  0.00    -0.082 HD
ATOM     26  C   UNL     1       4.594  18.128  15.149  0.00  0.00    -0.064 C 
ATOM     27  C   UNL     1       5.876  18.444  14.329  0.00  0.00    +0.066 C 
ENDBRANCH  19  20
ENDBRANCH  18  19
ENDBRANCH  14  15
ENDBRANCH  12  13
TORSDOF 6
ENDMDL
MODEL 4
REMARK VINA RESULT:      -8.4     15.517     20.833
REMARK  Name = C:\Users\Docking\Desktop\test protocol\1iep_ligandH.pdb
REMARK  8 active torsions:
REMARK  status: ('A' for Active; 'I' for Inactive)
REMARK    1  A    between atoms: _5  and  _11
REMARK    2  A    between atoms: _19  and  _21
REMARK    3  A    between atoms: _22  and  _66
REMARK    4  A    between atoms: _27  and  _30
REMARK    5  A    between atoms: _32  and  _33
REMARK    6  A    between atoms: _38  and  _43
REMARK    7  A    between atoms: _43  and  _46
REMARK    8  A    between atoms: _53  and  _55
REMARK                            x       y       z     vdW  Elec       q    Type
REMARK                         _______ _______ _______ _____ _____    ______ ____
ROOT
ATOM     10  C   UNL     1      17.595  16.094  17.266  0.00  0.00    +0.038 A 
ATOM     11  C   UNL     1      18.292  15.737  18.448  0.00  0.00    +0.047 A 
ATOM     12  C   UNL     1      18.101  16.477  19.686  0.00  0.00    +0.035 A 
ATOM     32  C   UNL     1      17.191  17.574  19.684  0.00  0.00    +0.024 A 
ATOM     33  C   UNL     1      16.475  17.951  18.491  0.00  0.00    +0.007 A 
ATOM     34  C   UNL     1      16.661  17.226  17.266  0.00  0.00    -0.029 A 
ATOM     35  C   UNL     1      15.872  17.679  16.016  0.00  0.00    +0.045 C 
ENDROOT
BRANCH  10   9
ATOM      4  C   UNL     1      16.944  12.185  14.557  0.00  0.00    +0.077 A 
ATOM      5  C   UNL     1      16.115  11.563  15.550  0.00  0.00    +0.048 A 
ATOM      6  C   UNL     1      15.887  12.279  16.746  0.00  0.00    +0.116 A 
ATOM      7  N   UNL     1      16.450  13.524  16.926  0.00  0.00    -0.223 NA
ATOM      8  C   UNL     1      17.246  14.095  15.949  0.00  0.00    +0.220 A 
ATOM      9  N   UNL     1      17.816  15.349  16.105  0.00  0.00    -0.283 N 
ATOM     36  H   UNL     1      18.403  15.731  15.364  0.00  0.00    +0.155 HD
ATOM     37  N   UNL     1      17.480  13.430  14.798  0.00  0.00    -0.214 NA
BRANCH   4   3
ATOM      1  C   UNL     1      17.998  11.670  10.826  0.00  0.00    +0.020 A 
ATOM      2  C   UNL     1      17.690  12.327  12.075  0.00  0.00    +0.013 A 
ATOM      3  C   UNL     1      17.275  11.556  13.240  0.00  0.00    +0.019 A 
ATOM     38  C   UNL     1      17.183  10.109  13.106  0.00  0.00    +0.120 A 
ATOM     39  N   UNL     1      17.486   9.505  11.890  0.00  0.00    -0.263 NA
ATOM     40  C   UNL     1      17.884  10.237  10.762  0.00  0.00    +0.111 A 
ENDBRANCH   4   3
ENDBRANCH  10   9
BRANCH  12  13
ATOM     13  N   UNL     1      18.787  16.166  20.916  0.00  0.00    -0.281 N 
ATOM     14  C   UNL     1      19.082  14.915  21.434  0.00  0.00    +0.248 C 
ATOM     30  O   UNL     1      18.609  13.867  21.020  0.00  0.00    -0.270 OA
ATOM     31  H   UNL     1      19.092  16.964  21.472  0.00  0.00    +0.155 HD
BRANCH  14  15
ATOM     15  C   UNL     1      20.027  14.816  22.587  0.00  0.00    +0.037 A 
ATOM     16  C   UNL     1      20.469  13.515  23.098  0.00  0.00    +0.013 A 
ATOM     17  C   UNL     1      21.368  13.448  24.223  0.00  0.00    +0.005 A 
ATOM     18  C   UNL     1      21.832  14.686  24.844  0.00  0.00    -0.033 A 
ATOM     28  C   UNL     1      21.382  15.962  24.314  0.00  0.00    +0.005 A 
ATOM     29  C   UNL     1      20.501  16.032  23.212  0.00  0.00    +0.013 A 
BRANCH  18  19
ATOM     19  C   UNL     1      22.775  14.708  26.061  0.00  0.00    +0.119 C 
BRANCH  19  20
ATOM     20  N   UNL     1      22.256  14.137  27.340  0.00  0.00    -0.302 NA
ATOM     21  C   UNL     1      21.555  15.194  28.198  0.00  0.00    +0.066 C 
ATOM     22  C   UNL     1      20.998  14.575  29.521  0.00  0.00    -0.064 C 
ATOM     23  N   UNL     1      22.142  13.919  30.296  0.00  0.00    +0.379 N 
ATOM     24  C   UNL     1      21.632  13.386  31.568  0.00  0.00    -0.096 C 
ATOM     25  H   UNL     1      22.887  14.713  30.536  0.00  0.00    -0.082 HD
ATOM     26  C   UNL     1      22.846  12.868  29.448  0.00  0.00    -0.064 C 
ATOM     27  C   UNL     1      23.370  13.488  28.123  0.00  0.00    +0.066 C 
ENDBRANCH  19  20
ENDBRANCH  18  19
ENDBRANCH  14  15
ENDBRANCH  12  13
TORSDOF 6
ENDMDL
MODEL 5
REMARK VINA RESULT:      -8.4     14.004     16.883
REMARK  Name = C:\Users\Docking\Desktop\test protocol\1iep_ligandH.pdb
REMARK  8 active torsions:
REMARK  status: ('A' for Active; 'I' for Inactive)
REMARK    1  A    between atoms: _5  and  _11
REMARK    2  A    between atoms: _19  and  _21
REMARK    3  A    between atoms: _22  and  _66
REMARK    4  A    between atoms: _27  and  _30
REMARK    5  A    between atoms: _32  and  _33
REMARK    6  A    between atoms: _38  and  _43
REMARK    7  A    between atoms: _43  and  _46
REMARK    8  A    between atoms: _53  and  _55
REMARK                            x       y       z     vdW  Elec       q    Type
REMARK                         _______ _______ _______ _____ _____    ______ ____
ROOT
ATOM     10  C   UNL     1      17.613  23.398  22.478  0.00  0.00    +0.038 A 
ATOM     11  C   UNL     1      17.253  22.262  21.708  0.00  0.00    +0.047 A 
ATOM     12  C   UNL     1      18.260  21.469  21.021  0.00  0.00    +0.035 A 
ATOM     32  C   UNL     1      19.626  21.859  21.142  0.00  0.00    +0.024 A 
ATOM     33  C   UNL     1      20.009  23.011  21.920  0.00  0.00    +0.007 A 
ATOM     34  C   UNL     1      19.020  23.799  22.597  0.00  0.00    -0.029 A 
ATOM     35  C   UNL     1      19.488  25.027  23.412  0.00  0.00    +0.045 C 
ENDROOT
BRANCH  10   9
ATOM      4  C   UNL     1      14.641  24.170  26.167  0.00  0.00    +0.077 A 
ATOM      5  C   UNL     1      15.118  23.014  26.870  0.00  0.00    +0.048 A 
ATOM      6  C   UNL     1      16.124  22.243  26.244  0.00  0.00    +0.116 A 
ATOM      7  N   UNL     1      16.609  22.611  25.008  0.00  0.00    -0.223 NA
ATOM      8  C   UNL     1      16.126  23.731  24.356  0.00  0.00    +0.220 A 
ATOM      9  N   UNL     1      16.605  24.124  23.116  0.00  0.00    -0.283 N 
ATOM     36  H   UNL     1      16.217  24.952  22.665  0.00  0.00    +0.155 HD
ATOM     37  N   UNL     1      15.164  24.482  24.932  0.00  0.00    -0.214 NA
BRANCH   4   3
ATOM      1  C   UNL     1      11.375  26.293  26.521  0.00  0.00    +0.020 A 
ATOM      2  C   UNL     1      12.365  25.402  25.962  0.00  0.00    +0.013 A 
ATOM      3  C   UNL     1      13.583  25.086  26.698  0.00  0.00    +0.019 A 
ATOM     38  C   UNL     1      13.769  25.692  28.008  0.00  0.00    +0.120 A 
ATOM     39  N   UNL     1      12.798  26.548  28.520  0.00  0.00    -0.263 NA
ATOM     40  C   UNL     1      11.623  26.860  27.820  0.00  0.00    +0.111 A 
ENDBRANCH   4   3
ENDBRANCH  10   9
BRANCH  12  13
ATOM     13  N   UNL     1      17.954  20.311  20.218  0.00  0.00    -0.281 N 
ATOM     14  C   UNL     1      17.020  20.203  19.200  0.00  0.00    +0.248 C 
ATOM     30  O   UNL     1      16.153  21.032  18.967  0.00  0.00    -0.270 OA
ATOM     31  H   UNL     1      18.490  19.468  20.426  0.00  0.00    +0.155 HD
BRANCH  14  15
ATOM     15  C   UNL     1      17.045  18.993  18.323  0.00  0.00    +0.037 A 
ATOM     16  C   UNL     1      18.217  18.116  18.271  0.00  0.00    +0.013 A 
ATOM     17  C   UNL     1      18.221  16.965  17.404  0.00  0.00    +0.005 A 
ATOM     18  C   UNL     1      17.047  16.683  16.582  0.00  0.00    -0.033 A 
ATOM     28  C   UNL     1      15.896  17.567  16.656  0.00  0.00    +0.005 A 
ATOM     29  C   UNL     1      15.888  18.697  17.505  0.00  0.00    +0.013 A 
BRANCH  18  19
ATOM     19  C   UNL     1      16.972  15.489  15.612  0.00  0.00    +0.119 C 
BRANCH  19  20
ATOM     20  N   UNL     1      17.154  14.125  16.191  0.00  0.00    -0.302 NA
ATOM     21  C   UNL     1      18.450  13.466  15.712  0.00  0.00    +0.066 C 
ATOM     22  C   UNL     1      18.636  12.049  16.346  0.00  0.00    -0.064 C 
ATOM     23  N   UNL     1      17.427  11.177  16.003  0.00  0.00    +0.379 N 
ATOM     24  C   UNL     1      17.625   9.826  16.548  0.00  0.00    -0.096 C 
ATOM     25  H   UNL     1      17.377  11.090  14.893  0.00  0.00    -0.082 HD
ATOM     26  C   UNL     1      16.133  11.827  16.474  0.00  0.00    -0.064 C 
ATOM     27  C   UNL     1      15.973  13.246  15.862  0.00  0.00    +0.066 C 
ENDBRANCH  19  20
ENDBRANCH  18  19
ENDBRANCH  14  15
ENDBRANCH  12  13
TORSDOF 6
ENDMDL
