MODEL 1
REMARK VINA RESULT:      -8.2      0.000      0.000
REMARK  Name = C:\Users\Docking\Desktop\test protocol\1iep_ligandH.pdb
REMARK  8 active torsions:
REMARK  status: ('A' for Active; 'I' for Inactive)
REMARK    1  A    between atoms: _5  and  _11
REMARK    2  A    between atoms: _19  and  _21
REMARK    3  A    between atoms: _22  and  _66
REMARK    4  A    between atoms: _27  and  _30
REMARK    5  A    between atoms: _32  and  _33
REMARK    6  A    between atoms: _38  and  _43
REMARK    7  A    between atoms: _43  and  _46
REMARK    8  A    between atoms: _53  and  _55
REMARK                            x       y       z     vdW  Elec       q    Type
REMARK                         _______ _______ _______ _____ _____    ______ ____
ROOT
ATOM     10  C   UNL     1       9.990   2.484 -12.464  0.00  0.00    +0.038 A 
ATOM     11  C   UNL     1      10.269   3.503 -13.411  0.00  0.00    +0.047 A 
ATOM     12  C   UNL     1       9.737   3.440 -14.763  0.00  0.00    +0.035 A 
ATOM     32  C   UNL     1       8.923   2.325 -15.117  0.00  0.00    +0.024 A 
ATOM     33  C   UNL     1       8.630   1.280 -14.168  0.00  0.00    +0.007 A 
ATOM     34  C   UNL     1       9.154   1.336 -12.834  0.00  0.00    -0.029 A 
ATOM     35  C   UNL     1       8.813   0.184 -11.860  0.00  0.00    +0.045 C 
ENDROOT
BRANCH  10   9
ATOM      4  C   UNL     1       9.850   4.091  -7.944  0.00  0.00    +0.077 A 
ATOM      5  C   UNL     1       8.618   4.790  -8.168  0.00  0.00    +0.048 A 
ATOM      6  C   UNL     1       8.056   4.717  -9.463  0.00  0.00    +0.116 A 
ATOM      7  N   UNL     1       8.689   3.995 -10.452  0.00  0.00    -0.223 NA
ATOM      8  C   UNL     1       9.877   3.334 -10.202  0.00  0.00    +0.220 A 
ATOM      9  N   UNL     1      10.527   2.595 -11.180  0.00  0.00    -0.283 N 
ATOM     36  H   UNL     1      11.406   2.128 -10.958  0.00  0.00    +0.155 HD
ATOM     37  N   UNL     1      10.435   3.390  -8.975  0.00  0.00    -0.214 NA
BRANCH   4   3
ATOM      1  C   UNL     1      12.627   3.757  -5.209  0.00  0.00    +0.020 A 
ATOM      2  C   UNL     1      11.984   3.762  -6.503  0.00  0.00    +0.013 A 
ATOM      3  C   UNL     1      10.565   4.071  -6.629  0.00  0.00    +0.019 A 
ATOM     38  C   UNL     1       9.820   4.373  -5.416  0.00  0.00    +0.120 A 
ATOM     39  N   UNL     1      10.465   4.359  -4.184  0.00  0.00    -0.263 NA
ATOM     40  C   UNL     1      11.830   4.061  -4.050  0.00  0.00    +0.111 A 
ENDBRANCH   4   3
ENDBRANCH  10   9
BRANCH  12  13
ATOM     13  N   UNL     1       9.993   4.440 -15.769  0.00  0.00    -0.281 N 
ATOM     14  C   UNL     1       9.072   5.105 -16.563  0.00  0.00    +0.248 C 
ATOM     30  O   UNL     1       7.899   4.784 -16.677  0.00  0.00    -0.270 OA
ATOM     31  H   UNL     1      10.972   4.689 -15.914  0.00  0.00    +0.155 HD
BRANCH  14  15
ATOM     15  C   UNL     1       9.524   6.290 -17.355  0.00  0.00    +0.037 A 
ATOM     16  C   UNL     1      10.947   6.590 -17.528  0.00  0.00    +0.013 A 
ATOM     17  C   UNL     1      11.355   7.749 -18.283  0.00  0.00    +0.005 A 
ATOM     18  C   UNL     1      10.336   8.616 -18.871  0.00  0.00    -0.033 A 
ATOM     28  C   UNL     1       8.931   8.291 -18.687  0.00  0.00    +0.005 A 
ATOM     29  C   UNL     1       8.528   7.157 -17.948  0.00  0.00    +0.013 A 
BRANCH  18  19
ATOM     19  C   UNL     1      10.680   9.885 -19.673  0.00  0.00    +0.119 C 
BRANCH  19  20
ATOM     20  N   UNL     1       9.947  11.137 -19.319  0.00  0.00    -0.302 NA
ATOM     21  C   UNL     1      10.299  12.293 -20.259  0.00  0.00    +0.066 C 
ATOM     22  C   UNL     1       9.506  13.589 -19.888  0.00  0.00    -0.064 C 
ATOM     23  N   UNL     1       9.799  13.964 -18.434  0.00  0.00    +0.379 N 
ATOM     24  C   UNL     1       9.101  15.214 -18.100  0.00  0.00    -0.096 C 
ATOM     25  H   UNL     1      10.894  14.154 -18.348  0.00  0.00    -0.082 HD
ATOM     26  C   UNL     1       9.454  12.818 -17.493  0.00  0.00    -0.064 C 
ATOM     27  C   UNL     1      10.225  11.528 -17.889  0.00  0.00    +0.066 C 
ENDBRANCH  19  20
ENDBRANCH  18  19
ENDBRANCH  14  15
ENDBRANCH  12  13
TORSDOF 6
ENDMDL
MODEL 2
REMARK VINA RESULT:      -8.2      1.235      1.682
REMARK  Name = C:\Users\Docking\Desktop\test protocol\1iep_ligandH.pdb
REMARK  8 active torsions:
REMARK  status: ('A' for Active; 'I' for Inactive)
REMARK    1  A    between atoms: _5  and  _11
REMARK    2  A    between atoms: _19  and  _21
REMARK    3  A    between atoms: _22  and  _66
REMARK    4  A    between atoms: _27  and  _30
REMARK    5  A    between atoms: _32  and  _33
REMARK    6  A    between atoms: _38  and  _43
REMARK    7  A    between atoms: _43  and  _46
REMARK    8  A    between atoms: _53  and  _55
REMARK                            x       y       z     vdW  Elec       q    Type
REMARK                         _______ _______ _______ _____ _____    ______ ____
ROOT
ATOM     10  C   UNL     1       9.908   2.460 -12.581  0.00  0.00    +0.038 A 
ATOM     11  C   UNL     1      10.228   3.481 -13.513  0.00  0.00    +0.047 A 
ATOM     12  C   UNL     1       9.701   3.454 -14.868  0.00  0.00    +0.035 A 
ATOM     32  C   UNL     1       8.850   2.374 -15.241  0.00  0.00    +0.024 A 
ATOM     33  C   UNL     1       8.516   1.327 -14.308  0.00  0.00    +0.007 A 
ATOM     34  C   UNL     1       9.034   1.347 -12.970  0.00  0.00    -0.029 A 
ATOM     35  C   UNL     1       8.648   0.194 -12.013  0.00  0.00    +0.045 C 
ENDROOT
BRANCH  10   9
ATOM      4  C   UNL     1       9.888   4.137  -8.084  0.00  0.00    +0.077 A 
ATOM      5  C   UNL     1       8.734   4.952  -8.330  0.00  0.00    +0.048 A 
ATOM      6  C   UNL     1       8.179   4.917  -9.630  0.00  0.00    +0.116 A 
ATOM      7  N   UNL     1       8.746   4.122 -10.602  0.00  0.00    -0.223 NA
ATOM      8  C   UNL     1       9.860   3.349 -10.332  0.00  0.00    +0.220 A 
ATOM      9  N   UNL     1      10.441   2.536 -11.293  0.00  0.00    -0.283 N 
ATOM     36  H   UNL     1      11.267   1.986 -11.056  0.00  0.00    +0.155 HD
ATOM     37  N   UNL     1      10.409   3.366  -9.099  0.00  0.00    -0.214 NA
BRANCH   4   3
ATOM      1  C   UNL     1      12.642   3.765  -5.331  0.00  0.00    +0.020 A 
ATOM      2  C   UNL     1      12.018   3.825  -6.633  0.00  0.00    +0.013 A 
ATOM      3  C   UNL     1      10.586   4.064  -6.761  0.00  0.00    +0.019 A 
ATOM     38  C   UNL     1       9.808   4.241  -5.544  0.00  0.00    +0.120 A 
ATOM     39  N   UNL     1      10.437   4.176  -4.304  0.00  0.00    -0.263 NA
ATOM     40  C   UNL     1      11.814   3.944  -4.168  0.00  0.00    +0.111 A 
ENDBRANCH   4   3
ENDBRANCH  10   9
BRANCH  12  13
ATOM     13  N   UNL     1       9.997   4.459 -15.860  0.00  0.00    -0.281 N 
ATOM     14  C   UNL     1       9.106   5.270 -16.543  0.00  0.00    +0.248 C 
ATOM     30  O   UNL     1       7.895   5.105 -16.560  0.00  0.00    -0.270 OA
ATOM     31  H   UNL     1      10.984   4.587 -16.085  0.00  0.00    +0.155 HD
BRANCH  14  15
ATOM     15  C   UNL     1       9.637   6.422 -17.333  0.00  0.00    +0.037 A 
ATOM     16  C   UNL     1      11.077   6.601 -17.542  0.00  0.00    +0.013 A 
ATOM     17  C   UNL     1      11.563   7.730 -18.293  0.00  0.00    +0.005 A 
ATOM     18  C   UNL     1      10.609   8.690 -18.843  0.00  0.00    -0.033 A 
ATOM     28  C   UNL     1       9.186   8.485 -18.625  0.00  0.00    +0.005 A 
ATOM     29  C   UNL     1       8.705   7.380 -17.888  0.00  0.00    +0.013 A 
BRANCH  18  19
ATOM     19  C   UNL     1      11.040   9.935 -19.640  0.00  0.00    +0.119 C 
BRANCH  19  20
ATOM     20  N   UNL     1      10.087  10.454 -20.666  0.00  0.00    -0.302 NA
ATOM     21  C   UNL     1      10.750  10.611 -22.038  0.00  0.00    +0.066 C 
ATOM     22  C   UNL     1       9.734  11.134 -23.104  0.00  0.00    -0.064 C 
ATOM     23  N   UNL     1       9.142  12.463 -22.633  0.00  0.00    +0.379 N 
ATOM     24  C   UNL     1       8.229  12.985 -23.661  0.00  0.00    -0.096 C 
ATOM     25  H   UNL     1       9.982  13.188 -22.527  0.00  0.00    -0.082 HD
ATOM     26  C   UNL     1       8.483  12.316 -21.269  0.00  0.00    -0.064 C 
ATOM     27  C   UNL     1       9.494  11.769 -20.223  0.00  0.00    +0.066 C 
ENDBRANCH  19  20
ENDBRANCH  18  19
ENDBRANCH  14  15
ENDBRANCH  12  13
TORSDOF 6
ENDMDL
MODEL 3
REMARK VINA RESULT:      -8.1      1.946      2.560
REMARK  Name = C:\Users\Docking\Desktop\test protocol\1iep_ligandH.pdb
REMARK  8 active torsions:
REMARK  status: ('A' for Active; 'I' for Inactive)
REMARK    1  A    between atoms: _5  and  _11
REMARK    2  A    between atoms: _19  and  _21
REMARK    3  A    between atoms: _22  and  _66
REMARK    4  A    between atoms: _27  and  _30
REMARK    5  A    between atoms: _32  and  _33
REMARK    6  A    between atoms: _38  and  _43
REMARK    7  A    between atoms: _43  and  _46
REMARK    8  A    between atoms: _53  and  _55
REMARK                            x       y       z     vdW  Elec       q    Type
REMARK                         _______ _______ _______ _____ _____    ______ ____
ROOT
ATOM     10  C   UNL     1      10.344   1.669 -10.629  0.00  0.00    +0.038 A 
ATOM     11  C   UNL     1      10.522   2.780 -11.494  0.00  0.00    +0.047 A 
ATOM     12  C   UNL     1       9.790   2.883 -12.746  0.00  0.00    +0.035 A 
ATOM     32  C   UNL     1       8.882   1.838 -13.087  0.00  0.00    +0.024 A 
ATOM     33  C   UNL     1       8.689   0.702 -12.221  0.00  0.00    +0.007 A 
ATOM     34  C   UNL     1       9.410   0.593 -10.985  0.00  0.00    -0.029 A 
ATOM     35  C   UNL     1       9.169  -0.651 -10.098  0.00  0.00    +0.045 C 
ENDROOT
BRANCH  10   9
ATOM      4  C   UNL     1      11.096   2.974  -6.072  0.00  0.00    +0.077 A 
ATOM      5  C   UNL     1       9.957   3.847  -6.072  0.00  0.00    +0.048 A 
ATOM      6  C   UNL     1       9.208   3.936  -7.267  0.00  0.00    +0.116 A 
ATOM      7  N   UNL     1       9.580   3.204  -8.373  0.00  0.00    -0.223 NA
ATOM      8  C   UNL     1      10.685   2.373  -8.340  0.00  0.00    +0.220 A 
ATOM      9  N   UNL     1      11.072   1.621  -9.439  0.00  0.00    -0.283 N 
ATOM     36  H   UNL     1      11.898   1.026  -9.377  0.00  0.00    +0.155 HD
ATOM     37  N   UNL     1      11.417   2.271  -7.212  0.00  0.00    -0.214 NA
BRANCH   4   3
ATOM      1  C   UNL     1      13.614   3.593  -3.143  0.00  0.00    +0.020 A 
ATOM      2  C   UNL     1      12.772   3.843  -4.290  0.00  0.00    +0.013 A 
ATOM      3  C   UNL     1      11.985   2.770  -4.885  0.00  0.00    +0.019 A 
ATOM     38  C   UNL     1      12.073   1.445  -4.290  0.00  0.00    +0.120 A 
ATOM     39  N   UNL     1      12.894   1.233  -3.187  0.00  0.00    -0.263 NA
ATOM     40  C   UNL     1      13.657   2.258  -2.607  0.00  0.00    +0.111 A 
ENDBRANCH   4   3
ENDBRANCH  10   9
BRANCH  12  13
ATOM     13  N   UNL     1       9.936   3.983 -13.668  0.00  0.00    -0.281 N 
ATOM     14  C   UNL     1      10.044   3.929 -15.048  0.00  0.00    +0.248 C 
ATOM     30  O   UNL     1      10.247   2.907 -15.686  0.00  0.00    -0.270 OA
ATOM     31  H   UNL     1       9.962   4.914 -13.252  0.00  0.00    +0.155 HD
BRANCH  14  15
ATOM     15  C   UNL     1       9.923   5.196 -15.831  0.00  0.00    +0.037 A 
ATOM     16  C   UNL     1      10.746   5.436 -17.020  0.00  0.00    +0.013 A 
ATOM     17  C   UNL     1      10.621   6.674 -17.748  0.00  0.00    +0.005 A 
ATOM     18  C   UNL     1       9.668   7.682 -17.289  0.00  0.00    -0.033 A 
ATOM     28  C   UNL     1       8.861   7.415 -16.110  0.00  0.00    +0.005 A 
ATOM     29  C   UNL     1       8.981   6.204 -15.393  0.00  0.00    +0.013 A 
BRANCH  18  19
ATOM     19  C   UNL     1       9.484   9.040 -17.992  0.00  0.00    +0.119 C 
BRANCH  19  20
ATOM     20  N   UNL     1       8.680  10.076 -17.277  0.00  0.00    -0.302 NA
ATOM     21  C   UNL     1       7.491  10.557 -18.114  0.00  0.00    +0.066 C 
ATOM     22  C   UNL     1       6.647  11.624 -17.342  0.00  0.00    -0.064 C 
ATOM     23  N   UNL     1       7.547  12.798 -16.954  0.00  0.00    +0.379 N 
ATOM     24  C   UNL     1       6.745  13.829 -16.280  0.00  0.00    -0.096 C 
ATOM     25  H   UNL     1       7.948  13.242 -17.895  0.00  0.00    -0.082 HD
ATOM     26  C   UNL     1       8.734  12.328 -16.125  0.00  0.00    -0.064 C 
ATOM     27  C   UNL     1       9.548  11.247 -16.889  0.00  0.00    +0.066 C 
ENDBRANCH  19  20
ENDBRANCH  18  19
ENDBRANCH  14  15
ENDBRANCH  12  13
TORSDOF 6
ENDMDL
MODEL 4
REMARK VINA RESULT:      -7.9      5.774     12.185
REMARK  Name = C:\Users\Docking\Desktop\test protocol\1iep_ligandH.pdb
REMARK  8 active torsions:
REMARK  status: ('A' for Active; 'I' for Inactive)
REMARK    1  A    between atoms: _5  and  _11
REMARK    2  A    between atoms: _19  and  _21
REMARK    3  A    between atoms: _22  and  _66
REMARK    4  A    between atoms: _27  and  _30
REMARK    5  A    between atoms: _32  and  _33
REMARK    6  A    between atoms: _38  and  _43
REMARK    7  A    between atoms: _43  and  _46
REMARK    8  A    between atoms: _53  and  _55
REMARK                            x       y       z     vdW  Elec       q    Type
REMARK                         _______ _______ _______ _____ _____    ______ ____
ROOT
ATOM     10  C   UNL     1       9.688   2.508 -13.639  0.00  0.00    +0.038 A 
ATOM     11  C   UNL     1       8.851   1.470 -14.123  0.00  0.00    +0.047 A 
ATOM     12  C   UNL     1       8.360   0.425 -13.239  0.00  0.00    +0.035 A 
ATOM     32  C   UNL     1       8.738   0.469 -11.865  0.00  0.00    +0.024 A 
ATOM     33  C   UNL     1       9.588   1.516 -11.356  0.00  0.00    +0.007 A 
ATOM     34  C   UNL     1      10.078   2.549 -12.224  0.00  0.00    -0.029 A 
ATOM     35  C   UNL     1      10.992   3.643 -11.625  0.00  0.00    +0.045 C 
ENDROOT
BRANCH  10   9
ATOM      4  C   UNL     1       8.897   6.164 -16.646  0.00  0.00    +0.077 A 
ATOM      5  C   UNL     1       7.479   6.103 -16.441  0.00  0.00    +0.048 A 
ATOM      6  C   UNL     1       6.992   5.112 -15.560  0.00  0.00    +0.116 A 
ATOM      7  N   UNL     1       7.869   4.252 -14.935  0.00  0.00    -0.223 NA
ATOM      8  C   UNL     1       9.231   4.336 -15.156  0.00  0.00    +0.220 A 
ATOM      9  N   UNL     1      10.131   3.486 -14.532  0.00  0.00    -0.283 N 
ATOM     36  H   UNL     1      11.128   3.576 -14.728  0.00  0.00    +0.155 HD
ATOM     37  N   UNL     1       9.720   5.273 -15.995  0.00  0.00    -0.214 NA
BRANCH   4   3
ATOM      1  C   UNL     1      11.599   8.174 -18.636  0.00  0.00    +0.020 A 
ATOM      2  C   UNL     1      11.006   7.194 -17.757  0.00  0.00    +0.013 A 
ATOM      3  C   UNL     1       9.564   7.158 -17.546  0.00  0.00    +0.019 A 
ATOM     38  C   UNL     1       8.744   8.135 -18.247  0.00  0.00    +0.120 A 
ATOM     39  N   UNL     1       9.344   9.069 -19.086  0.00  0.00    -0.263 NA
ATOM     40  C   UNL     1      10.730   9.114 -19.296  0.00  0.00    +0.111 A 
ENDBRANCH   4   3
ENDBRANCH  10   9
BRANCH  12  13
ATOM     13  N   UNL     1       7.514  -0.658 -13.676  0.00  0.00    -0.281 N 
ATOM     14  C   UNL     1       6.130  -0.699 -13.706  0.00  0.00    +0.248 C 
ATOM     30  O   UNL     1       5.402   0.116 -13.159  0.00  0.00    -0.270 OA
ATOM     31  H   UNL     1       7.995  -1.497 -14.002  0.00  0.00    +0.155 HD
BRANCH  14  15
ATOM     15  C   UNL     1       5.456  -1.814 -14.439  0.00  0.00    +0.037 A 
ATOM     16  C   UNL     1       5.710  -3.215 -14.090  0.00  0.00    +0.013 A 
ATOM     17  C   UNL     1       5.060  -4.272 -14.824  0.00  0.00    +0.005 A 
ATOM     18  C   UNL     1       4.149  -3.931 -15.914  0.00  0.00    -0.033 A 
ATOM     28  C   UNL     1       3.911  -2.534 -16.235  0.00  0.00    +0.005 A 
ATOM     29  C   UNL     1       4.547  -1.495 -15.518  0.00  0.00    +0.013 A 
BRANCH  18  19
ATOM     19  C   UNL     1       3.428  -4.994 -16.764  0.00  0.00    +0.119 C 
BRANCH  19  20
ATOM     20  N   UNL     1       3.583  -4.904 -18.247  0.00  0.00    -0.302 NA
ATOM     21  C   UNL     1       2.582  -5.798 -18.984  0.00  0.00    +0.066 C 
ATOM     22  C   UNL     1       2.743  -5.674 -20.534  0.00  0.00    -0.064 C 
ATOM     23  N   UNL     1       4.178  -6.031 -20.925  0.00  0.00    +0.379 N 
ATOM     24  C   UNL     1       4.318  -5.972 -22.387  0.00  0.00    -0.096 C 
ATOM     25  H   UNL     1       4.362  -7.085 -20.610  0.00  0.00    -0.082 HD
ATOM     26  C   UNL     1       5.180  -5.149 -20.194  0.00  0.00    -0.064 C 
ATOM     27  C   UNL     1       4.992  -5.257 -18.655  0.00  0.00    +0.066 C 
ENDBRANCH  19  20
ENDBRANCH  18  19
ENDBRANCH  14  15
ENDBRANCH  12  13
TORSDOF 6
ENDMDL
MODEL 5
REMARK VINA RESULT:      -7.9      4.333      7.299
REMARK  Name = C:\Users\Docking\Desktop\test protocol\1iep_ligandH.pdb
REMARK  8 active torsions:
REMARK  status: ('A' for Active; 'I' for Inactive)
REMARK    1  A    between atoms: _5  and  _11
REMARK    2  A    between atoms: _19  and  _21
REMARK    3  A    between atoms: _22  and  _66
REMARK    4  A    between atoms: _27  and  _30
REMARK    5  A    between atoms: _32  and  _33
REMARK    6  A    between atoms: _38  and  _43
REMARK    7  A    between atoms: _43  and  _46
REMARK    8  A    between atoms: _53  and  _55
REMARK                            x       y       z     vdW  Elec       q    Type
REMARK                         _______ _______ _______ _____ _____    ______ ____
ROOT
ATOM     10  C   UNL     1       8.497   0.177 -13.279  0.00  0.00    +0.038 A 
ATOM     11  C   UNL     1       8.798   1.073 -14.336  0.00  0.00    +0.047 A 
ATOM     12  C   UNL     1       9.261   2.425 -14.067  0.00  0.00    +0.035 A 
ATOM     32  C   UNL     1       9.409   2.831 -12.708  0.00  0.00    +0.024 A 
ATOM     33  C   UNL     1       9.106   1.933 -11.622  0.00  0.00    +0.007 A 
ATOM     34  C   UNL     1       8.646   0.599 -11.881  0.00  0.00    -0.029 A 
ATOM     35  C   UNL     1       8.330  -0.318 -10.677  0.00  0.00    +0.045 C 
ENDROOT
BRANCH  10   9
ATOM      4  C   UNL     1       5.013  -3.039 -14.027  0.00  0.00    +0.077 A 
ATOM      5  C   UNL     1       3.985  -2.081 -13.738  0.00  0.00    +0.048 A 
ATOM      6  C   UNL     1       4.395  -0.773 -13.395  0.00  0.00    +0.116 A 
ATOM      7  N   UNL     1       5.736  -0.459 -13.347  0.00  0.00    -0.223 NA
ATOM      8  C   UNL     1       6.702  -1.407 -13.629  0.00  0.00    +0.220 A 
ATOM      9  N   UNL     1       8.056  -1.110 -13.595  0.00  0.00    -0.283 N 
ATOM     36  H   UNL     1       8.737  -1.840 -13.802  0.00  0.00    +0.155 HD
ATOM     37  N   UNL     1       6.336  -2.663 -13.959  0.00  0.00    -0.214 NA
BRANCH   4   3
ATOM      1  C   UNL     1       5.034  -6.471 -15.903  0.00  0.00    +0.020 A 
ATOM      2  C   UNL     1       5.332  -5.095 -15.579  0.00  0.00    +0.013 A 
ATOM      3  C   UNL     1       4.739  -4.461 -14.409  0.00  0.00    +0.019 A 
ATOM     38  C   UNL     1       3.842  -5.253 -13.581  0.00  0.00    +0.120 A 
ATOM     39  N   UNL     1       3.572  -6.575 -13.919  0.00  0.00    -0.263 NA
ATOM     40  C   UNL     1       4.136  -7.196 -15.043  0.00  0.00    +0.111 A 
ENDBRANCH   4   3
ENDBRANCH  10   9
BRANCH  12  13
ATOM     13  N   UNL     1       9.574   3.382 -15.099  0.00  0.00    -0.281 N 
ATOM     14  C   UNL     1       8.693   4.127 -15.866  0.00  0.00    +0.248 C 
ATOM     30  O   UNL     1       7.490   3.926 -15.927  0.00  0.00    -0.270 OA
ATOM     31  H   UNL     1      10.566   3.528 -15.287  0.00  0.00    +0.155 HD
BRANCH  14  15
ATOM     15  C   UNL     1       9.229   5.250 -16.695  0.00  0.00    +0.037 A 
ATOM     16  C   UNL     1       8.335   6.122 -17.460  0.00  0.00    +0.013 A 
ATOM     17  C   UNL     1       8.879   7.187 -18.265  0.00  0.00    +0.005 A 
ATOM     18  C   UNL     1      10.326   7.386 -18.307  0.00  0.00    -0.033 A 
ATOM     28  C   UNL     1      11.189   6.509 -17.534  0.00  0.00    +0.005 A 
ATOM     29  C   UNL     1      10.660   5.464 -16.744  0.00  0.00    +0.013 A 
BRANCH  18  19
ATOM     19  C   UNL     1      10.995   8.484 -19.156  0.00  0.00    +0.119 C 
BRANCH  19  20
ATOM     20  N   UNL     1      10.188   9.704 -19.455  0.00  0.00    -0.302 NA
ATOM     21  C   UNL     1      10.602  10.357 -20.776  0.00  0.00    +0.066 C 
ATOM     22  C   UNL     1       9.732  11.620 -21.084  0.00  0.00    -0.064 C 
ATOM     23  N   UNL     1       9.853  12.613 -19.928  0.00  0.00    +0.379 N 
ATOM     24  C   UNL     1       9.083  13.826 -20.241  0.00  0.00    -0.096 C 
ATOM     25  H   UNL     1      10.926  12.906 -19.845  0.00  0.00    -0.082 HD
ATOM     26  C   UNL     1       9.446  11.971 -18.609  0.00  0.00    -0.064 C 
ATOM     27  C   UNL     1      10.296  10.701 -18.327  0.00  0.00    +0.066 C 
ENDBRANCH  19  20
ENDBRANCH  18  19
ENDBRANCH  14  15
ENDBRANCH  12  13
TORSDOF 6
ENDMDL
