MODEL 1
REMARK VINA RESULT:      -8.5      0.000      0.000
REMARK  Name = C:\Users\Docking\Desktop\test protocol\1iep_ligandH.pdb
REMARK  8 active torsions:
REMARK  status: ('A' for Active; 'I' for Inactive)
REMARK    1  A    between atoms: _5  and  _11
REMARK    2  A    between atoms: _19  and  _21
REMARK    3  A    between atoms: _22  and  _66
REMARK    4  A    between atoms: _27  and  _30
REMARK    5  A    between atoms: _32  and  _33
REMARK    6  A    between atoms: _38  and  _43
REMARK    7  A    between atoms: _43  and  _46
REMARK    8  A    between atoms: _53  and  _55
REMARK                            x       y       z     vdW  Elec       q    Type
REMARK                         _______ _______ _______ _____ _____    ______ ____
ROOT
ATOM     10  C   UNL     1      21.097  35.909  24.678  0.00  0.00    +0.038 A 
ATOM     11  C   UNL     1      20.576  37.002  25.417  0.00  0.00    +0.047 A 
ATOM     12  C   UNL     1      21.377  38.190  25.669  0.00  0.00    +0.035 A 
ATOM     32  C   UNL     1      22.704  38.232  25.151  0.00  0.00    +0.024 A 
ATOM     33  C   UNL     1      23.250  37.130  24.399  0.00  0.00    +0.007 A 
ATOM     34  C   UNL     1      22.465  35.955  24.149  0.00  0.00    -0.029 A 
ATOM     35  C   UNL     1      23.104  34.801  23.342  0.00  0.00    +0.045 C 
ENDROOT
BRANCH  10   9
ATOM      4  C   UNL     1      17.634  33.586  22.301  0.00  0.00    +0.077 A 
ATOM      5  C   UNL     1      17.407  34.699  21.425  0.00  0.00    +0.048 A 
ATOM      6  C   UNL     1      18.198  35.853  21.624  0.00  0.00    +0.116 A 
ATOM      7  N   UNL     1      19.142  35.881  22.627  0.00  0.00    -0.223 NA
ATOM      8  C   UNL     1      19.334  34.791  23.455  0.00  0.00    +0.220 A 
ATOM      9  N   UNL     1      20.284  34.794  24.466  0.00  0.00    -0.283 N 
ATOM     36  H   UNL     1      20.390  33.972  25.060  0.00  0.00    +0.155 HD
ATOM     37  N   UNL     1      18.591  33.677  23.287  0.00  0.00    -0.214 NA
BRANCH   4   3
ATOM      1  C   UNL     1      15.018  30.742  22.909  0.00  0.00    +0.020 A 
ATOM      2  C   UNL     1      15.710  32.005  23.031  0.00  0.00    +0.013 A 
ATOM      3  C   UNL     1      16.881  32.295  22.214  0.00  0.00    +0.019 A 
ATOM     38  C   UNL     1      17.330  31.279  21.275  0.00  0.00    +0.120 A 
ATOM     39  N   UNL     1      16.645  30.071  21.179  0.00  0.00    -0.263 NA
ATOM     40  C   UNL     1      15.517  29.780  21.962  0.00  0.00    +0.111 A 
ENDBRANCH   4   3
ENDBRANCH  10   9
BRANCH  12  13
ATOM     13  N   UNL     1      20.904  39.327  26.419  0.00  0.00    -0.281 N 
ATOM     14  C   UNL     1      20.236  40.443  25.943  0.00  0.00    +0.248 C 
ATOM     30  O   UNL     1      20.131  40.734  24.761  0.00  0.00    -0.270 OA
ATOM     31  H   UNL     1      21.084  39.307  27.423  0.00  0.00    +0.155 HD
BRANCH  14  15
ATOM     15  C   UNL     1      19.606  41.380  26.923  0.00  0.00    +0.037 A 
ATOM     16  C   UNL     1      20.335  41.847  28.105  0.00  0.00    +0.013 A 
ATOM     17  C   UNL     1      19.697  42.737  29.043  0.00  0.00    +0.005 A 
ATOM     18  C   UNL     1      18.322  43.166  28.802  0.00  0.00    -0.033 A 
ATOM     28  C   UNL     1      17.623  42.691  27.619  0.00  0.00    +0.005 A 
ATOM     29  C   UNL     1      18.245  41.818  26.698  0.00  0.00    +0.013 A 
BRANCH  18  19
ATOM     19  C   UNL     1      17.555  44.096  29.761  0.00  0.00    +0.119 C 
BRANCH  19  20
ATOM     20  N   UNL     1      16.519  43.473  30.636  0.00  0.00    -0.302 NA
ATOM     21  C   UNL     1      16.804  41.991  30.899  0.00  0.00    +0.066 C 
ATOM     22  C   UNL     1      15.722  41.361  31.835  0.00  0.00    -0.064 C 
ATOM     23  N   UNL     1      14.340  41.542  31.206  0.00  0.00    +0.379 N 
ATOM     24  C   UNL     1      13.326  40.899  32.055  0.00  0.00    -0.096 C 
ATOM     25  H   UNL     1      14.343  41.014  30.224  0.00  0.00    -0.082 HD
ATOM     26  C   UNL     1      14.049  43.012  30.938  0.00  0.00    -0.064 C 
ATOM     27  C   UNL     1      15.146  43.637  30.032  0.00  0.00    +0.066 C 
ENDBRANCH  19  20
ENDBRANCH  18  19
ENDBRANCH  14  15
ENDBRANCH  12  13
TORSDOF 6
ENDMDL
MODEL 2
REMARK VINA RESULT:      -8.1      7.720     11.106
REMARK  Name = C:\Users\Docking\Desktop\test protocol\1iep_ligandH.pdb
REMARK  8 active torsions:
REMARK  status: ('A' for Active; 'I' for Inactive)
REMARK    1  A    between atoms: _5  and  _11
REMARK    2  A    between atoms: _19  and  _21
REMARK    3  A    between atoms: _22  and  _66
REMARK    4  A    between atoms: _27  and  _30
REMARK    5  A    between atoms: _32  and  _33
REMARK    6  A    between atoms: _38  and  _43
REMARK    7  A    between atoms: _43  and  _46
REMARK    8  A    between atoms: _53  and  _55
REMARK                            x       y       z     vdW  Elec       q    Type
REMARK                         _______ _______ _______ _____ _____    ______ ____
ROOT
ATOM     10  C   UNL     1      17.113  42.348  28.996  0.00  0.00    +0.038 A 
ATOM     11  C   UNL     1      16.213  42.631  27.937  0.00  0.00    +0.047 A 
ATOM     12  C   UNL     1      16.254  43.903  27.234  0.00  0.00    +0.035 A 
ATOM     32  C   UNL     1      17.228  44.865  27.634  0.00  0.00    +0.024 A 
ATOM     33  C   UNL     1      18.150  44.594  28.708  0.00  0.00    +0.007 A 
ATOM     34  C   UNL     1      18.112  43.341  29.407  0.00  0.00    -0.029 A 
ATOM     35  C   UNL     1      19.121  43.108  30.556  0.00  0.00    +0.045 C 
ENDROOT
BRANCH  10   9
ATOM      4  C   UNL     1      15.362  39.454  32.401  0.00  0.00    +0.077 A 
ATOM      5  C   UNL     1      14.567  40.505  32.969  0.00  0.00    +0.048 A 
ATOM      6  C   UNL     1      14.644  41.777  32.359  0.00  0.00    +0.116 A 
ATOM      7  N   UNL     1      15.456  41.972  31.264  0.00  0.00    -0.223 NA
ATOM      8  C   UNL     1      16.211  40.937  30.742  0.00  0.00    +0.220 A 
ATOM      9  N   UNL     1      17.029  41.109  29.636  0.00  0.00    -0.283 N 
ATOM     36  H   UNL     1      17.575  40.322  29.286  0.00  0.00    +0.155 HD
ATOM     37  N   UNL     1      16.157  39.713  31.307  0.00  0.00    -0.214 NA
BRANCH   4   3
ATOM      1  C   UNL     1      16.353  35.727  33.057  0.00  0.00    +0.020 A 
ATOM      2  C   UNL     1      16.373  37.066  32.514  0.00  0.00    +0.013 A 
ATOM      3  C   UNL     1      15.386  38.054  32.931  0.00  0.00    +0.019 A 
ATOM     38  C   UNL     1      14.385  37.652  33.907  0.00  0.00    +0.120 A 
ATOM     39  N   UNL     1      14.389  36.355  34.411  0.00  0.00    -0.263 NA
ATOM     40  C   UNL     1      15.333  35.395  34.016  0.00  0.00    +0.111 A 
ENDBRANCH   4   3
ENDBRANCH  10   9
BRANCH  12  13
ATOM     13  N   UNL     1      15.360  44.250  26.157  0.00  0.00    -0.281 N 
ATOM     14  C   UNL     1      15.547  44.052  24.799  0.00  0.00    +0.248 C 
ATOM     30  O   UNL     1      16.610  43.738  24.285  0.00  0.00    -0.270 OA
ATOM     31  H   UNL     1      14.484  44.696  26.429  0.00  0.00    +0.155 HD
BRANCH  14  15
ATOM     15  C   UNL     1      14.387  44.245  23.875  0.00  0.00    +0.037 A 
ATOM     16  C   UNL     1      14.493  45.099  22.690  0.00  0.00    +0.013 A 
ATOM     17  C   UNL     1      13.355  45.281  21.825  0.00  0.00    +0.005 A 
ATOM     18  C   UNL     1      12.099  44.605  22.143  0.00  0.00    -0.033 A 
ATOM     28  C   UNL     1      12.023  43.759  23.322  0.00  0.00    +0.005 A 
ATOM     29  C   UNL     1      13.137  43.579  24.172  0.00  0.00    +0.013 A 
BRANCH  18  19
ATOM     19  C   UNL     1      10.827  44.759  21.288  0.00  0.00    +0.119 C 
BRANCH  19  20
ATOM     20  N   UNL     1      10.987  44.684  19.805  0.00  0.00    -0.302 NA
ATOM     21  C   UNL     1      10.196  45.781  19.086  0.00  0.00    +0.066 C 
ATOM     22  C   UNL     1      10.392  45.702  17.537  0.00  0.00    -0.064 C 
ATOM     23  N   UNL     1       9.970  44.318  17.042  0.00  0.00    +0.379 N 
ATOM     24  C   UNL     1      10.099  44.259  15.579  0.00  0.00    -0.096 C 
ATOM     25  H   UNL     1       8.892  44.184  17.293  0.00  0.00    -0.082 HD
ATOM     26  C   UNL     1      10.749  43.221  17.754  0.00  0.00    -0.064 C 
ATOM     27  C   UNL     1      10.571  43.327  19.294  0.00  0.00    +0.066 C 
ENDBRANCH  19  20
ENDBRANCH  18  19
ENDBRANCH  14  15
ENDBRANCH  12  13
TORSDOF 6
ENDMDL
MODEL 3
REMARK VINA RESULT:      -8.0     20.778     23.846
REMARK  Name = C:\Users\Docking\Desktop\test protocol\1iep_ligandH.pdb
REMARK  8 active torsions:
REMARK  status: ('A' for Active; 'I' for Inactive)
REMARK    1  A    between atoms: _5  and  _11
REMARK    2  A    between atoms: _19  and  _21
REMARK    3  A    between atoms: _22  and  _66
REMARK    4  A    between atoms: _27  and  _30
REMARK    5  A    between atoms: _32  and  _33
REMARK    6  A    between atoms: _38  and  _43
REMARK    7  A    between atoms: _43  and  _46
REMARK    8  A    between atoms: _53  and  _55
REMARK                            x       y       z     vdW  Elec       q    Type
REMARK                         _______ _______ _______ _____ _____    ______ ____
ROOT
ATOM     10  C   UNL     1      20.387  31.939  45.231  0.00  0.00    +0.038 A 
ATOM     11  C   UNL     1      21.546  31.202  44.878  0.00  0.00    +0.047 A 
ATOM     12  C   UNL     1      22.866  31.613  45.329  0.00  0.00    +0.035 A 
ATOM     32  C   UNL     1      22.969  32.781  46.140  0.00  0.00    +0.024 A 
ATOM     33  C   UNL     1      21.802  33.543  46.507  0.00  0.00    +0.007 A 
ATOM     34  C   UNL     1      20.497  33.143  46.063  0.00  0.00    -0.029 A 
ATOM     35  C   UNL     1      19.281  34.003  46.482  0.00  0.00    +0.045 C 
ENDROOT
BRANCH  10   9
ATOM      4  C   UNL     1      16.461  29.203  45.606  0.00  0.00    +0.077 A 
ATOM      5  C   UNL     1      16.939  28.579  46.806  0.00  0.00    +0.048 A 
ATOM      6  C   UNL     1      18.203  28.986  47.290  0.00  0.00    +0.116 A 
ATOM      7  N   UNL     1      18.926  29.946  46.616  0.00  0.00    -0.223 NA
ATOM      8  C   UNL     1      18.437  30.526  45.460  0.00  0.00    +0.220 A 
ATOM      9  N   UNL     1      19.144  31.499  44.770  0.00  0.00    -0.283 N 
ATOM     36  H   UNL     1      18.752  31.897  43.917  0.00  0.00    +0.155 HD
ATOM     37  N   UNL     1      17.233  30.154  44.977  0.00  0.00    -0.214 NA
BRANCH   4   3
ATOM      1  C   UNL     1      13.224  27.325  44.469  0.00  0.00    +0.020 A 
ATOM      2  C   UNL     1      14.498  27.583  45.101  0.00  0.00    +0.013 A 
ATOM      3  C   UNL     1      15.143  28.883  44.972  0.00  0.00    +0.019 A 
ATOM     38  C   UNL     1      14.468  29.909  44.192  0.00  0.00    +0.120 A 
ATOM     39  N   UNL     1      13.243  29.631  43.594  0.00  0.00    -0.263 NA
ATOM     40  C   UNL     1      12.613  28.383  43.709  0.00  0.00    +0.111 A 
ENDBRANCH   4   3
ENDBRANCH  10   9
BRANCH  12  13
ATOM     13  N   UNL     1      24.079  30.908  44.996  0.00  0.00    -0.281 N 
ATOM     14  C   UNL     1      24.649  29.833  45.658  0.00  0.00    +0.248 C 
ATOM     30  O   UNL     1      24.312  29.448  46.768  0.00  0.00    -0.270 OA
ATOM     31  H   UNL     1      24.579  31.243  44.172  0.00  0.00    +0.155 HD
BRANCH  14  15
ATOM     15  C   UNL     1      25.763  29.087  44.999  0.00  0.00    +0.037 A 
ATOM     16  C   UNL     1      25.800  28.904  43.546  0.00  0.00    +0.013 A 
ATOM     17  C   UNL     1      26.878  28.165  42.937  0.00  0.00    +0.005 A 
ATOM     18  C   UNL     1      27.929  27.605  43.783  0.00  0.00    -0.033 A 
ATOM     28  C   UNL     1      27.871  27.806  45.221  0.00  0.00    +0.005 A 
ATOM     29  C   UNL     1      26.815  28.529  45.821  0.00  0.00    +0.013 A 
BRANCH  18  19
ATOM     19  C   UNL     1      29.106  26.785  43.221  0.00  0.00    +0.119 C 
BRANCH  19  20
ATOM     20  N   UNL     1      29.817  25.874  44.167  0.00  0.00    -0.302 NA
ATOM     21  C   UNL     1      31.337  25.946  44.001  0.00  0.00    +0.066 C 
ATOM     22  C   UNL     1      32.066  25.004  45.013  0.00  0.00    -0.064 C 
ATOM     23  N   UNL     1      31.568  23.570  44.820  0.00  0.00    +0.379 N 
ATOM     24  C   UNL     1      32.294  22.672  45.731  0.00  0.00    -0.096 C 
ATOM     25  H   UNL     1      31.814  23.265  43.777  0.00  0.00    -0.082 HD
ATOM     26  C   UNL     1      30.057  23.489  44.981  0.00  0.00    -0.064 C 
ATOM     27  C   UNL     1      29.343  24.452  43.991  0.00  0.00    +0.066 C 
ENDBRANCH  19  20
ENDBRANCH  18  19
ENDBRANCH  14  15
ENDBRANCH  12  13
TORSDOF 6
ENDMDL
MODEL 4
REMARK VINA RESULT:      -7.9      8.115     12.364
REMARK  Name = C:\Users\Docking\Desktop\test protocol\1iep_ligandH.pdb
REMARK  8 active torsions:
REMARK  status: ('A' for Active; 'I' for Inactive)
REMARK    1  A    between atoms: _5  and  _11
REMARK    2  A    between atoms: _19  and  _21
REMARK    3  A    between atoms: _22  and  _66
REMARK    4  A    between atoms: _27  and  _30
REMARK    5  A    between atoms: _32  and  _33
REMARK    6  A    between atoms: _38  and  _43
REMARK    7  A    between atoms: _43  and  _46
REMARK    8  A    between atoms: _53  and  _55
REMARK                            x       y       z     vdW  Elec       q    Type
REMARK                         _______ _______ _______ _____ _____    ______ ____
ROOT
ATOM     10  C   UNL     1      18.310  48.044  29.968  0.00  0.00    +0.038 A 
ATOM     11  C   UNL     1      17.732  46.875  30.525  0.00  0.00    +0.047 A 
ATOM     12  C   UNL     1      16.301  46.787  30.772  0.00  0.00    +0.035 A 
ATOM     32  C   UNL     1      15.488  47.908  30.436  0.00  0.00    +0.024 A 
ATOM     33  C   UNL     1      16.058  49.104  29.869  0.00  0.00    +0.007 A 
ATOM     34  C   UNL     1      17.470  49.198  29.626  0.00  0.00    -0.029 A 
ATOM     35  C   UNL     1      18.028  50.508  29.023  0.00  0.00    +0.045 C 
ENDROOT
BRANCH  10   9
ATOM      4  C   UNL     1      22.313  46.356  27.928  0.00  0.00    +0.077 A 
ATOM      5  C   UNL     1      21.600  45.308  27.256  0.00  0.00    +0.048 A 
ATOM      6  C   UNL     1      20.205  45.234  27.468  0.00  0.00    +0.116 A 
ATOM      7  N   UNL     1      19.580  46.146  28.292  0.00  0.00    -0.223 NA
ATOM      8  C   UNL     1      20.298  47.143  28.926  0.00  0.00    +0.220 A 
ATOM      9  N   UNL     1      19.690  48.075  29.752  0.00  0.00    -0.283 N 
ATOM     36  H   UNL     1      20.256  48.790  30.208  0.00  0.00    +0.155 HD
ATOM     37  N   UNL     1      21.632  47.234  28.741  0.00  0.00    -0.214 NA
BRANCH   4   3
ATOM      1  C   UNL     1      26.061  45.983  26.871  0.00  0.00    +0.020 A 
ATOM      2  C   UNL     1      24.640  45.737  26.958  0.00  0.00    +0.013 A 
ATOM      3  C   UNL     1      23.790  46.567  27.803  0.00  0.00    +0.019 A 
ATOM     38  C   UNL     1      24.415  47.647  28.552  0.00  0.00    +0.120 A 
ATOM     39  N   UNL     1      25.786  47.859  28.450  0.00  0.00    -0.263 NA
ATOM     40  C   UNL     1      26.614  47.066  27.642  0.00  0.00    +0.111 A 
ENDBRANCH   4   3
ENDBRANCH  10   9
BRANCH  12  13
ATOM     13  N   UNL     1      15.660  45.629  31.343  0.00  0.00    -0.281 N 
ATOM     14  C   UNL     1      15.659  44.331  30.860  0.00  0.00    +0.248 C 
ATOM     30  O   UNL     1      16.035  44.009  29.743  0.00  0.00    -0.270 OA
ATOM     31  H   UNL     1      15.143  45.786  32.209  0.00  0.00    +0.155 HD
BRANCH  14  15
ATOM     15  C   UNL     1      15.154  43.233  31.740  0.00  0.00    +0.037 A 
ATOM     16  C   UNL     1      13.754  42.804  31.693  0.00  0.00    +0.013 A 
ATOM     17  C   UNL     1      13.289  41.755  32.565  0.00  0.00    +0.005 A 
ATOM     18  C   UNL     1      14.227  41.125  33.492  0.00  0.00    -0.033 A 
ATOM     28  C   UNL     1      15.612  41.567  33.514  0.00  0.00    +0.005 A 
ATOM     29  C   UNL     1      16.071  42.596  32.662  0.00  0.00    +0.013 A 
BRANCH  18  19
ATOM     19  C   UNL     1      13.814  40.013  34.473  0.00  0.00    +0.119 C 
BRANCH  19  20
ATOM     20  N   UNL     1      14.388  38.653  34.246  0.00  0.00    -0.302 NA
ATOM     21  C   UNL     1      14.938  38.491  32.826  0.00  0.00    +0.066 C 
ATOM     22  C   UNL     1      15.555  37.071  32.613  0.00  0.00    -0.064 C 
ATOM     23  N   UNL     1      14.495  36.008  32.908  0.00  0.00    +0.379 N 
ATOM     24  C   UNL     1      15.055  34.673  32.653  0.00  0.00    -0.096 C 
ATOM     25  H   UNL     1      13.653  36.164  32.195  0.00  0.00    -0.082 HD
ATOM     26  C   UNL     1      13.941  36.163  34.317  0.00  0.00    -0.064 C 
ATOM     27  C   UNL     1      13.357  37.588  34.528  0.00  0.00    +0.066 C 
ENDBRANCH  19  20
ENDBRANCH  18  19
ENDBRANCH  14  15
ENDBRANCH  12  13
TORSDOF 6
ENDMDL
MODEL 5
REMARK VINA RESULT:      -7.9     30.343     32.711
REMARK  Name = C:\Users\Docking\Desktop\test protocol\1iep_ligandH.pdb
REMARK  8 active torsions:
REMARK  status: ('A' for Active; 'I' for Inactive)
REMARK    1  A    between atoms: _5  and  _11
REMARK    2  A    between atoms: _19  and  _21
REMARK    3  A    between atoms: _22  and  _66
REMARK    4  A    between atoms: _27  and  _30
REMARK    5  A    between atoms: _32  and  _33
REMARK    6  A    between atoms: _38  and  _43
REMARK    7  A    between atoms: _43  and  _46
REMARK    8  A    between atoms: _53  and  _55
REMARK                            x       y       z     vdW  Elec       q    Type
REMARK                         _______ _______ _______ _____ _____    ______ ____
ROOT
ATOM     10  C   UNL     1     -10.999  45.188  14.257  0.00  0.00    +0.038 A 
ATOM     11  C   UNL     1     -11.038  43.952  14.952  0.00  0.00    +0.047 A 
ATOM     12  C   UNL     1     -11.966  43.737  16.052  0.00  0.00    +0.035 A 
ATOM     32  C   UNL     1     -12.841  44.801  16.416  0.00  0.00    +0.024 A 
ATOM     33  C   UNL     1     -12.814  46.064  15.720  0.00  0.00    +0.007 A 
ATOM     34  C   UNL     1     -11.900  46.283  14.636  0.00  0.00    -0.029 A 
ATOM     35  C   UNL     1     -11.910  47.659  13.931  0.00  0.00    +0.045 C 
ENDROOT
BRANCH  10   9
ATOM      4  C   UNL     1      -9.756  44.785   9.639  0.00  0.00    +0.077 A 
ATOM      5  C   UNL     1     -11.017  44.198   9.289  0.00  0.00    +0.048 A 
ATOM      6  C   UNL     1     -11.955  44.009  10.329  0.00  0.00    +0.116 A 
ATOM      7  N   UNL     1     -11.645  44.385  11.618  0.00  0.00    -0.223 NA
ATOM      8  C   UNL     1     -10.419  44.948  11.921  0.00  0.00    +0.220 A 
ATOM      9  N   UNL     1     -10.088  45.340  13.209  0.00  0.00    -0.283 N 
ATOM     36  H   UNL     1      -9.171  45.744  13.393  0.00  0.00    +0.155 HD
ATOM     37  N   UNL     1      -9.505  45.136  10.946  0.00  0.00    -0.214 NA
BRANCH   4   3
ATOM      1  C   UNL     1      -6.372  44.626   7.682  0.00  0.00    +0.020 A 
ATOM      2  C   UNL     1      -7.396  44.330   8.658  0.00  0.00    +0.013 A 
ATOM      3  C   UNL     1      -8.662  45.051   8.651  0.00  0.00    +0.019 A 
ATOM     38  C   UNL     1      -8.864  46.072   7.634  0.00  0.00    +0.120 A 
ATOM     39  N   UNL     1      -7.860  46.336   6.707  0.00  0.00    -0.263 NA
ATOM     40  C   UNL     1      -6.636  45.650   6.706  0.00  0.00    +0.111 A 
ENDBRANCH   4   3
ENDBRANCH  10   9
BRANCH  12  13
ATOM     13  N   UNL     1     -12.045  42.507  16.800  0.00  0.00    -0.281 N 
ATOM     14  C   UNL     1     -11.151  42.022  17.740  0.00  0.00    +0.248 C 
ATOM     30  O   UNL     1     -10.031  42.475  17.926  0.00  0.00    -0.270 OA
ATOM     31  H   UNL     1     -12.860  41.922  16.614  0.00  0.00    +0.155 HD
BRANCH  14  15
ATOM     15  C   UNL     1     -11.553  40.858  18.587  0.00  0.00    +0.037 A 
ATOM     16  C   UNL     1     -12.676  39.996  18.210  0.00  0.00    +0.013 A 
ATOM     17  C   UNL     1     -13.053  38.890  19.053  0.00  0.00    +0.005 A 
ATOM     18  C   UNL     1     -12.305  38.638  20.282  0.00  0.00    -0.033 A 
ATOM     28  C   UNL     1     -11.192  39.506  20.630  0.00  0.00    +0.005 A 
ATOM     29  C   UNL     1     -10.819  40.592  19.806  0.00  0.00    +0.013 A 
BRANCH  18  19
ATOM     19  C   UNL     1     -12.651  37.493  21.253  0.00  0.00    +0.119 C 
BRANCH  19  20
ATOM     20  N   UNL     1     -11.953  36.189  21.049  0.00  0.00    -0.302 NA
ATOM     21  C   UNL     1     -12.758  35.240  20.157  0.00  0.00    +0.066 C 
ATOM     22  C   UNL     1     -12.002  33.889  19.936  0.00  0.00    -0.064 C 
ATOM     23  N   UNL     1     -11.711  33.243  21.291  0.00  0.00    +0.379 N 
ATOM     24  C   UNL     1     -11.052  31.945  21.085  0.00  0.00    -0.096 C 
ATOM     25  H   UNL     1     -12.689  33.050  21.791  0.00  0.00    -0.082 HD
ATOM     26  C   UNL     1     -10.913  34.181  22.185  0.00  0.00    -0.064 C 
ATOM     27  C   UNL     1     -11.659  35.532  22.375  0.00  0.00    +0.066 C 
ENDBRANCH  19  20
ENDBRANCH  18  19
ENDBRANCH  14  15
ENDBRANCH  12  13
TORSDOF 6
ENDMDL
