MODEL 1
REMARK VINA RESULT:      -8.4      0.000      0.000
REMARK  Name = C:\Users\Docking\Desktop\test protocol\1iep_ligandH.pdb
REMARK  8 active torsions:
REMARK  status: ('A' for Active; 'I' for Inactive)
REMARK    1  A    between atoms: _5  and  _11
REMARK    2  A    between atoms: _19  and  _21
REMARK    3  A    between atoms: _22  and  _66
REMARK    4  A    between atoms: _27  and  _30
REMARK    5  A    between atoms: _32  and  _33
REMARK    6  A    between atoms: _38  and  _43
REMARK    7  A    between atoms: _43  and  _46
REMARK    8  A    between atoms: _53  and  _55
REMARK                            x       y       z     vdW  Elec       q    Type
REMARK                         _______ _______ _______ _____ _____    ______ ____
ROOT
ATOM     10  C   UNL     1      19.161  30.947  45.105  0.00  0.00    +0.038 A 
ATOM     11  C   UNL     1      20.448  30.479  44.738  0.00  0.00    +0.047 A 
ATOM     12  C   UNL     1      21.246  29.675  45.651  0.00  0.00    +0.035 A 
ATOM     32  C   UNL     1      20.699  29.364  46.930  0.00  0.00    +0.024 A 
ATOM     33  C   UNL     1      19.393  29.832  47.320  0.00  0.00    +0.007 A 
ATOM     34  C   UNL     1      18.603  30.628  46.425  0.00  0.00    -0.029 A 
ATOM     35  C   UNL     1      17.211  31.108  46.899  0.00  0.00    +0.045 C 
ENDROOT
BRANCH  10   9
ATOM      4  C   UNL     1      17.729  35.165  43.317  0.00  0.00    +0.077 A 
ATOM      5  C   UNL     1      18.460  35.900  44.309  0.00  0.00    +0.048 A 
ATOM      6  C   UNL     1      19.186  35.155  45.265  0.00  0.00    +0.116 A 
ATOM      7  N   UNL     1      19.175  33.778  45.223  0.00  0.00    -0.223 NA
ATOM      8  C   UNL     1      18.458  33.099  44.255  0.00  0.00    +0.220 A 
ATOM      9  N   UNL     1      18.438  31.715  44.189  0.00  0.00    -0.283 N 
ATOM     36  H   UNL     1      17.891  31.252  43.464  0.00  0.00    +0.155 HD
ATOM     37  N   UNL     1      17.755  33.788  43.331  0.00  0.00    -0.214 NA
BRANCH   4   3
ATOM      1  C   UNL     1      16.669  37.262  40.190  0.00  0.00    +0.020 A 
ATOM      2  C   UNL     1      17.499  36.664  41.211  0.00  0.00    +0.013 A 
ATOM      3  C   UNL     1      16.916  35.809  42.238  0.00  0.00    +0.019 A 
ATOM     38  C   UNL     1      15.480  35.578  42.203  0.00  0.00    +0.120 A 
ATOM     39  N   UNL     1      14.706  36.168  41.209  0.00  0.00    -0.263 NA
ATOM     40  C   UNL     1      15.255  36.994  40.216  0.00  0.00    +0.111 A 
ENDBRANCH   4   3
ENDBRANCH  10   9
BRANCH  12  13
ATOM     13  N   UNL     1      22.562  29.178  45.336  0.00  0.00    -0.281 N 
ATOM     14  C   UNL     1      23.681  29.907  44.964  0.00  0.00    +0.248 C 
ATOM     30  O   UNL     1      23.661  31.084  44.637  0.00  0.00    -0.270 OA
ATOM     31  H   UNL     1      22.685  28.167  45.394  0.00  0.00    +0.155 HD
BRANCH  14  15
ATOM     15  C   UNL     1      25.010  29.225  44.938  0.00  0.00    +0.037 A 
ATOM     16  C   UNL     1      25.780  29.108  43.697  0.00  0.00    +0.013 A 
ATOM     17  C   UNL     1      27.053  28.431  43.696  0.00  0.00    +0.005 A 
ATOM     18  C   UNL     1      27.563  27.865  44.942  0.00  0.00    -0.033 A 
ATOM     28  C   UNL     1      26.781  27.999  46.160  0.00  0.00    +0.005 A 
ATOM     29  C   UNL     1      25.533  28.662  46.164  0.00  0.00    +0.013 A 
BRANCH  18  19
ATOM     19  C   UNL     1      28.901  27.107  45.030  0.00  0.00    +0.119 C 
BRANCH  19  20
ATOM     20  N   UNL     1      30.051  27.656  44.252  0.00  0.00    -0.302 NA
ATOM     21  C   UNL     1      30.873  26.551  43.583  0.00  0.00    +0.066 C 
ATOM     22  C   UNL     1      32.058  27.145  42.755  0.00  0.00    -0.064 C 
ATOM     23  N   UNL     1      32.940  27.997  43.670  0.00  0.00    +0.379 N 
ATOM     24  C   UNL     1      34.087  28.510  42.907  0.00  0.00    -0.096 C 
ATOM     25  H   UNL     1      33.336  27.332  44.472  0.00  0.00    -0.082 HD
ATOM     26  C   UNL     1      32.130  29.097  44.341  0.00  0.00    -0.064 C 
ATOM     27  C   UNL     1      30.937  28.498  45.138  0.00  0.00    +0.066 C 
ENDBRANCH  19  20
ENDBRANCH  18  19
ENDBRANCH  14  15
ENDBRANCH  12  13
TORSDOF 6
ENDMDL
MODEL 2
REMARK VINA RESULT:      -8.2      4.295      8.825
REMARK  Name = C:\Users\Docking\Desktop\test protocol\1iep_ligandH.pdb
REMARK  8 active torsions:
REMARK  status: ('A' for Active; 'I' for Inactive)
REMARK    1  A    between atoms: _5  and  _11
REMARK    2  A    between atoms: _19  and  _21
REMARK    3  A    between atoms: _22  and  _66
REMARK    4  A    between atoms: _27  and  _30
REMARK    5  A    between atoms: _32  and  _33
REMARK    6  A    between atoms: _38  and  _43
REMARK    7  A    between atoms: _43  and  _46
REMARK    8  A    between atoms: _53  and  _55
REMARK                            x       y       z     vdW  Elec       q    Type
REMARK                         _______ _______ _______ _____ _____    ______ ____
ROOT
ATOM     10  C   UNL     1      27.078  27.194  44.657  0.00  0.00    +0.038 A 
ATOM     11  C   UNL     1      28.116  27.432  43.721  0.00  0.00    +0.047 A 
ATOM     12  C   UNL     1      29.392  26.739  43.820  0.00  0.00    +0.035 A 
ATOM     32  C   UNL     1      29.574  25.809  44.885  0.00  0.00    +0.024 A 
ATOM     33  C   UNL     1      28.530  25.557  45.846  0.00  0.00    +0.007 A 
ATOM     34  C   UNL     1      27.270  26.239  45.754  0.00  0.00    -0.029 A 
ATOM     35  C   UNL     1      26.189  25.933  46.816  0.00  0.00    +0.045 C 
ENDROOT
BRANCH  10   9
ATOM      4  C   UNL     1      24.031  30.690  45.898  0.00  0.00    +0.077 A 
ATOM      5  C   UNL     1      24.902  31.160  46.937  0.00  0.00    +0.048 A 
ATOM      6  C   UNL     1      26.120  30.470  47.124  0.00  0.00    +0.116 A 
ATOM      7  N   UNL     1      26.435  29.392  46.326  0.00  0.00    -0.223 NA
ATOM      8  C   UNL     1      25.573  28.963  45.334  0.00  0.00    +0.220 A 
ATOM      9  N   UNL     1      25.873  27.887  44.514  0.00  0.00    -0.283 N 
ATOM     36  H   UNL     1      25.207  27.597  43.798  0.00  0.00    +0.155 HD
ATOM     37  N   UNL     1      24.402  29.604  45.136  0.00  0.00    -0.214 NA
BRANCH   4   3
ATOM      1  C   UNL     1      20.473  31.341  44.410  0.00  0.00    +0.020 A 
ATOM      2  C   UNL     1      21.735  30.695  44.688  0.00  0.00    +0.013 A 
ATOM      3  C   UNL     1      22.710  31.316  45.575  0.00  0.00    +0.019 A 
ATOM     38  C   UNL     1      22.375  32.601  46.170  0.00  0.00    +0.120 A 
ATOM     39  N   UNL     1      21.153  33.200  45.883  0.00  0.00    -0.263 NA
ATOM     40  C   UNL     1      20.207  32.613  45.029  0.00  0.00    +0.111 A 
ENDBRANCH   4   3
ENDBRANCH  10   9
BRANCH  12  13
ATOM     13  N   UNL     1      30.485  26.946  42.903  0.00  0.00    -0.281 N 
ATOM     14  C   UNL     1      31.739  27.467  43.177  0.00  0.00    +0.248 C 
ATOM     30  O   UNL     1      32.039  28.036  44.216  0.00  0.00    -0.270 OA
ATOM     31  H   UNL     1      30.315  26.674  41.935  0.00  0.00    +0.155 HD
BRANCH  14  15
ATOM     15  C   UNL     1      32.811  27.351  42.142  0.00  0.00    +0.037 A 
ATOM     16  C   UNL     1      32.751  28.121  40.897  0.00  0.00    +0.013 A 
ATOM     17  C   UNL     1      33.789  27.978  39.907  0.00  0.00    +0.005 A 
ATOM     18  C   UNL     1      34.899  27.062  40.161  0.00  0.00    -0.033 A 
ATOM     28  C   UNL     1      34.937  26.315  41.407  0.00  0.00    +0.005 A 
ATOM     29  C   UNL     1      33.920  26.452  42.379  0.00  0.00    +0.013 A 
BRANCH  18  19
ATOM     19  C   UNL     1      36.040  26.831  39.152  0.00  0.00    +0.119 C 
BRANCH  19  20
ATOM     20  N   UNL     1      35.660  26.651  37.719  0.00  0.00    -0.302 NA
ATOM     21  C   UNL     1      35.747  25.187  37.281  0.00  0.00    +0.066 C 
ATOM     22  C   UNL     1      35.324  25.014  35.786  0.00  0.00    -0.064 C 
ATOM     23  N   UNL     1      36.208  25.897  34.903  0.00  0.00    +0.379 N 
ATOM     24  C   UNL     1      35.852  25.693  33.492  0.00  0.00    -0.096 C 
ATOM     25  H   UNL     1      37.262  25.561  35.038  0.00  0.00    -0.082 HD
ATOM     26  C   UNL     1      36.130  27.355  35.334  0.00  0.00    -0.064 C 
ATOM     27  C   UNL     1      36.523  27.511  36.829  0.00  0.00    +0.066 C 
ENDBRANCH  19  20
ENDBRANCH  18  19
ENDBRANCH  14  15
ENDBRANCH  12  13
TORSDOF 6
ENDMDL
MODEL 3
REMARK VINA RESULT:      -8.2     27.691     32.739
REMARK  Name = C:\Users\Docking\Desktop\test protocol\1iep_ligandH.pdb
REMARK  8 active torsions:
REMARK  status: ('A' for Active; 'I' for Inactive)
REMARK    1  A    between atoms: _5  and  _11
REMARK    2  A    between atoms: _19  and  _21
REMARK    3  A    between atoms: _22  and  _66
REMARK    4  A    between atoms: _27  and  _30
REMARK    5  A    between atoms: _32  and  _33
REMARK    6  A    between atoms: _38  and  _43
REMARK    7  A    between atoms: _43  and  _46
REMARK    8  A    between atoms: _53  and  _55
REMARK                            x       y       z     vdW  Elec       q    Type
REMARK                         _______ _______ _______ _____ _____    ______ ____
ROOT
ATOM     10  C   UNL     1     -11.754  25.217  44.369  0.00  0.00    +0.038 A 
ATOM     11  C   UNL     1     -10.439  24.692  44.288  0.00  0.00    +0.047 A 
ATOM     12  C   UNL     1      -9.573  25.001  43.161  0.00  0.00    +0.035 A 
ATOM     32  C   UNL     1     -10.078  25.851  42.134  0.00  0.00    +0.024 A 
ATOM     33  C   UNL     1     -11.413  26.392  42.199  0.00  0.00    +0.007 A 
ATOM     34  C   UNL     1     -12.272  26.089  43.307  0.00  0.00    -0.029 A 
ATOM     35  C   UNL     1     -13.696  26.692  43.322  0.00  0.00    +0.045 C 
ENDROOT
BRANCH  10   9
ATOM      4  C   UNL     1     -13.537  26.154  48.725  0.00  0.00    +0.077 A 
ATOM      5  C   UNL     1     -12.817  27.391  48.819  0.00  0.00    +0.048 A 
ATOM      6  C   UNL     1     -11.993  27.747  47.728  0.00  0.00    +0.116 A 
ATOM      7  N   UNL     1     -11.904  26.919  46.629  0.00  0.00    -0.223 NA
ATOM      8  C   UNL     1     -12.610  25.732  46.572  0.00  0.00    +0.220 A 
ATOM      9  N   UNL     1     -12.542  24.888  45.474  0.00  0.00    -0.283 N 
ATOM     36  H   UNL     1     -13.073  24.018  45.473  0.00  0.00    +0.155 HD
ATOM     37  N   UNL     1     -13.403  25.369  47.602  0.00  0.00    -0.214 NA
BRANCH   4   3
ATOM      1  C   UNL     1     -16.527  25.791  51.221  0.00  0.00    +0.020 A 
ATOM      2  C   UNL     1     -15.679  26.327  50.182  0.00  0.00    +0.013 A 
ATOM      3  C   UNL     1     -14.451  25.643  49.795  0.00  0.00    +0.019 A 
ATOM     38  C   UNL     1     -14.108  24.409  50.485  0.00  0.00    +0.120 A 
ATOM     39  N   UNL     1     -14.943  23.917  51.483  0.00  0.00    -0.263 NA
ATOM     40  C   UNL     1     -16.126  24.567  51.865  0.00  0.00    +0.111 A 
ENDBRANCH   4   3
ENDBRANCH  10   9
BRANCH  12  13
ATOM     13  N   UNL     1      -8.231  24.491  43.021  0.00  0.00    -0.281 N 
ATOM     14  C   UNL     1      -7.792  23.189  43.201  0.00  0.00    +0.248 C 
ATOM     30  O   UNL     1      -8.453  22.303  43.721  0.00  0.00    -0.270 OA
ATOM     31  H   UNL     1      -7.519  25.172  42.757  0.00  0.00    +0.155 HD
BRANCH  14  15
ATOM     15  C   UNL     1      -6.415  22.823  42.752  0.00  0.00    +0.037 A 
ATOM     16  C   UNL     1      -5.274  23.709  42.999  0.00  0.00    +0.013 A 
ATOM     17  C   UNL     1      -3.959  23.340  42.540  0.00  0.00    +0.005 A 
ATOM     18  C   UNL     1      -3.777  22.077  41.829  0.00  0.00    -0.033 A 
ATOM     28  C   UNL     1      -4.924  21.214  41.602  0.00  0.00    +0.005 A 
ATOM     29  C   UNL     1      -6.215  21.573  42.050  0.00  0.00    +0.013 A 
BRANCH  18  19
ATOM     19  C   UNL     1      -2.413  21.612  41.285  0.00  0.00    +0.119 C 
BRANCH  19  20
ATOM     20  N   UNL     1      -1.818  22.402  40.166  0.00  0.00    -0.302 NA
ATOM     21  C   UNL     1      -2.307  21.917  38.798  0.00  0.00    +0.066 C 
ATOM     22  C   UNL     1      -1.692  22.769  37.639  0.00  0.00    -0.064 C 
ATOM     23  N   UNL     1      -0.166  22.711  37.721  0.00  0.00    +0.379 N 
ATOM     24  C   UNL     1       0.414  23.463  36.599  0.00  0.00    -0.096 C 
ATOM     25  H   UNL     1       0.138  21.644  37.607  0.00  0.00    -0.082 HD
ATOM     26  C   UNL     1       0.328  23.189  39.079  0.00  0.00    -0.064 C 
ATOM     27  C   UNL     1      -0.311  22.355  40.225  0.00  0.00    +0.066 C 
ENDBRANCH  19  20
ENDBRANCH  18  19
ENDBRANCH  14  15
ENDBRANCH  12  13
TORSDOF 6
ENDMDL
MODEL 4
REMARK VINA RESULT:      -8.0     17.323     21.316
REMARK  Name = C:\Users\Docking\Desktop\test protocol\1iep_ligandH.pdb
REMARK  8 active torsions:
REMARK  status: ('A' for Active; 'I' for Inactive)
REMARK    1  A    between atoms: _5  and  _11
REMARK    2  A    between atoms: _19  and  _21
REMARK    3  A    between atoms: _22  and  _66
REMARK    4  A    between atoms: _27  and  _30
REMARK    5  A    between atoms: _32  and  _33
REMARK    6  A    between atoms: _38  and  _43
REMARK    7  A    between atoms: _43  and  _46
REMARK    8  A    between atoms: _53  and  _55
REMARK                            x       y       z     vdW  Elec       q    Type
REMARK                         _______ _______ _______ _____ _____    ______ ____
ROOT
ATOM     10  C   UNL     1      17.381  40.817  26.343  0.00  0.00    +0.038 A 
ATOM     11  C   UNL     1      18.269  39.826  25.852  0.00  0.00    +0.047 A 
ATOM     12  C   UNL     1      19.090  40.067  24.676  0.00  0.00    +0.035 A 
ATOM     32  C   UNL     1      18.983  41.330  24.024  0.00  0.00    +0.024 A 
ATOM     33  C   UNL     1      18.085  42.348  24.509  0.00  0.00    +0.007 A 
ATOM     34  C   UNL     1      17.271  42.116  25.667  0.00  0.00    -0.029 A 
ATOM     35  C   UNL     1      16.321  43.241  26.138  0.00  0.00    +0.045 C 
ENDROOT
BRANCH  10   9
ATOM      4  C   UNL     1      16.490  41.172  31.045  0.00  0.00    +0.077 A 
ATOM      5  C   UNL     1      17.661  41.971  31.267  0.00  0.00    +0.048 A 
ATOM      6  C   UNL     1      18.470  42.262  30.146  0.00  0.00    +0.116 A 
ATOM      7  N   UNL     1      18.123  41.784  28.900  0.00  0.00    -0.223 NA
ATOM      8  C   UNL     1      16.988  41.016  28.721  0.00  0.00    +0.220 A 
ATOM      9  N   UNL     1      16.617  40.532  27.476  0.00  0.00    -0.283 N 
ATOM     36  H   UNL     1      15.776  39.962  27.387  0.00  0.00    +0.155 HD
ATOM     37  N   UNL     1      16.200  40.723  29.776  0.00  0.00    -0.214 NA
BRANCH   4   3
ATOM      1  C   UNL     1      14.930  40.407  34.550  0.00  0.00    +0.020 A 
ATOM      2  C   UNL     1      15.891  40.792  33.542  0.00  0.00    +0.013 A 
ATOM      3  C   UNL     1      15.533  40.783  32.130  0.00  0.00    +0.019 A 
ATOM     38  C   UNL     1      14.184  40.377  31.767  0.00  0.00    +0.120 A 
ATOM     39  N   UNL     1      13.280  40.011  32.759  0.00  0.00    -0.263 NA
ATOM     40  C   UNL     1      13.613  40.014  34.122  0.00  0.00    +0.111 A 
ENDBRANCH   4   3
ENDBRANCH  10   9
BRANCH  12  13
ATOM     13  N   UNL     1      20.004  39.095  24.127  0.00  0.00    -0.281 N 
ATOM     14  C   UNL     1      21.085  38.495  24.751  0.00  0.00    +0.248 C 
ATOM     30  O   UNL     1      21.561  38.864  25.814  0.00  0.00    -0.270 OA
ATOM     31  H   UNL     1      19.832  38.816  23.161  0.00  0.00    +0.155 HD
BRANCH  14  15
ATOM     15  C   UNL     1      21.741  37.325  24.092  0.00  0.00    +0.037 A 
ATOM     16  C   UNL     1      22.949  37.489  23.279  0.00  0.00    +0.013 A 
ATOM     17  C   UNL     1      23.552  36.346  22.641  0.00  0.00    +0.005 A 
ATOM     18  C   UNL     1      22.948  35.028  22.814  0.00  0.00    -0.033 A 
ATOM     28  C   UNL     1      21.753  34.892  23.630  0.00  0.00    +0.005 A 
ATOM     29  C   UNL     1      21.158  36.010  24.257  0.00  0.00    +0.013 A 
BRANCH  18  19
ATOM     19  C   UNL     1      23.511  33.756  22.153  0.00  0.00    +0.119 C 
BRANCH  19  20
ATOM     20  N   UNL     1      23.493  33.696  20.661  0.00  0.00    -0.302 NA
ATOM     21  C   UNL     1      24.766  34.283  20.046  0.00  0.00    +0.066 C 
ATOM     22  C   UNL     1      24.740  34.191  18.486  0.00  0.00    -0.064 C 
ATOM     23  N   UNL     1      23.500  34.914  17.956  0.00  0.00    +0.379 N 
ATOM     24  C   UNL     1      23.502  34.879  16.486  0.00  0.00    -0.096 C 
ATOM     25  H   UNL     1      23.571  35.981  18.270  0.00  0.00    -0.082 HD
ATOM     26  C   UNL     1      22.229  34.338  18.564  0.00  0.00    -0.064 C 
ATOM     27  C   UNL     1      22.278  34.407  20.116  0.00  0.00    +0.066 C 
ENDBRANCH  19  20
ENDBRANCH  18  19
ENDBRANCH  14  15
ENDBRANCH  12  13
TORSDOF 6
ENDMDL
MODEL 5
REMARK VINA RESULT:      -8.0     18.899     22.782
REMARK  Name = C:\Users\Docking\Desktop\test protocol\1iep_ligandH.pdb
REMARK  8 active torsions:
REMARK  status: ('A' for Active; 'I' for Inactive)
REMARK    1  A    between atoms: _5  and  _11
REMARK    2  A    between atoms: _19  and  _21
REMARK    3  A    between atoms: _22  and  _66
REMARK    4  A    between atoms: _27  and  _30
REMARK    5  A    between atoms: _32  and  _33
REMARK    6  A    between atoms: _38  and  _43
REMARK    7  A    between atoms: _43  and  _46
REMARK    8  A    between atoms: _53  and  _55
REMARK                            x       y       z     vdW  Elec       q    Type
REMARK                         _______ _______ _______ _____ _____    ______ ____
ROOT
ATOM     10  C   UNL     1      21.107  35.585  24.431  0.00  0.00    +0.038 A 
ATOM     11  C   UNL     1      20.619  36.695  25.166  0.00  0.00    +0.047 A 
ATOM     12  C   UNL     1      21.407  37.910  25.307  0.00  0.00    +0.035 A 
ATOM     32  C   UNL     1      22.688  37.960  24.683  0.00  0.00    +0.024 A 
ATOM     33  C   UNL     1      23.200  36.840  23.933  0.00  0.00    +0.007 A 
ATOM     34  C   UNL     1      22.428  35.639  23.793  0.00  0.00    -0.029 A 
ATOM     35  C   UNL     1      23.030  34.467  22.983  0.00  0.00    +0.045 C 
ENDROOT
BRANCH  10   9
ATOM      4  C   UNL     1      17.254  33.251  22.775  0.00  0.00    +0.077 A 
ATOM      5  C   UNL     1      16.777  34.411  22.078  0.00  0.00    +0.048 A 
ATOM      6  C   UNL     1      17.550  35.591  22.177  0.00  0.00    +0.116 A 
ATOM      7  N   UNL     1      18.710  35.597  22.920  0.00  0.00    -0.223 NA
ATOM      8  C   UNL     1      19.140  34.462  23.581  0.00  0.00    +0.220 A 
ATOM      9  N   UNL     1      20.308  34.444  24.328  0.00  0.00    -0.283 N 
ATOM     36  H   UNL     1      20.588  33.588  24.807  0.00  0.00    +0.155 HD
ATOM     37  N   UNL     1      18.420  33.324  23.504  0.00  0.00    -0.214 NA
BRANCH   4   3
ATOM      1  C   UNL     1      14.561  30.452  23.235  0.00  0.00    +0.020 A 
ATOM      2  C   UNL     1      15.195  31.750  23.269  0.00  0.00    +0.013 A 
ATOM      3  C   UNL     1      16.550  31.930  22.764  0.00  0.00    +0.019 A 
ATOM     38  C   UNL     1      17.241  30.768  22.226  0.00  0.00    +0.120 A 
ATOM     39  N   UNL     1      16.606  29.530  22.208  0.00  0.00    -0.263 NA
ATOM     40  C   UNL     1      15.303  29.344  22.692  0.00  0.00    +0.111 A 
ENDBRANCH   4   3
ENDBRANCH  10   9
BRANCH  12  13
ATOM     13  N   UNL     1      20.967  39.066  26.048  0.00  0.00    -0.281 N 
ATOM     14  C   UNL     1      20.292  40.177  25.570  0.00  0.00    +0.248 C 
ATOM     30  O   UNL     1      20.152  40.445  24.386  0.00  0.00    -0.270 OA
ATOM     31  H   UNL     1      21.178  39.064  27.046  0.00  0.00    +0.155 HD
BRANCH  14  15
ATOM     15  C   UNL     1      19.700  41.138  26.550  0.00  0.00    +0.037 A 
ATOM     16  C   UNL     1      20.477  42.264  27.075  0.00  0.00    +0.013 A 
ATOM     17  C   UNL     1      19.887  43.166  28.032  0.00  0.00    +0.005 A 
ATOM     18  C   UNL     1      18.510  42.947  28.468  0.00  0.00    -0.033 A 
ATOM     28  C   UNL     1      17.760  41.826  27.927  0.00  0.00    +0.005 A 
ATOM     29  C   UNL     1      18.335  40.939  26.990  0.00  0.00    +0.013 A 
BRANCH  18  19
ATOM     19  C   UNL     1      17.807  43.847  29.501  0.00  0.00    +0.119 C 
BRANCH  19  20
ATOM     20  N   UNL     1      16.575  43.309  30.151  0.00  0.00    -0.302 NA
ATOM     21  C   UNL     1      15.600  44.422  30.545  0.00  0.00    +0.066 C 
ATOM     22  C   UNL     1      14.307  43.840  31.203  0.00  0.00    -0.064 C 
ATOM     23  N   UNL     1      14.692  43.000  32.423  0.00  0.00    +0.379 N 
ATOM     24  C   UNL     1      13.475  42.499  33.078  0.00  0.00    -0.096 C 
ATOM     25  H   UNL     1      15.213  43.672  33.145  0.00  0.00    -0.082 HD
ATOM     26  C   UNL     1      15.664  41.893  32.040  0.00  0.00    -0.064 C 
ATOM     27  C   UNL     1      16.932  42.480  31.361  0.00  0.00    +0.066 C 
ENDBRANCH  19  20
ENDBRANCH  18  19
ENDBRANCH  14  15
ENDBRANCH  12  13
TORSDOF 6
ENDMDL
