MODEL 1
REMARK VINA RESULT:      -7.5      0.000      0.000
REMARK  Name = C:\Users\Docking\Desktop\test protocol\1iep_ligandH.pdb
REMARK  8 active torsions:
REMARK  status: ('A' for Active; 'I' for Inactive)
REMARK    1  A    between atoms: _5  and  _11
REMARK    2  A    between atoms: _19  and  _21
REMARK    3  A    between atoms: _22  and  _66
REMARK    4  A    between atoms: _27  and  _30
REMARK    5  A    between atoms: _32  and  _33
REMARK    6  A    between atoms: _38  and  _43
REMARK    7  A    between atoms: _43  and  _46
REMARK    8  A    between atoms: _53  and  _55
REMARK                            x       y       z     vdW  Elec       q    Type
REMARK                         _______ _______ _______ _____ _____    ______ ____
ROOT
ATOM     10  C   UNL     1       5.082  33.508  43.545  0.00  0.00    +0.038 A 
ATOM     11  C   UNL     1       5.760  33.105  44.724  0.00  0.00    +0.047 A 
ATOM     12  C   UNL     1       6.486  34.065  45.541  0.00  0.00    +0.035 A 
ATOM     32  C   UNL     1       6.498  35.429  45.129  0.00  0.00    +0.024 A 
ATOM     33  C   UNL     1       5.815  35.857  43.934  0.00  0.00    +0.007 A 
ATOM     34  C   UNL     1       5.099  34.914  43.123  0.00  0.00    -0.029 A 
ATOM     35  C   UNL     1       4.390  35.428  41.848  0.00  0.00    +0.045 C 
ENDROOT
BRANCH  10   9
ATOM      4  C   UNL     1       1.108  31.076  42.394  0.00  0.00    +0.077 A 
ATOM      5  C   UNL     1       0.329  31.764  43.383  0.00  0.00    +0.048 A 
ATOM      6  C   UNL     1       0.990  32.732  44.172  0.00  0.00    +0.116 A 
ATOM      7  N   UNL     1       2.331  32.985  43.977  0.00  0.00    -0.223 NA
ATOM      8  C   UNL     1       3.053  32.301  43.016  0.00  0.00    +0.220 A 
ATOM      9  N   UNL     1       4.401  32.545  42.799  0.00  0.00    -0.283 N 
ATOM     36  H   UNL     1       4.900  32.014  42.085  0.00  0.00    +0.155 HD
ATOM     37  N   UNL     1       2.445  31.371  42.251  0.00  0.00    -0.214 NA
BRANCH   4   3
ATOM      1  C   UNL     1      -0.451  29.273  39.292  0.00  0.00    +0.020 A 
ATOM      2  C   UNL     1       0.078  30.321  40.134  0.00  0.00    +0.013 A 
ATOM      3  C   UNL     1       0.551  30.028  41.481  0.00  0.00    +0.019 A 
ATOM     38  C   UNL     1       0.475  28.652  41.950  0.00  0.00    +0.120 A 
ATOM     39  N   UNL     1      -0.040  27.664  41.117  0.00  0.00    -0.263 NA
ATOM     40  C   UNL     1      -0.500  27.934  39.820  0.00  0.00    +0.111 A 
ENDBRANCH   4   3
ENDBRANCH  10   9
BRANCH  12  13
ATOM     13  N   UNL     1       7.200  33.712  46.743  0.00  0.00    -0.281 N 
ATOM     14  C   UNL     1       6.713  33.661  48.039  0.00  0.00    +0.248 C 
ATOM     30  O   UNL     1       5.637  34.121  48.391  0.00  0.00    -0.270 OA
ATOM     31  H   UNL     1       8.183  33.470  46.624  0.00  0.00    +0.155 HD
BRANCH  14  15
ATOM     15  C   UNL     1       7.548  33.020  49.099  0.00  0.00    +0.037 A 
ATOM     16  C   UNL     1       6.977  32.653  50.398  0.00  0.00    +0.013 A 
ATOM     17  C   UNL     1       7.809  32.051  51.410  0.00  0.00    +0.005 A 
ATOM     18  C   UNL     1       9.222  31.811  51.125  0.00  0.00    -0.033 A 
ATOM     28  C   UNL     1       9.761  32.180  49.827  0.00  0.00    +0.005 A 
ATOM     29  C   UNL     1       8.949  32.771  48.833  0.00  0.00    +0.013 A 
BRANCH  18  19
ATOM     19  C   UNL     1      10.188  31.193  52.153  0.00  0.00    +0.119 C 
BRANCH  19  20
ATOM     20  N   UNL     1      10.157  29.708  52.314  0.00  0.00    -0.302 NA
ATOM     21  C   UNL     1       8.998  29.252  53.205  0.00  0.00    +0.066 C 
ATOM     22  C   UNL     1       8.967  27.695  53.345  0.00  0.00    -0.064 C 
ATOM     23  N   UNL     1      10.305  27.209  53.905  0.00  0.00    +0.379 N 
ATOM     24  C   UNL     1      10.258  25.751  54.092  0.00  0.00    -0.096 C 
ATOM     25  H   UNL     1      10.440  27.675  54.909  0.00  0.00    -0.082 HD
ATOM     26  C   UNL     1      11.463  27.661  53.027  0.00  0.00    -0.064 C 
ATOM     27  C   UNL     1      11.467  29.208  52.871  0.00  0.00    +0.066 C 
ENDBRANCH  19  20
ENDBRANCH  18  19
ENDBRANCH  14  15
ENDBRANCH  12  13
TORSDOF 6
ENDMDL
MODEL 2
REMARK VINA RESULT:      -7.4      5.553     11.164
REMARK  Name = C:\Users\Docking\Desktop\test protocol\1iep_ligandH.pdb
REMARK  8 active torsions:
REMARK  status: ('A' for Active; 'I' for Inactive)
REMARK    1  A    between atoms: _5  and  _11
REMARK    2  A    between atoms: _19  and  _21
REMARK    3  A    between atoms: _22  and  _66
REMARK    4  A    between atoms: _27  and  _30
REMARK    5  A    between atoms: _32  and  _33
REMARK    6  A    between atoms: _38  and  _43
REMARK    7  A    between atoms: _43  and  _46
REMARK    8  A    between atoms: _53  and  _55
REMARK                            x       y       z     vdW  Elec       q    Type
REMARK                         _______ _______ _______ _____ _____    ______ ____
ROOT
ATOM     10  C   UNL     1      -1.457  27.384  36.794  0.00  0.00    +0.038 A 
ATOM     11  C   UNL     1      -0.875  28.278  37.729  0.00  0.00    +0.047 A 
ATOM     12  C   UNL     1      -1.309  28.304  39.117  0.00  0.00    +0.035 A 
ATOM     32  C   UNL     1      -2.338  27.403  39.520  0.00  0.00    +0.024 A 
ATOM     33  C   UNL     1      -2.942  26.489  38.583  0.00  0.00    +0.007 A 
ATOM     34  C   UNL     1      -2.519  26.461  37.212  0.00  0.00    -0.029 A 
ATOM     35  C   UNL     1      -3.206  25.464  36.250  0.00  0.00    +0.045 C 
ENDROOT
BRANCH  10   9
ATOM      4  C   UNL     1      -1.552  29.083  32.306  0.00  0.00    +0.077 A 
ATOM      5  C   UNL     1      -2.618  29.994  32.611  0.00  0.00    +0.048 A 
ATOM      6  C   UNL     1      -3.119  29.989  33.932  0.00  0.00    +0.116 A 
ATOM      7  N   UNL     1      -2.585  29.133  34.871  0.00  0.00    -0.223 NA
ATOM      8  C   UNL     1      -1.559  28.266  34.544  0.00  0.00    +0.220 A 
ATOM      9  N   UNL     1      -1.001  27.402  35.474  0.00  0.00    -0.283 N 
ATOM     36  H   UNL     1      -0.251  26.773  35.192  0.00  0.00    +0.155 HD
ATOM     37  N   UNL     1      -1.064  28.250  33.288  0.00  0.00    -0.214 NA
BRANCH   4   3
ATOM      1  C   UNL     1       0.739  27.966  29.339  0.00  0.00    +0.020 A 
ATOM      2  C   UNL     1       0.159  28.033  30.661  0.00  0.00    +0.013 A 
ATOM      3  C   UNL     1      -0.916  28.973  30.956  0.00  0.00    +0.019 A 
ATOM     38  C   UNL     1      -1.384  29.837  29.883  0.00  0.00    +0.120 A 
ATOM     39  N   UNL     1      -0.804  29.751  28.621  0.00  0.00    -0.263 NA
ATOM     40  C   UNL     1       0.231  28.852  28.325  0.00  0.00    +0.111 A 
ENDBRANCH   4   3
ENDBRANCH  10   9
BRANCH  12  13
ATOM     13  N   UNL     1      -0.760  29.195  40.109  0.00  0.00    -0.281 N 
ATOM     14  C   UNL     1       0.172  28.905  41.092  0.00  0.00    +0.248 C 
ATOM     30  O   UNL     1       0.518  27.776  41.404  0.00  0.00    -0.270 OA
ATOM     31  H   UNL     1      -1.100  30.157  40.083  0.00  0.00    +0.155 HD
BRANCH  14  15
ATOM     15  C   UNL     1       0.799  30.032  41.847  0.00  0.00    +0.037 A 
ATOM     16  C   UNL     1       0.891  30.009  43.309  0.00  0.00    +0.013 A 
ATOM     17  C   UNL     1       1.486  31.117  44.014  0.00  0.00    +0.005 A 
ATOM     18  C   UNL     1       1.995  32.257  43.256  0.00  0.00    -0.033 A 
ATOM     28  C   UNL     1       1.897  32.251  41.806  0.00  0.00    +0.005 A 
ATOM     29  C   UNL     1       1.313  31.168  41.112  0.00  0.00    +0.013 A 
BRANCH  18  19
ATOM     19  C   UNL     1       2.627  33.492  43.926  0.00  0.00    +0.119 C 
BRANCH  19  20
ATOM     20  N   UNL     1       3.745  33.252  44.886  0.00  0.00    -0.302 NA
ATOM     21  C   UNL     1       4.184  34.539  45.590  0.00  0.00    +0.066 C 
ATOM     22  C   UNL     1       5.339  34.266  46.607  0.00  0.00    -0.064 C 
ATOM     23  N   UNL     1       6.517  33.621  45.875  0.00  0.00    +0.379 N 
ATOM     24  C   UNL     1       7.627  33.415  46.818  0.00  0.00    -0.096 C 
ATOM     25  H   UNL     1       6.864  34.337  45.095  0.00  0.00    -0.082 HD
ATOM     26  C   UNL     1       6.089  32.341  45.170  0.00  0.00    -0.064 C 
ATOM     27  C   UNL     1       4.921  32.619  44.183  0.00  0.00    +0.066 C 
ENDBRANCH  19  20
ENDBRANCH  18  19
ENDBRANCH  14  15
ENDBRANCH  12  13
TORSDOF 6
ENDMDL
MODEL 3
REMARK VINA RESULT:      -7.4     17.885     23.081
REMARK  Name = C:\Users\Docking\Desktop\test protocol\1iep_ligandH.pdb
REMARK  8 active torsions:
REMARK  status: ('A' for Active; 'I' for Inactive)
REMARK    1  A    between atoms: _5  and  _11
REMARK    2  A    between atoms: _19  and  _21
REMARK    3  A    between atoms: _22  and  _66
REMARK    4  A    between atoms: _27  and  _30
REMARK    5  A    between atoms: _32  and  _33
REMARK    6  A    between atoms: _38  and  _43
REMARK    7  A    between atoms: _43  and  _46
REMARK    8  A    between atoms: _53  and  _55
REMARK                            x       y       z     vdW  Elec       q    Type
REMARK                         _______ _______ _______ _____ _____    ______ ____
ROOT
ATOM     10  C   UNL     1      12.555  16.386  33.968  0.00  0.00    +0.038 A 
ATOM     11  C   UNL     1      11.333  16.937  33.506  0.00  0.00    +0.047 A 
ATOM     12  C   UNL     1      10.111  16.818  34.285  0.00  0.00    +0.035 A 
ATOM     32  C   UNL     1      10.170  16.132  35.533  0.00  0.00    +0.024 A 
ATOM     33  C   UNL     1      11.404  15.565  36.018  0.00  0.00    +0.007 A 
ATOM     34  C   UNL     1      12.612  15.678  35.253  0.00  0.00    -0.029 A 
ATOM     35  C   UNL     1      13.904  15.045  35.818  0.00  0.00    +0.045 C 
ENDROOT
BRANCH  10   9
ATOM      4  C   UNL     1      15.550  14.870  30.537  0.00  0.00    +0.077 A 
ATOM      5  C   UNL     1      14.786  13.675  30.317  0.00  0.00    +0.048 A 
ATOM      6  C   UNL     1      13.634  13.486  31.112  0.00  0.00    +0.116 A 
ATOM      7  N   UNL     1      13.280  14.427  32.054  0.00  0.00    -0.223 NA
ATOM      8  C   UNL     1      14.040  15.567  32.243  0.00  0.00    +0.220 A 
ATOM      9  N   UNL     1      13.699  16.531  33.179  0.00  0.00    -0.283 N 
ATOM     36  H   UNL     1      14.289  17.354  33.293  0.00  0.00    +0.155 HD
ATOM     37  N   UNL     1      15.145  15.771  31.497  0.00  0.00    -0.214 NA
BRANCH   4   3
ATOM      1  C   UNL     1      19.223  14.882  29.193  0.00  0.00    +0.020 A 
ATOM      2  C   UNL     1      18.054  14.511  29.956  0.00  0.00    +0.013 A 
ATOM      3  C   UNL     1      16.791  15.214  29.774  0.00  0.00    +0.019 A 
ATOM     38  C   UNL     1      16.743  16.297  28.803  0.00  0.00    +0.120 A 
ATOM     39  N   UNL     1      17.886  16.634  28.084  0.00  0.00    -0.263 NA
ATOM     40  C   UNL     1      19.107  15.965  28.252  0.00  0.00    +0.111 A 
ENDBRANCH   4   3
ENDBRANCH  10   9
BRANCH  12  13
ATOM     13  N   UNL     1       8.839  17.350  33.863  0.00  0.00    -0.281 N 
ATOM     14  C   UNL     1       7.600  16.731  33.905  0.00  0.00    +0.248 C 
ATOM     30  O   UNL     1       7.430  15.539  34.116  0.00  0.00    -0.270 OA
ATOM     31  H   UNL     1       8.854  18.298  33.487  0.00  0.00    +0.155 HD
BRANCH  14  15
ATOM     15  C   UNL     1       6.375  17.551  33.663  0.00  0.00    +0.037 A 
ATOM     16  C   UNL     1       6.153  18.813  34.373  0.00  0.00    +0.013 A 
ATOM     17  C   UNL     1       4.954  19.577  34.135  0.00  0.00    +0.005 A 
ATOM     18  C   UNL     1       3.967  19.079  33.179  0.00  0.00    -0.033 A 
ATOM     28  C   UNL     1       4.215  17.827  32.485  0.00  0.00    +0.005 A 
ATOM     29  C   UNL     1       5.388  17.075  32.717  0.00  0.00    +0.013 A 
BRANCH  18  19
ATOM     19  C   UNL     1       2.649  19.817  32.877  0.00  0.00    +0.119 C 
BRANCH  19  20
ATOM     20  N   UNL     1       1.790  20.186  34.042  0.00  0.00    -0.302 NA
ATOM     21  C   UNL     1       0.475  19.402  34.057  0.00  0.00    +0.066 C 
ATOM     22  C   UNL     1      -0.402  19.784  35.294  0.00  0.00    -0.064 C 
ATOM     23  N   UNL     1      -0.669  21.290  35.280  0.00  0.00    +0.379 N 
ATOM     24  C   UNL     1      -1.541  21.643  36.410  0.00  0.00    -0.096 C 
ATOM     25  H   UNL     1      -1.220  21.527  34.341  0.00  0.00    -0.082 HD
ATOM     26  C   UNL     1       0.633  22.077  35.263  0.00  0.00    -0.064 C 
ATOM     27  C   UNL     1       1.510  21.669  34.046  0.00  0.00    +0.066 C 
ENDBRANCH  19  20
ENDBRANCH  18  19
ENDBRANCH  14  15
ENDBRANCH  12  13
TORSDOF 6
ENDMDL
MODEL 4
REMARK VINA RESULT:      -7.3     24.508     26.754
REMARK  Name = C:\Users\Docking\Desktop\test protocol\1iep_ligandH.pdb
REMARK  8 active torsions:
REMARK  status: ('A' for Active; 'I' for Inactive)
REMARK    1  A    between atoms: _5  and  _11
REMARK    2  A    between atoms: _19  and  _21
REMARK    3  A    between atoms: _22  and  _66
REMARK    4  A    between atoms: _27  and  _30
REMARK    5  A    between atoms: _32  and  _33
REMARK    6  A    between atoms: _38  and  _43
REMARK    7  A    between atoms: _43  and  _46
REMARK    8  A    between atoms: _53  and  _55
REMARK                            x       y       z     vdW  Elec       q    Type
REMARK                         _______ _______ _______ _____ _____    ______ ____
ROOT
ATOM     10  C   UNL     1      25.298  36.801  31.759  0.00  0.00    +0.038 A 
ATOM     11  C   UNL     1      25.499  35.494  31.245  0.00  0.00    +0.047 A 
ATOM     12  C   UNL     1      26.018  35.285  29.902  0.00  0.00    +0.035 A 
ATOM     32  C   UNL     1      26.324  36.430  29.110  0.00  0.00    +0.024 A 
ATOM     33  C   UNL     1      26.125  37.765  29.616  0.00  0.00    +0.007 A 
ATOM     34  C   UNL     1      25.611  37.978  30.939  0.00  0.00    -0.029 A 
ATOM     35  C   UNL     1      25.412  39.432  31.427  0.00  0.00    +0.045 C 
ENDROOT
BRANCH  10   9
ATOM      4  C   UNL     1      21.676  37.338  34.861  0.00  0.00    +0.077 A 
ATOM      5  C   UNL     1      20.700  37.363  33.810  0.00  0.00    +0.048 A 
ATOM      6  C   UNL     1      21.173  37.242  32.484  0.00  0.00    +0.116 A 
ATOM      7  N   UNL     1      22.522  37.106  32.239  0.00  0.00    -0.223 NA
ATOM      8  C   UNL     1      23.436  37.087  33.277  0.00  0.00    +0.220 A 
ATOM      9  N   UNL     1      24.797  36.944  33.055  0.00  0.00    -0.283 N 
ATOM     36  H   UNL     1      25.440  36.942  33.846  0.00  0.00    +0.155 HD
ATOM     37  N   UNL     1      23.011  37.203  34.552  0.00  0.00    -0.214 NA
BRANCH   4   3
ATOM      1  C   UNL     1      20.089  36.715  38.382  0.00  0.00    +0.020 A 
ATOM      2  C   UNL     1      20.385  36.563  36.976  0.00  0.00    +0.013 A 
ATOM      3  C   UNL     1      21.332  37.451  36.314  0.00  0.00    +0.019 A 
ATOM     38  C   UNL     1      21.968  38.491  37.110  0.00  0.00    +0.120 A 
ATOM     39  N   UNL     1      21.662  38.614  38.461  0.00  0.00    -0.263 NA
ATOM     40  C   UNL     1      20.751  37.766  39.109  0.00  0.00    +0.111 A 
ENDBRANCH   4   3
ENDBRANCH  10   9
BRANCH  12  13
ATOM     13  N   UNL     1      26.235  33.982  29.324  0.00  0.00    -0.281 N 
ATOM     14  C   UNL     1      27.286  33.111  29.558  0.00  0.00    +0.248 C 
ATOM     30  O   UNL     1      28.317  33.413  30.142  0.00  0.00    -0.270 OA
ATOM     31  H   UNL     1      25.527  33.663  28.662  0.00  0.00    +0.155 HD
BRANCH  14  15
ATOM     15  C   UNL     1      27.185  31.706  29.058  0.00  0.00    +0.037 A 
ATOM     16  C   UNL     1      26.198  30.773  29.608  0.00  0.00    +0.013 A 
ATOM     17  C   UNL     1      26.133  29.419  29.120  0.00  0.00    +0.005 A 
ATOM     18  C   UNL     1      27.058  28.989  28.074  0.00  0.00    -0.033 A 
ATOM     28  C   UNL     1      28.023  29.937  27.542  0.00  0.00    +0.005 A 
ATOM     29  C   UNL     1      28.091  31.265  28.019  0.00  0.00    +0.013 A 
BRANCH  18  19
ATOM     19  C   UNL     1      27.074  27.556  27.509  0.00  0.00    +0.119 C 
BRANCH  19  20
ATOM     20  N   UNL     1      28.394  26.863  27.440  0.00  0.00    -0.302 NA
ATOM     21  C   UNL     1      28.294  25.504  26.741  0.00  0.00    +0.066 C 
ATOM     22  C   UNL     1      29.689  24.803  26.657  0.00  0.00    -0.064 C 
ATOM     23  N   UNL     1      30.263  24.646  28.067  0.00  0.00    +0.379 N 
ATOM     24  C   UNL     1      31.548  23.935  27.997  0.00  0.00    -0.096 C 
ATOM     25  H   UNL     1      29.556  24.012  28.650  0.00  0.00    -0.082 HD
ATOM     26  C   UNL     1      30.363  25.992  28.770  0.00  0.00    -0.064 C 
ATOM     27  C   UNL     1      28.977  26.694  28.821  0.00  0.00    +0.066 C 
ENDBRANCH  19  20
ENDBRANCH  18  19
ENDBRANCH  14  15
ENDBRANCH  12  13
TORSDOF 6
ENDMDL
MODEL 5
REMARK VINA RESULT:      -7.3      5.601      9.635
REMARK  Name = C:\Users\Docking\Desktop\test protocol\1iep_ligandH.pdb
REMARK  8 active torsions:
REMARK  status: ('A' for Active; 'I' for Inactive)
REMARK    1  A    between atoms: _5  and  _11
REMARK    2  A    between atoms: _19  and  _21
REMARK    3  A    between atoms: _22  and  _66
REMARK    4  A    between atoms: _27  and  _30
REMARK    5  A    between atoms: _32  and  _33
REMARK    6  A    between atoms: _38  and  _43
REMARK    7  A    between atoms: _43  and  _46
REMARK    8  A    between atoms: _53  and  _55
REMARK                            x       y       z     vdW  Elec       q    Type
REMARK                         _______ _______ _______ _____ _____    ______ ____
ROOT
ATOM     10  C   UNL     1      -1.115  28.981  39.370  0.00  0.00    +0.038 A 
ATOM     11  C   UNL     1       0.025  29.662  39.868  0.00  0.00    +0.047 A 
ATOM     12  C   UNL     1       0.308  29.712  41.294  0.00  0.00    +0.035 A 
ATOM     32  C   UNL     1      -0.590  29.056  42.185  0.00  0.00    +0.024 A 
ATOM     33  C   UNL     1      -1.755  28.360  41.696  0.00  0.00    +0.007 A 
ATOM     34  C   UNL     1      -2.041  28.309  40.291  0.00  0.00    -0.029 A 
ATOM     35  C   UNL     1      -3.307  27.554  39.823  0.00  0.00    +0.045 C 
ENDROOT
BRANCH  10   9
ATOM      4  C   UNL     1      -1.078  26.784  35.103  0.00  0.00    +0.077 A 
ATOM      5  C   UNL     1      -0.542  25.577  35.663  0.00  0.00    +0.048 A 
ATOM      6  C   UNL     1      -0.284  25.565  37.052  0.00  0.00    +0.116 A 
ATOM      7  N   UNL     1      -0.546  26.682  37.814  0.00  0.00    -0.223 NA
ATOM      8  C   UNL     1      -1.061  27.831  37.242  0.00  0.00    +0.220 A 
ATOM      9  N   UNL     1      -1.339  28.964  37.991  0.00  0.00    -0.283 N 
ATOM     36  H   UNL     1      -1.711  29.794  37.531  0.00  0.00    +0.155 HD
ATOM     37  N   UNL     1      -1.314  27.869  35.918  0.00  0.00    -0.214 NA
BRANCH   4   3
ATOM      1  C   UNL     1      -0.759  27.289  31.237  0.00  0.00    +0.020 A 
ATOM      2  C   UNL     1      -0.388  27.133  32.624  0.00  0.00    +0.013 A 
ATOM      3  C   UNL     1      -1.406  26.952  33.652  0.00  0.00    +0.019 A 
ATOM     38  C   UNL     1      -2.801  26.932  33.238  0.00  0.00    +0.120 A 
ATOM     39  N   UNL     1      -3.128  27.087  31.894  0.00  0.00    -0.263 NA
ATOM     40  C   UNL     1      -2.157  27.264  30.897  0.00  0.00    +0.111 A 
ENDBRANCH   4   3
ENDBRANCH  10   9
BRANCH  12  13
ATOM     13  N   UNL     1       1.446  30.395  41.858  0.00  0.00    -0.281 N 
ATOM     14  C   UNL     1       1.595  31.752  42.091  0.00  0.00    +0.248 C 
ATOM     30  O   UNL     1       0.851  32.615  41.650  0.00  0.00    -0.270 OA
ATOM     31  H   UNL     1       2.237  29.806  42.118  0.00  0.00    +0.155 HD
BRANCH  14  15
ATOM     15  C   UNL     1       2.745  32.219  42.923  0.00  0.00    +0.037 A 
ATOM     16  C   UNL     1       2.545  32.715  44.288  0.00  0.00    +0.013 A 
ATOM     17  C   UNL     1       3.670  33.176  45.062  0.00  0.00    +0.005 A 
ATOM     18  C   UNL     1       5.007  33.142  44.474  0.00  0.00    -0.033 A 
ATOM     28  C   UNL     1       5.178  32.641  43.121  0.00  0.00    +0.005 A 
ATOM     29  C   UNL     1       4.077  32.189  42.358  0.00  0.00    +0.013 A 
BRANCH  18  19
ATOM     19  C   UNL     1       6.261  33.633  45.220  0.00  0.00    +0.119 C 
BRANCH  19  20
ATOM     20  N   UNL     1       6.307  35.076  45.605  0.00  0.00    -0.302 NA
ATOM     21  C   UNL     1       6.192  35.999  44.389  0.00  0.00    +0.066 C 
ATOM     22  C   UNL     1       6.218  37.504  44.812  0.00  0.00    -0.064 C 
ATOM     23  N   UNL     1       7.504  37.789  45.590  0.00  0.00    +0.379 N 
ATOM     24  C   UNL     1       7.560  39.216  45.939  0.00  0.00    -0.096 C 
ATOM     25  H   UNL     1       8.363  37.573  44.913  0.00  0.00    -0.082 HD
ATOM     26  C   UNL     1       7.628  36.874  46.800  0.00  0.00    -0.064 C 
ATOM     27  C   UNL     1       7.570  35.381  46.371  0.00  0.00    +0.066 C 
ENDBRANCH  19  20
ENDBRANCH  18  19
ENDBRANCH  14  15
ENDBRANCH  12  13
TORSDOF 6
ENDMDL
