MODEL 1
REMARK VINA RESULT:      -7.4      0.000      0.000
REMARK  Name = C:\Users\Docking\Desktop\test protocol\1iep_ligandH.pdb
REMARK  8 active torsions:
REMARK  status: ('A' for Active; 'I' for Inactive)
REMARK    1  A    between atoms: _5  and  _11
REMARK    2  A    between atoms: _19  and  _21
REMARK    3  A    between atoms: _22  and  _66
REMARK    4  A    between atoms: _27  and  _30
REMARK    5  A    between atoms: _32  and  _33
REMARK    6  A    between atoms: _38  and  _43
REMARK    7  A    between atoms: _43  and  _46
REMARK    8  A    between atoms: _53  and  _55
REMARK                            x       y       z     vdW  Elec       q    Type
REMARK                         _______ _______ _______ _____ _____    ______ ____
ROOT
ATOM     10  C   UNL     1      27.584 -18.536  15.366  0.00  0.00    +0.038 A 
ATOM     11  C   UNL     1      27.191 -17.357  14.682  0.00  0.00    +0.047 A 
ATOM     12  C   UNL     1      28.169 -16.357  14.284  0.00  0.00    +0.035 A 
ATOM     32  C   UNL     1      29.540 -16.590  14.597  0.00  0.00    +0.024 A 
ATOM     33  C   UNL     1      29.957 -17.783  15.292  0.00  0.00    +0.007 A 
ATOM     34  C   UNL     1      28.997 -18.772  15.689  0.00  0.00    -0.029 A 
ATOM     35  C   UNL     1      29.499 -20.028  16.438  0.00  0.00    +0.045 C 
ENDROOT
BRANCH  10   9
ATOM      4  C   UNL     1      25.181 -22.634  14.680  0.00  0.00    +0.077 A 
ATOM      5  C   UNL     1      25.925 -22.940  13.492  0.00  0.00    +0.048 A 
ATOM      6  C   UNL     1      26.912 -22.014  13.087  0.00  0.00    +0.116 A 
ATOM      7  N   UNL     1      27.131 -20.870  13.824  0.00  0.00    -0.223 NA
ATOM      8  C   UNL     1      26.395 -20.604  14.964  0.00  0.00    +0.220 A 
ATOM      9  N   UNL     1      26.603 -19.463  15.724  0.00  0.00    -0.283 N 
ATOM     36  H   UNL     1      26.034 -19.300  16.554  0.00  0.00    +0.155 HD
ATOM     37  N   UNL     1      25.445 -21.472  15.370  0.00  0.00    -0.214 NA
BRANCH   4   3
ATOM      1  C   UNL     1      22.158 -25.098  14.984  0.00  0.00    +0.020 A 
ATOM      2  C   UNL     1      23.177 -24.259  14.396  0.00  0.00    +0.013 A 
ATOM      3  C   UNL     1      24.107 -23.516  15.237  0.00  0.00    +0.019 A 
ATOM     38  C   UNL     1      23.979 -23.644  16.680  0.00  0.00    +0.120 A 
ATOM     39  N   UNL     1      22.987 -24.458  17.218  0.00  0.00    -0.263 NA
ATOM     40  C   UNL     1      22.085 -25.177  16.419  0.00  0.00    +0.111 A 
ENDBRANCH   4   3
ENDBRANCH  10   9
BRANCH  12  13
ATOM     13  N   UNL     1      27.829 -15.137  13.595  0.00  0.00    -0.281 N 
ATOM     14  C   UNL     1      27.170 -14.028  14.102  0.00  0.00    +0.248 C 
ATOM     30  O   UNL     1      26.582 -14.003  15.173  0.00  0.00    -0.270 OA
ATOM     31  H   UNL     1      28.106 -15.084  12.615  0.00  0.00    +0.155 HD
BRANCH  14  15
ATOM     15  C   UNL     1      27.150 -12.770  13.295  0.00  0.00    +0.037 A 
ATOM     16  C   UNL     1      25.887 -12.144  12.894  0.00  0.00    +0.013 A 
ATOM     17  C   UNL     1      25.896 -10.940  12.102  0.00  0.00    +0.005 A 
ATOM     18  C   UNL     1      27.174 -10.352  11.707  0.00  0.00    -0.033 A 
ATOM     28  C   UNL     1      28.412 -10.990  12.123  0.00  0.00    +0.005 A 
ATOM     29  C   UNL     1      28.407 -12.171  12.899  0.00  0.00    +0.013 A 
BRANCH  18  19
ATOM     19  C   UNL     1      27.278  -9.080  10.845  0.00  0.00    +0.119 C 
BRANCH  19  20
ATOM     20  N   UNL     1      26.018  -8.564  10.233  0.00  0.00    -0.302 NA
ATOM     21  C   UNL     1      26.124  -8.446   8.710  0.00  0.00    +0.066 C 
ATOM     22  C   UNL     1      24.790  -7.926   8.084  0.00  0.00    -0.064 C 
ATOM     23  N   UNL     1      24.429  -6.576   8.707  0.00  0.00    +0.379 N 
ATOM     24  C   UNL     1      23.206  -6.057   8.079  0.00  0.00    -0.096 C 
ATOM     25  H   UNL     1      25.257  -5.866   8.475  0.00  0.00    -0.082 HD
ATOM     26  C   UNL     1      24.324  -6.683  10.222  0.00  0.00    -0.064 C 
ATOM     27  C   UNL     1      25.645  -7.229  10.831  0.00  0.00    +0.066 C 
ENDBRANCH  19  20
ENDBRANCH  18  19
ENDBRANCH  14  15
ENDBRANCH  12  13
TORSDOF 6
ENDMDL
MODEL 2
REMARK VINA RESULT:      -7.1      3.525      4.349
REMARK  Name = C:\Users\Docking\Desktop\test protocol\1iep_ligandH.pdb
REMARK  8 active torsions:
REMARK  status: ('A' for Active; 'I' for Inactive)
REMARK    1  A    between atoms: _5  and  _11
REMARK    2  A    between atoms: _19  and  _21
REMARK    3  A    between atoms: _22  and  _66
REMARK    4  A    between atoms: _27  and  _30
REMARK    5  A    between atoms: _32  and  _33
REMARK    6  A    between atoms: _38  and  _43
REMARK    7  A    between atoms: _43  and  _46
REMARK    8  A    between atoms: _53  and  _55
REMARK                            x       y       z     vdW  Elec       q    Type
REMARK                         _______ _______ _______ _____ _____    ______ ____
ROOT
ATOM     10  C   UNL     1      27.185 -19.782  14.655  0.00  0.00    +0.038 A 
ATOM     11  C   UNL     1      26.566 -18.509  14.746  0.00  0.00    +0.047 A 
ATOM     12  C   UNL     1      27.320 -17.333  15.150  0.00  0.00    +0.035 A 
ATOM     32  C   UNL     1      28.704 -17.488  15.451  0.00  0.00    +0.024 A 
ATOM     33  C   UNL     1      29.350 -18.774  15.364  0.00  0.00    +0.007 A 
ATOM     34  C   UNL     1      28.610 -19.939  14.969  0.00  0.00    -0.029 A 
ATOM     35  C   UNL     1      29.352 -21.294  14.900  0.00  0.00    +0.045 C 
ENDROOT
BRANCH  10   9
ATOM      4  C   UNL     1      24.297 -23.491  15.627  0.00  0.00    +0.077 A 
ATOM      5  C   UNL     1      24.352 -23.240  17.038  0.00  0.00    +0.048 A 
ATOM      6  C   UNL     1      25.140 -22.151  17.474  0.00  0.00    +0.116 A 
ATOM      7  N   UNL     1      25.819 -21.377  16.557  0.00  0.00    -0.223 NA
ATOM      8  C   UNL     1      25.746 -21.648  15.203  0.00  0.00    +0.220 A 
ATOM      9  N   UNL     1      26.413 -20.878  14.263  0.00  0.00    -0.283 N 
ATOM     36  H   UNL     1      26.340 -21.114  13.273  0.00  0.00    +0.155 HD
ATOM     37  N   UNL     1      25.001 -22.683  14.762  0.00  0.00    -0.214 NA
BRANCH   4   3
ATOM      1  C   UNL     1      21.367 -25.588  14.105  0.00  0.00    +0.020 A 
ATOM      2  C   UNL     1      22.086 -24.485  14.699  0.00  0.00    +0.013 A 
ATOM      3  C   UNL     1      23.505 -24.602  15.012  0.00  0.00    +0.019 A 
ATOM     38  C   UNL     1      24.172 -25.859  14.708  0.00  0.00    +0.120 A 
ATOM     39  N   UNL     1      23.453 -26.905  14.138  0.00  0.00    -0.263 NA
ATOM     40  C   UNL     1      22.087 -26.804  13.833  0.00  0.00    +0.111 A 
ENDBRANCH   4   3
ENDBRANCH  10   9
BRANCH  12  13
ATOM     13  N   UNL     1      26.743 -16.016  15.268  0.00  0.00    -0.281 N 
ATOM     14  C   UNL     1      26.918 -14.931  14.426  0.00  0.00    +0.248 C 
ATOM     30  O   UNL     1      27.772 -14.864  13.554  0.00  0.00    -0.270 OA
ATOM     31  H   UNL     1      26.131 -15.867  16.071  0.00  0.00    +0.155 HD
BRANCH  14  15
ATOM     15  C   UNL     1      26.025 -13.743  14.583  0.00  0.00    +0.037 A 
ATOM     16  C   UNL     1      25.046 -13.667  15.671  0.00  0.00    +0.013 A 
ATOM     17  C   UNL     1      24.185 -12.517  15.790  0.00  0.00    +0.005 A 
ATOM     18  C   UNL     1      24.301 -11.432  14.819  0.00  0.00    -0.033 A 
ATOM     28  C   UNL     1      25.284 -11.531  13.753  0.00  0.00    +0.005 A 
ATOM     29  C   UNL     1      26.129 -12.657  13.632  0.00  0.00    +0.013 A 
BRANCH  18  19
ATOM     19  C   UNL     1      23.409 -10.177  14.857  0.00  0.00    +0.119 C 
BRANCH  19  20
ATOM     20  N   UNL     1      21.988 -10.360  15.280  0.00  0.00    -0.302 NA
ATOM     21  C   UNL     1      21.125 -10.942  14.157  0.00  0.00    +0.066 C 
ATOM     22  C   UNL     1      19.647 -11.148  14.624  0.00  0.00    -0.064 C 
ATOM     23  N   UNL     1      19.078  -9.814  15.110  0.00  0.00    +0.379 N 
ATOM     24  C   UNL     1      17.670  -9.992  15.495  0.00  0.00    -0.096 C 
ATOM     25  H   UNL     1      19.106  -9.102  14.252  0.00  0.00    -0.082 HD
ATOM     26  C   UNL     1      19.932  -9.227  16.225  0.00  0.00    -0.064 C 
ATOM     27  C   UNL     1      21.405  -9.054  15.759  0.00  0.00    +0.066 C 
ENDBRANCH  19  20
ENDBRANCH  18  19
ENDBRANCH  14  15
ENDBRANCH  12  13
TORSDOF 6
ENDMDL
MODEL 3
REMARK VINA RESULT:      -7.1      2.562     13.484
REMARK  Name = C:\Users\Docking\Desktop\test protocol\1iep_ligandH.pdb
REMARK  8 active torsions:
REMARK  status: ('A' for Active; 'I' for Inactive)
REMARK    1  A    between atoms: _5  and  _11
REMARK    2  A    between atoms: _19  and  _21
REMARK    3  A    between atoms: _22  and  _66
REMARK    4  A    between atoms: _27  and  _30
REMARK    5  A    between atoms: _32  and  _33
REMARK    6  A    between atoms: _38  and  _43
REMARK    7  A    between atoms: _43  and  _46
REMARK    8  A    between atoms: _53  and  _55
REMARK                            x       y       z     vdW  Elec       q    Type
REMARK                         _______ _______ _______ _____ _____    ______ ____
ROOT
ATOM     10  C   UNL     1      27.948 -14.798  14.505  0.00  0.00    +0.038 A 
ATOM     11  C   UNL     1      27.313 -16.032  14.213  0.00  0.00    +0.047 A 
ATOM     12  C   UNL     1      27.218 -17.085  15.212  0.00  0.00    +0.035 A 
ATOM     32  C   UNL     1      27.778 -16.845  16.501  0.00  0.00    +0.024 A 
ATOM     33  C   UNL     1      28.427 -15.597  16.815  0.00  0.00    +0.007 A 
ATOM     34  C   UNL     1      28.526 -14.556  15.832  0.00  0.00    -0.029 A 
ATOM     35  C   UNL     1      29.239 -13.240  16.223  0.00  0.00    +0.045 C 
ENDROOT
BRANCH  10   9
ATOM      4  C   UNL     1      26.337 -10.806  12.381  0.00  0.00    +0.077 A 
ATOM      5  C   UNL     1      25.262 -10.668  13.322  0.00  0.00    +0.048 A 
ATOM      6  C   UNL     1      25.155 -11.650  14.333  0.00  0.00    +0.116 A 
ATOM      7  N   UNL     1      26.061 -12.687  14.389  0.00  0.00    -0.223 NA
ATOM      8  C   UNL     1      27.084 -12.792  13.465  0.00  0.00    +0.220 A 
ATOM      9  N   UNL     1      28.011 -13.822  13.508  0.00  0.00    -0.283 N 
ATOM     36  H   UNL     1      28.746 -13.868  12.804  0.00  0.00    +0.155 HD
ATOM     37  N   UNL     1      27.207 -11.868  12.489  0.00  0.00    -0.214 NA
BRANCH   4   3
ATOM      1  C   UNL     1      25.806  -8.373   9.365  0.00  0.00    +0.020 A 
ATOM      2  C   UNL     1      25.513  -9.295  10.438  0.00  0.00    +0.013 A 
ATOM      3  C   UNL     1      26.584  -9.848  11.258  0.00  0.00    +0.019 A 
ATOM     38  C   UNL     1      27.951  -9.444  10.964  0.00  0.00    +0.120 A 
ATOM     39  N   UNL     1      28.202  -8.555   9.923  0.00  0.00    -0.263 NA
ATOM     40  C   UNL     1      27.180  -8.018   9.127  0.00  0.00    +0.111 A 
ENDBRANCH   4   3
ENDBRANCH  10   9
BRANCH  12  13
ATOM     13  N   UNL     1      26.593 -18.361  14.970  0.00  0.00    -0.281 N 
ATOM     14  C   UNL     1      27.203 -19.599  14.846  0.00  0.00    +0.248 C 
ATOM     30  O   UNL     1      28.406 -19.765  14.712  0.00  0.00    -0.270 OA
ATOM     31  H   UNL     1      25.577 -18.352  14.879  0.00  0.00    +0.155 HD
BRANCH  14  15
ATOM     15  C   UNL     1      26.353 -20.828  14.859  0.00  0.00    +0.037 A 
ATOM     16  C   UNL     1      25.569 -21.197  16.041  0.00  0.00    +0.013 A 
ATOM     17  C   UNL     1      24.771 -22.397  16.033  0.00  0.00    +0.005 A 
ATOM     18  C   UNL     1      24.751 -23.236  14.837  0.00  0.00    -0.033 A 
ATOM     28  C   UNL     1      25.534 -22.844  13.677  0.00  0.00    +0.005 A 
ATOM     29  C   UNL     1      26.319 -21.669  13.682  0.00  0.00    +0.013 A 
BRANCH  18  19
ATOM     19  C   UNL     1      23.944 -24.545  14.747  0.00  0.00    +0.119 C 
BRANCH  19  20
ATOM     20  N   UNL     1      24.536 -25.758  15.386  0.00  0.00    -0.302 NA
ATOM     21  C   UNL     1      26.042 -25.609  15.620  0.00  0.00    +0.066 C 
ATOM     22  C   UNL     1      26.640 -26.878  16.310  0.00  0.00    -0.064 C 
ATOM     23  N   UNL     1      26.345 -28.109  15.451  0.00  0.00    +0.379 N 
ATOM     24  C   UNL     1      26.956 -29.295  16.068  0.00  0.00    -0.096 C 
ATOM     25  H   UNL     1      26.831 -27.954  14.460  0.00  0.00    -0.082 HD
ATOM     26  C   UNL     1      24.849 -28.264  15.212  0.00  0.00    -0.064 C 
ATOM     27  C   UNL     1      24.260 -26.986  14.553  0.00  0.00    +0.066 C 
ENDBRANCH  19  20
ENDBRANCH  18  19
ENDBRANCH  14  15
ENDBRANCH  12  13
TORSDOF 6
ENDMDL
MODEL 4
REMARK VINA RESULT:      -7.1      7.326     10.290
REMARK  Name = C:\Users\Docking\Desktop\test protocol\1iep_ligandH.pdb
REMARK  8 active torsions:
REMARK  status: ('A' for Active; 'I' for Inactive)
REMARK    1  A    between atoms: _5  and  _11
REMARK    2  A    between atoms: _19  and  _21
REMARK    3  A    between atoms: _22  and  _66
REMARK    4  A    between atoms: _27  and  _30
REMARK    5  A    between atoms: _32  and  _33
REMARK    6  A    between atoms: _38  and  _43
REMARK    7  A    between atoms: _43  and  _46
REMARK    8  A    between atoms: _53  and  _55
REMARK                            x       y       z     vdW  Elec       q    Type
REMARK                         _______ _______ _______ _____ _____    ______ ____
ROOT
ATOM     10  C   UNL     1      22.232 -25.023  15.480  0.00  0.00    +0.038 A 
ATOM     11  C   UNL     1      23.494 -24.440  15.196  0.00  0.00    +0.047 A 
ATOM     12  C   UNL     1      24.122 -23.515  16.127  0.00  0.00    +0.035 A 
ATOM     32  C   UNL     1      23.439 -23.208  17.339  0.00  0.00    +0.024 A 
ATOM     33  C   UNL     1      22.155 -23.791  17.644  0.00  0.00    +0.007 A 
ATOM     34  C   UNL     1      21.529 -24.702  16.728  0.00  0.00    -0.029 A 
ATOM     35  C   UNL     1      20.150 -25.291  17.103  0.00  0.00    +0.045 C 
ENDROOT
BRANCH  10   9
ATOM      4  C   UNL     1      19.442 -25.973  11.693  0.00  0.00    +0.077 A 
ATOM      5  C   UNL     1      19.038 -24.602  11.571  0.00  0.00    +0.048 A 
ATOM      6  C   UNL     1      19.566 -23.685  12.508  0.00  0.00    +0.116 A 
ATOM      7  N   UNL     1      20.432 -24.118  13.488  0.00  0.00    -0.223 NA
ATOM      8  C   UNL     1      20.799 -25.448  13.578  0.00  0.00    +0.220 A 
ATOM      9  N   UNL     1      21.675 -25.904  14.551  0.00  0.00    -0.283 N 
ATOM     36  H   UNL     1      21.915 -26.895  14.589  0.00  0.00    +0.155 HD
ATOM     37  N   UNL     1      20.308 -26.344  12.697  0.00  0.00    -0.214 NA
BRANCH   4   3
ATOM      1  C   UNL     1      19.329 -29.177   9.452  0.00  0.00    +0.020 A 
ATOM      2  C   UNL     1      19.832 -28.152  10.337  0.00  0.00    +0.013 A 
ATOM      3  C   UNL     1      18.972 -27.060  10.777  0.00  0.00    +0.019 A 
ATOM     38  C   UNL     1      17.597 -27.036  10.300  0.00  0.00    +0.120 A 
ATOM     39  N   UNL     1      17.141 -28.036   9.447  0.00  0.00    -0.263 NA
ATOM     40  C   UNL     1      17.960 -29.090   9.016  0.00  0.00    +0.111 A 
ENDBRANCH   4   3
ENDBRANCH  10   9
BRANCH  12  13
ATOM     13  N   UNL     1      25.398 -22.886  15.889  0.00  0.00    -0.281 N 
ATOM     14  C   UNL     1      25.812 -22.202  14.758  0.00  0.00    +0.248 C 
ATOM     30  O   UNL     1      25.219 -22.211  13.689  0.00  0.00    -0.270 OA
ATOM     31  H   UNL     1      26.078 -22.954  16.646  0.00  0.00    +0.155 HD
BRANCH  14  15
ATOM     15  C   UNL     1      27.074 -21.404  14.819  0.00  0.00    +0.037 A 
ATOM     16  C   UNL     1      28.386 -22.056  14.815  0.00  0.00    +0.013 A 
ATOM     17  C   UNL     1      29.588 -21.264  14.892  0.00  0.00    +0.005 A 
ATOM     18  C   UNL     1      29.483 -19.809  14.971  0.00  0.00    -0.033 A 
ATOM     28  C   UNL     1      28.169 -19.188  14.967  0.00  0.00    +0.005 A 
ATOM     29  C   UNL     1      26.989 -19.961  14.893  0.00  0.00    +0.013 A 
BRANCH  18  19
ATOM     19  C   UNL     1      30.711 -18.886  15.077  0.00  0.00    +0.119 C 
BRANCH  19  20
ATOM     20  N   UNL     1      31.755 -19.013  14.016  0.00  0.00    -0.302 NA
ATOM     21  C   UNL     1      32.999 -19.750  14.520  0.00  0.00    +0.066 C 
ATOM     22  C   UNL     1      34.072 -19.893  13.391  0.00  0.00    -0.064 C 
ATOM     23  N   UNL     1      34.441 -18.506  12.863  0.00  0.00    +0.379 N 
ATOM     24  C   UNL     1      35.491 -18.633  11.843  0.00  0.00    -0.096 C 
ATOM     25  H   UNL     1      34.864 -17.922  13.714  0.00  0.00    -0.082 HD
ATOM     26  C   UNL     1      33.209 -17.765  12.363  0.00  0.00    -0.064 C 
ATOM     27  C   UNL     1      32.138 -17.654  13.483  0.00  0.00    +0.066 C 
ENDBRANCH  19  20
ENDBRANCH  18  19
ENDBRANCH  14  15
ENDBRANCH  12  13
TORSDOF 6
ENDMDL
MODEL 5
REMARK VINA RESULT:      -7.0     16.197     21.282
REMARK  Name = C:\Users\Docking\Desktop\test protocol\1iep_ligandH.pdb
REMARK  8 active torsions:
REMARK  status: ('A' for Active; 'I' for Inactive)
REMARK    1  A    between atoms: _5  and  _11
REMARK    2  A    between atoms: _19  and  _21
REMARK    3  A    between atoms: _22  and  _66
REMARK    4  A    between atoms: _27  and  _30
REMARK    5  A    between atoms: _32  and  _33
REMARK    6  A    between atoms: _38  and  _43
REMARK    7  A    between atoms: _43  and  _46
REMARK    8  A    between atoms: _53  and  _55
REMARK                            x       y       z     vdW  Elec       q    Type
REMARK                         _______ _______ _______ _____ _____    ______ ____
ROOT
ATOM     10  C   UNL     1      21.135 -10.902  -4.024  0.00  0.00    +0.038 A 
ATOM     11  C   UNL     1      21.421 -12.231  -3.620  0.00  0.00    +0.047 A 
ATOM     12  C   UNL     1      22.787 -12.665  -3.373  0.00  0.00    +0.035 A 
ATOM     32  C   UNL     1      23.838 -11.717  -3.544  0.00  0.00    +0.024 A 
ATOM     33  C   UNL     1      23.565 -10.362  -3.955  0.00  0.00    +0.007 A 
ATOM     34  C   UNL     1      22.220  -9.930  -4.203  0.00  0.00    -0.029 A 
ATOM     35  C   UNL     1      21.986  -8.467  -4.648  0.00  0.00    +0.045 C 
ENDROOT
BRANCH  10   9
ATOM      4  C   UNL     1      16.938  -9.092  -2.559  0.00  0.00    +0.077 A 
ATOM      5  C   UNL     1      17.428  -8.874  -1.229  0.00  0.00    +0.048 A 
ATOM      6  C   UNL     1      18.764  -9.248  -0.961  0.00  0.00    +0.116 A 
ATOM      7  N   UNL     1      19.542  -9.798  -1.957  0.00  0.00    -0.223 NA
ATOM      8  C   UNL     1      19.037  -9.996  -3.229  0.00  0.00    +0.220 A 
ATOM      9  N   UNL     1      19.804 -10.540  -4.247  0.00  0.00    -0.283 N 
ATOM     36  H   UNL     1      19.393 -10.676  -5.170  0.00  0.00    +0.155 HD
ATOM     37  N   UNL     1      17.764  -9.648  -3.510  0.00  0.00    -0.214 NA
BRANCH   4   3
ATOM      1  C   UNL     1      13.043  -8.760  -2.708  0.00  0.00    +0.020 A 
ATOM      2  C   UNL     1      14.362  -9.119  -2.240  0.00  0.00    +0.013 A 
ATOM      3  C   UNL     1      15.549  -8.745  -2.998  0.00  0.00    +0.019 A 
ATOM     38  C   UNL     1      15.366  -8.001  -4.235  0.00  0.00    +0.120 A 
ATOM     39  N   UNL     1      14.083  -7.670  -4.662  0.00  0.00    -0.263 NA
ATOM     40  C   UNL     1      12.933  -8.026  -3.941  0.00  0.00    +0.111 A 
ENDBRANCH   4   3
ENDBRANCH  10   9
BRANCH  12  13
ATOM     13  N   UNL     1      23.140 -14.003  -2.969  0.00  0.00    -0.281 N 
ATOM     14  C   UNL     1      23.198 -15.142  -3.755  0.00  0.00    +0.248 C 
ATOM     30  O   UNL     1      22.747 -15.224  -4.888  0.00  0.00    -0.270 OA
ATOM     31  H   UNL     1      23.374 -14.126  -1.984  0.00  0.00    +0.155 HD
BRANCH  14  15
ATOM     15  C   UNL     1      23.837 -16.373  -3.197  0.00  0.00    +0.037 A 
ATOM     16  C   UNL     1      24.381 -16.396  -1.837  0.00  0.00    +0.013 A 
ATOM     17  C   UNL     1      25.008 -17.591  -1.329  0.00  0.00    +0.005 A 
ATOM     18  C   UNL     1      25.093 -18.773  -2.183  0.00  0.00    -0.033 A 
ATOM     28  C   UNL     1      24.540 -18.724  -3.527  0.00  0.00    +0.005 A 
ATOM     29  C   UNL     1      23.926 -17.555  -4.028  0.00  0.00    +0.013 A 
BRANCH  18  19
ATOM     19  C   UNL     1      25.763 -20.085  -1.732  0.00  0.00    +0.119 C 
BRANCH  19  20
ATOM     20  N   UNL     1      26.567 -20.827  -2.748  0.00  0.00    -0.302 NA
ATOM     21  C   UNL     1      25.913 -22.154  -3.141  0.00  0.00    +0.066 C 
ATOM     22  C   UNL     1      26.756 -22.906  -4.222  0.00  0.00    -0.064 C 
ATOM     23  N   UNL     1      28.171 -23.137  -3.690  0.00  0.00    +0.379 N 
ATOM     24  C   UNL     1      28.949 -23.895  -4.681  0.00  0.00    -0.096 C 
ATOM     25  H   UNL     1      28.090 -23.764  -2.772  0.00  0.00    -0.082 HD
ATOM     26  C   UNL     1      28.829 -21.823  -3.295  0.00  0.00    -0.064 C 
ATOM     27  C   UNL     1      27.968 -21.069  -2.243  0.00  0.00    +0.066 C 
ENDBRANCH  19  20
ENDBRANCH  18  19
ENDBRANCH  14  15
ENDBRANCH  12  13
TORSDOF 6
ENDMDL
