MODEL 1
REMARK VINA RESULT:      -9.1      0.000      0.000
REMARK  Name = C:\Users\Docking\Desktop\test protocol\1iep_ligandH.pdb
REMARK  8 active torsions:
REMARK  status: ('A' for Active; 'I' for Inactive)
REMARK    1  A    between atoms: _5  and  _11
REMARK    2  A    between atoms: _19  and  _21
REMARK    3  A    between atoms: _22  and  _66
REMARK    4  A    between atoms: _27  and  _30
REMARK    5  A    between atoms: _32  and  _33
REMARK    6  A    between atoms: _38  and  _43
REMARK    7  A    between atoms: _43  and  _46
REMARK    8  A    between atoms: _53  and  _55
REMARK                            x       y       z     vdW  Elec       q    Type
REMARK                         _______ _______ _______ _____ _____    ______ ____
ROOT
ATOM     10  C   UNL     1     -10.322  19.634 -13.974  0.00  0.00    +0.038 A 
ATOM     11  C   UNL     1     -11.529  19.544 -14.713  0.00  0.00    +0.047 A 
ATOM     12  C   UNL     1     -12.782  20.049 -14.173  0.00  0.00    +0.035 A 
ATOM     32  C   UNL     1     -12.768  20.642 -12.877  0.00  0.00    +0.024 A 
ATOM     33  C   UNL     1     -11.550  20.741 -12.111  0.00  0.00    +0.007 A 
ATOM     34  C   UNL     1     -10.312  20.243 -12.638  0.00  0.00    -0.029 A 
ATOM     35  C   UNL     1      -9.038  20.369 -11.770  0.00  0.00    +0.045 C 
ENDROOT
BRANCH  10   9
ATOM      4  C   UNL     1      -7.417  16.010 -15.183  0.00  0.00    +0.077 A 
ATOM      5  C   UNL     1      -8.300  15.034 -14.612  0.00  0.00    +0.048 A 
ATOM      6  C   UNL     1      -9.488  15.506 -14.011  0.00  0.00    +0.116 A 
ATOM      7  N   UNL     1      -9.762  16.857 -13.988  0.00  0.00    -0.223 NA
ATOM      8  C   UNL     1      -8.888  17.772 -14.546  0.00  0.00    +0.220 A 
ATOM      9  N   UNL     1      -9.148  19.133 -14.541  0.00  0.00    -0.283 N 
ATOM     36  H   UNL     1      -8.475  19.777 -14.957  0.00  0.00    +0.155 HD
ATOM     37  N   UNL     1      -7.746  17.346 -15.125  0.00  0.00    -0.214 NA
BRANCH   4   3
ATOM      1  C   UNL     1      -3.945  14.404 -16.003  0.00  0.00    +0.020 A 
ATOM      2  C   UNL     1      -5.179  14.700 -15.312  0.00  0.00    +0.013 A 
ATOM      3  C   UNL     1      -6.125  15.667 -15.857  0.00  0.00    +0.019 A 
ATOM     38  C   UNL     1      -5.789  16.321 -17.112  0.00  0.00    +0.120 A 
ATOM     39  N   UNL     1      -4.592  16.017 -17.754  0.00  0.00    -0.263 NA
ATOM     40  C   UNL     1      -3.674  15.090 -17.239  0.00  0.00    +0.111 A 
ENDBRANCH   4   3
ENDBRANCH  10   9
BRANCH  12  13
ATOM     13  N   UNL     1     -14.040  19.978 -14.874  0.00  0.00    -0.281 N 
ATOM     14  C   UNL     1     -14.397  20.618 -16.049  0.00  0.00    +0.248 C 
ATOM     30  O   UNL     1     -13.757  21.522 -16.566  0.00  0.00    -0.270 OA
ATOM     31  H   UNL     1     -14.754  19.384 -14.452  0.00  0.00    +0.155 HD
BRANCH  14  15
ATOM     15  C   UNL     1     -15.654  20.204 -16.744  0.00  0.00    +0.037 A 
ATOM     16  C   UNL     1     -15.616  19.402 -17.969  0.00  0.00    +0.013 A 
ATOM     17  C   UNL     1     -16.843  19.030 -18.628  0.00  0.00    +0.005 A 
ATOM     18  C   UNL     1     -18.119  19.460 -18.061  0.00  0.00    -0.033 A 
ATOM     28  C   UNL     1     -18.128  20.250 -16.841  0.00  0.00    +0.005 A 
ATOM     29  C   UNL     1     -16.927  20.617 -16.193  0.00  0.00    +0.013 A 
BRANCH  18  19
ATOM     19  C   UNL     1     -19.477  19.127 -18.709  0.00  0.00    +0.119 C 
BRANCH  19  20
ATOM     20  N   UNL     1     -19.580  17.838 -19.455  0.00  0.00    -0.302 NA
ATOM     21  C   UNL     1     -21.015  17.548 -19.904  0.00  0.00    +0.066 C 
ATOM     22  C   UNL     1     -21.102  16.206 -20.703  0.00  0.00    -0.064 C 
ATOM     23  N   UNL     1     -20.564  15.065 -19.837  0.00  0.00    +0.379 N 
ATOM     24  C   UNL     1     -20.698  13.794 -20.563  0.00  0.00    -0.096 C 
ATOM     25  H   UNL     1     -21.203  15.003 -18.925  0.00  0.00    -0.082 HD
ATOM     26  C   UNL     1     -19.139  15.347 -19.384  0.00  0.00    -0.064 C 
ATOM     27  C   UNL     1     -19.059  16.696 -18.617  0.00  0.00    +0.066 C 
ENDBRANCH  19  20
ENDBRANCH  18  19
ENDBRANCH  14  15
ENDBRANCH  12  13
TORSDOF 6
ENDMDL
MODEL 2
REMARK VINA RESULT:      -9.0      5.774     11.437
REMARK  Name = C:\Users\Docking\Desktop\test protocol\1iep_ligandH.pdb
REMARK  8 active torsions:
REMARK  status: ('A' for Active; 'I' for Inactive)
REMARK    1  A    between atoms: _5  and  _11
REMARK    2  A    between atoms: _19  and  _21
REMARK    3  A    between atoms: _22  and  _66
REMARK    4  A    between atoms: _27  and  _30
REMARK    5  A    between atoms: _32  and  _33
REMARK    6  A    between atoms: _38  and  _43
REMARK    7  A    between atoms: _43  and  _46
REMARK    8  A    between atoms: _53  and  _55
REMARK                            x       y       z     vdW  Elec       q    Type
REMARK                         _______ _______ _______ _____ _____    ______ ____
ROOT
ATOM     10  C   UNL     1     -18.756  17.106 -19.961  0.00  0.00    +0.038 A 
ATOM     11  C   UNL     1     -19.342  15.837 -19.723  0.00  0.00    +0.047 A 
ATOM     12  C   UNL     1     -20.379  15.311 -20.597  0.00  0.00    +0.035 A 
ATOM     32  C   UNL     1     -20.794  16.104 -21.706  0.00  0.00    +0.024 A 
ATOM     33  C   UNL     1     -20.210  17.397 -21.962  0.00  0.00    +0.007 A 
ATOM     34  C   UNL     1     -19.188  17.922 -21.102  0.00  0.00    -0.029 A 
ATOM     35  C   UNL     1     -18.602  19.317 -21.421  0.00  0.00    +0.045 C 
ENDROOT
BRANCH  10   9
ATOM      4  C   UNL     1     -17.190  20.019 -16.483  0.00  0.00    +0.077 A 
ATOM      5  C   UNL     1     -18.446  20.709 -16.414  0.00  0.00    +0.048 A 
ATOM      6  C   UNL     1     -19.467  20.288 -17.295  0.00  0.00    +0.116 A 
ATOM      7  N   UNL     1     -19.238  19.253 -18.176  0.00  0.00    -0.223 NA
ATOM      8  C   UNL     1     -18.014  18.610 -18.218  0.00  0.00    +0.220 A 
ATOM      9  N   UNL     1     -17.764  17.562 -19.090  0.00  0.00    -0.283 N 
ATOM     36  H   UNL     1     -16.846  17.119 -19.095  0.00  0.00    +0.155 HD
ATOM     37  N   UNL     1     -17.023  18.994 -17.387  0.00  0.00    -0.214 NA
BRANCH   4   3
ATOM      1  C   UNL     1     -14.952  21.467 -13.620  0.00  0.00    +0.020 A 
ATOM      2  C   UNL     1     -16.118  21.182 -14.425  0.00  0.00    +0.013 A 
ATOM      3  C   UNL     1     -16.015  20.346 -15.614  0.00  0.00    +0.019 A 
ATOM     38  C   UNL     1     -14.709  19.807 -15.963  0.00  0.00    +0.120 A 
ATOM     39  N   UNL     1     -13.604  20.100 -15.169  0.00  0.00    -0.263 NA
ATOM     40  C   UNL     1     -13.690  20.905 -14.024  0.00  0.00    +0.111 A 
ENDBRANCH   4   3
ENDBRANCH  10   9
BRANCH  12  13
ATOM     13  N   UNL     1     -21.016  14.032 -20.401  0.00  0.00    -0.281 N 
ATOM     14  C   UNL     1     -20.847  12.874 -21.141  0.00  0.00    +0.248 C 
ATOM     30  O   UNL     1     -20.279  12.821 -22.222  0.00  0.00    -0.270 OA
ATOM     31  H   UNL     1     -21.672  13.974 -19.621  0.00  0.00    +0.155 HD
BRANCH  14  15
ATOM     15  C   UNL     1     -21.402  11.591 -20.612  0.00  0.00    +0.037 A 
ATOM     16  C   UNL     1     -21.021  10.301 -21.193  0.00  0.00    +0.013 A 
ATOM     17  C   UNL     1     -21.584   9.080 -20.674  0.00  0.00    +0.005 A 
ATOM     18  C   UNL     1     -22.533   9.143 -19.565  0.00  0.00    -0.033 A 
ATOM     28  C   UNL     1     -22.889  10.435 -19.004  0.00  0.00    +0.005 A 
ATOM     29  C   UNL     1     -22.340  11.635 -19.510  0.00  0.00    +0.013 A 
BRANCH  18  19
ATOM     19  C   UNL     1     -23.199   7.892 -18.962  0.00  0.00    +0.119 C 
BRANCH  19  20
ATOM     20  N   UNL     1     -23.381   6.713 -19.861  0.00  0.00    -0.302 NA
ATOM     21  C   UNL     1     -24.667   6.813 -20.687  0.00  0.00    +0.066 C 
ATOM     22  C   UNL     1     -24.829   5.583 -21.638  0.00  0.00    -0.064 C 
ATOM     23  N   UNL     1     -24.815   4.297 -20.811  0.00  0.00    +0.379 N 
ATOM     24  C   UNL     1     -25.026   3.142 -21.696  0.00  0.00    -0.096 C 
ATOM     25  H   UNL     1     -25.675   4.341 -20.102  0.00  0.00    -0.082 HD
ATOM     26  C   UNL     1     -23.541   4.191 -19.985  0.00  0.00    -0.064 C 
ATOM     27  C   UNL     1     -23.375   5.432 -19.064  0.00  0.00    +0.066 C 
ENDBRANCH  19  20
ENDBRANCH  18  19
ENDBRANCH  14  15
ENDBRANCH  12  13
TORSDOF 6
ENDMDL
MODEL 3
REMARK VINA RESULT:      -8.8      6.989     12.704
REMARK  Name = C:\Users\Docking\Desktop\test protocol\1iep_ligandH.pdb
REMARK  8 active torsions:
REMARK  status: ('A' for Active; 'I' for Inactive)
REMARK    1  A    between atoms: _5  and  _11
REMARK    2  A    between atoms: _19  and  _21
REMARK    3  A    between atoms: _22  and  _66
REMARK    4  A    between atoms: _27  and  _30
REMARK    5  A    between atoms: _32  and  _33
REMARK    6  A    between atoms: _38  and  _43
REMARK    7  A    between atoms: _43  and  _46
REMARK    8  A    between atoms: _53  and  _55
REMARK                            x       y       z     vdW  Elec       q    Type
REMARK                         _______ _______ _______ _____ _____    ______ ____
ROOT
ATOM     10  C   UNL     1     -18.878  15.501 -20.712  0.00  0.00    +0.038 A 
ATOM     11  C   UNL     1     -19.430  14.382 -20.039  0.00  0.00    +0.047 A 
ATOM     12  C   UNL     1     -20.246  13.406 -20.744  0.00  0.00    +0.035 A 
ATOM     32  C   UNL     1     -20.476  13.599 -22.138  0.00  0.00    +0.024 A 
ATOM     33  C   UNL     1     -19.923  14.731 -22.838  0.00  0.00    +0.007 A 
ATOM     34  C   UNL     1     -19.120  15.699 -22.147  0.00  0.00    -0.029 A 
ATOM     35  C   UNL     1     -18.558  16.897 -22.947  0.00  0.00    +0.045 C 
ENDROOT
BRANCH  10   9
ATOM      4  C   UNL     1     -18.407  19.294 -17.810  0.00  0.00    +0.077 A 
ATOM      5  C   UNL     1     -19.825  19.506 -17.759  0.00  0.00    +0.048 A 
ATOM      6  C   UNL     1     -20.640  18.620 -18.499  0.00  0.00    +0.116 A 
ATOM      7  N   UNL     1     -20.069  17.603 -19.232  0.00  0.00    -0.223 NA
ATOM      8  C   UNL     1     -18.698  17.428 -19.262  0.00  0.00    +0.220 A 
ATOM      9  N   UNL     1     -18.102  16.407 -19.986  0.00  0.00    -0.283 N 
ATOM     36  H   UNL     1     -17.086  16.316 -19.988  0.00  0.00    +0.155 HD
ATOM     37  N   UNL     1     -17.898  18.261 -18.564  0.00  0.00    -0.214 NA
BRANCH   4   3
ATOM      1  C   UNL     1     -16.438  22.374 -16.418  0.00  0.00    +0.020 A 
ATOM      2  C   UNL     1     -17.419  21.600 -17.144  0.00  0.00    +0.013 A 
ATOM      3  C   UNL     1     -17.415  20.144 -17.079  0.00  0.00    +0.019 A 
ATOM     38  C   UNL     1     -16.398  19.497 -16.264  0.00  0.00    +0.120 A 
ATOM     39  N   UNL     1     -15.466  20.269 -15.577  0.00  0.00    -0.263 NA
ATOM     40  C   UNL     1     -15.458  21.670 -15.633  0.00  0.00    +0.111 A 
ENDBRANCH   4   3
ENDBRANCH  10   9
BRANCH  12  13
ATOM     13  N   UNL     1     -20.840  12.255 -20.111  0.00  0.00    -0.281 N 
ATOM     14  C   UNL     1     -21.696  11.321 -20.673  0.00  0.00    +0.248 C 
ATOM     30  O   UNL     1     -22.253  11.455 -21.752  0.00  0.00    -0.270 OA
ATOM     31  H   UNL     1     -20.601  12.110 -19.130  0.00  0.00    +0.155 HD
BRANCH  14  15
ATOM     15  C   UNL     1     -21.986  10.063 -19.919  0.00  0.00    +0.037 A 
ATOM     16  C   UNL     1     -20.914   9.290 -19.288  0.00  0.00    +0.013 A 
ATOM     17  C   UNL     1     -21.219   8.071 -18.582  0.00  0.00    +0.005 A 
ATOM     18  C   UNL     1     -22.606   7.618 -18.503  0.00  0.00    -0.033 A 
ATOM     28  C   UNL     1     -23.651   8.407 -19.133  0.00  0.00    +0.005 A 
ATOM     29  C   UNL     1     -23.355   9.602 -19.827  0.00  0.00    +0.013 A 
BRANCH  18  19
ATOM     19  C   UNL     1     -23.022   6.319 -17.788  0.00  0.00    +0.119 C 
BRANCH  19  20
ATOM     20  N   UNL     1     -23.581   5.223 -18.633  0.00  0.00    -0.302 NA
ATOM     21  C   UNL     1     -23.276   3.838 -18.054  0.00  0.00    +0.066 C 
ATOM     22  C   UNL     1     -23.888   2.704 -18.939  0.00  0.00    -0.064 C 
ATOM     23  N   UNL     1     -23.348   2.825 -20.365  0.00  0.00    +0.379 N 
ATOM     24  C   UNL     1     -23.876   1.726 -21.185  0.00  0.00    -0.096 C 
ATOM     25  H   UNL     1     -22.240   2.710 -20.317  0.00  0.00    -0.082 HD
ATOM     26  C   UNL     1     -23.644   4.200 -20.947  0.00  0.00    -0.064 C 
ATOM     27  C   UNL     1     -23.057   5.321 -20.045  0.00  0.00    +0.066 C 
ENDBRANCH  19  20
ENDBRANCH  18  19
ENDBRANCH  14  15
ENDBRANCH  12  13
TORSDOF 6
ENDMDL
MODEL 4
REMARK VINA RESULT:      -8.8      2.521     12.406
REMARK  Name = C:\Users\Docking\Desktop\test protocol\1iep_ligandH.pdb
REMARK  8 active torsions:
REMARK  status: ('A' for Active; 'I' for Inactive)
REMARK    1  A    between atoms: _5  and  _11
REMARK    2  A    between atoms: _19  and  _21
REMARK    3  A    between atoms: _22  and  _66
REMARK    4  A    between atoms: _27  and  _30
REMARK    5  A    between atoms: _32  and  _33
REMARK    6  A    between atoms: _38  and  _43
REMARK    7  A    between atoms: _43  and  _46
REMARK    8  A    between atoms: _53  and  _55
REMARK                            x       y       z     vdW  Elec       q    Type
REMARK                         _______ _______ _______ _____ _____    ______ ____
ROOT
ATOM     10  C   UNL     1     -20.261  16.741 -19.488  0.00  0.00    +0.038 A 
ATOM     11  C   UNL     1     -18.990  17.099 -18.971  0.00  0.00    +0.047 A 
ATOM     12  C   UNL     1     -18.450  18.436 -19.160  0.00  0.00    +0.035 A 
ATOM     32  C   UNL     1     -19.232  19.385 -19.879  0.00  0.00    +0.024 A 
ATOM     33  C   UNL     1     -20.526  19.038 -20.413  0.00  0.00    +0.007 A 
ATOM     34  C   UNL     1     -21.063  17.720 -20.232  0.00  0.00    -0.029 A 
ATOM     35  C   UNL     1     -22.452  17.402 -20.832  0.00  0.00    +0.045 C 
ENDROOT
BRANCH  10   9
ATOM      4  C   UNL     1     -21.142  12.264 -20.977  0.00  0.00    +0.077 A 
ATOM      5  C   UNL     1     -20.648  12.542 -22.295  0.00  0.00    +0.048 A 
ATOM      6  C   UNL     1     -20.183  13.851 -22.551  0.00  0.00    +0.116 A 
ATOM      7  N   UNL     1     -20.214  14.804 -21.556  0.00  0.00    -0.223 NA
ATOM      8  C   UNL     1     -20.698  14.503 -20.296  0.00  0.00    +0.220 A 
ATOM      9  N   UNL     1     -20.731  15.443 -19.277  0.00  0.00    -0.283 N 
ATOM     36  H   UNL     1     -21.103  15.184 -18.364  0.00  0.00    +0.155 HD
ATOM     37  N   UNL     1     -21.149  13.260 -20.027  0.00  0.00    -0.214 NA
BRANCH   4   3
ATOM      1  C   UNL     1     -23.162   9.452 -19.157  0.00  0.00    +0.020 A 
ATOM      2  C   UNL     1     -22.692  10.766 -19.531  0.00  0.00    +0.013 A 
ATOM      3  C   UNL     1     -21.664  10.927 -20.552  0.00  0.00    +0.019 A 
ATOM     38  C   UNL     1     -21.129   9.728 -21.180  0.00  0.00    +0.120 A 
ATOM     39  N   UNL     1     -21.600   8.476 -20.799  0.00  0.00    -0.263 NA
ATOM     40  C   UNL     1     -22.588   8.309 -19.816  0.00  0.00    +0.111 A 
ENDBRANCH   4   3
ENDBRANCH  10   9
BRANCH  12  13
ATOM     13  N   UNL     1     -17.162  18.854 -18.664  0.00  0.00    -0.281 N 
ATOM     14  C   UNL     1     -16.885  19.577 -17.515  0.00  0.00    +0.248 C 
ATOM     30  O   UNL     1     -17.725  20.160 -16.847  0.00  0.00    -0.270 OA
ATOM     31  H   UNL     1     -16.356  18.585 -19.229  0.00  0.00    +0.155 HD
BRANCH  14  15
ATOM     15  C   UNL     1     -15.468  19.678 -17.050  0.00  0.00    +0.037 A 
ATOM     16  C   UNL     1     -14.361  19.790 -18.003  0.00  0.00    +0.013 A 
ATOM     17  C   UNL     1     -13.003  19.869 -17.527  0.00  0.00    +0.005 A 
ATOM     18  C   UNL     1     -12.744  19.838 -16.090  0.00  0.00    -0.033 A 
ATOM     28  C   UNL     1     -13.862  19.731 -15.166  0.00  0.00    +0.005 A 
ATOM     29  C   UNL     1     -15.195  19.653 -15.629  0.00  0.00    +0.013 A 
BRANCH  18  19
ATOM     19  C   UNL     1     -11.325  19.896 -15.493  0.00  0.00    +0.119 C 
BRANCH  19  20
ATOM     20  N   UNL     1     -10.583  18.606 -15.368  0.00  0.00    -0.302 NA
ATOM     21  C   UNL     1      -9.437  18.698 -14.357  0.00  0.00    +0.066 C 
ATOM     22  C   UNL     1      -8.686  17.334 -14.221  0.00  0.00    -0.064 C 
ATOM     23  N   UNL     1      -8.164  16.904 -15.594  0.00  0.00    +0.379 N 
ATOM     24  C   UNL     1      -7.408  15.650 -15.460  0.00  0.00    -0.096 C 
ATOM     25  H   UNL     1      -7.458  17.690 -15.948  0.00  0.00    -0.082 HD
ATOM     26  C   UNL     1      -9.297  16.812 -16.606  0.00  0.00    -0.064 C 
ATOM     27  C   UNL     1     -10.056  18.164 -16.711  0.00  0.00    +0.066 C 
ENDBRANCH  19  20
ENDBRANCH  18  19
ENDBRANCH  14  15
ENDBRANCH  12  13
TORSDOF 6
ENDMDL
MODEL 5
REMARK VINA RESULT:      -8.8      8.226     13.466
REMARK  Name = C:\Users\Docking\Desktop\test protocol\1iep_ligandH.pdb
REMARK  8 active torsions:
REMARK  status: ('A' for Active; 'I' for Inactive)
REMARK    1  A    between atoms: _5  and  _11
REMARK    2  A    between atoms: _19  and  _21
REMARK    3  A    between atoms: _22  and  _66
REMARK    4  A    between atoms: _27  and  _30
REMARK    5  A    between atoms: _32  and  _33
REMARK    6  A    between atoms: _38  and  _43
REMARK    7  A    between atoms: _43  and  _46
REMARK    8  A    between atoms: _53  and  _55
REMARK                            x       y       z     vdW  Elec       q    Type
REMARK                         _______ _______ _______ _____ _____    ______ ____
ROOT
ATOM     10  C   UNL     1     -19.470  15.438 -21.322  0.00  0.00    +0.038 A 
ATOM     11  C   UNL     1     -19.826  14.150 -20.847  0.00  0.00    +0.047 A 
ATOM     12  C   UNL     1     -20.357  13.137 -21.746  0.00  0.00    +0.035 A 
ATOM     32  C   UNL     1     -20.508  13.469 -23.124  0.00  0.00    +0.024 A 
ATOM     33  C   UNL     1     -20.152  14.774 -23.623  0.00  0.00    +0.007 A 
ATOM     34  C   UNL     1     -19.631  15.778 -22.741  0.00  0.00    -0.029 A 
ATOM     35  C   UNL     1     -19.272  17.162 -23.330  0.00  0.00    +0.045 C 
ENDROOT
BRANCH  10   9
ATOM      4  C   UNL     1     -20.031  19.073 -18.238  0.00  0.00    +0.077 A 
ATOM      5  C   UNL     1     -21.444  19.134 -18.474  0.00  0.00    +0.048 A 
ATOM      6  C   UNL     1     -21.987  18.216 -19.402  0.00  0.00    +0.116 A 
ATOM      7  N   UNL     1     -21.167  17.311 -20.040  0.00  0.00    -0.223 NA
ATOM      8  C   UNL     1     -19.807  17.280 -19.790  0.00  0.00    +0.220 A 
ATOM      9  N   UNL     1     -18.966  16.372 -20.414  0.00  0.00    -0.283 N 
ATOM     36  H   UNL     1     -17.967  16.387 -20.209  0.00  0.00    +0.155 HD
ATOM     37  N   UNL     1     -19.265  18.146 -18.910  0.00  0.00    -0.214 NA
BRANCH   4   3
ATOM      1  C   UNL     1     -17.212  20.872 -16.208  0.00  0.00    +0.020 A 
ATOM      2  C   UNL     1     -17.859  19.982 -17.144  0.00  0.00    +0.013 A 
ATOM      3  C   UNL     1     -19.310  19.974 -17.283  0.00  0.00    +0.019 A 
ATOM     38  C   UNL     1     -20.083  20.886 -16.454  0.00  0.00    +0.120 A 
ATOM     39  N   UNL     1     -19.433  21.730 -15.560  0.00  0.00    -0.263 NA
ATOM     40  C   UNL     1     -18.037  21.746 -15.416  0.00  0.00    +0.111 A 
ENDBRANCH   4   3
ENDBRANCH  10   9
BRANCH  12  13
ATOM     13  N   UNL     1     -20.743  11.815 -21.320  0.00  0.00    -0.281 N 
ATOM     14  C   UNL     1     -21.632  11.470 -20.315  0.00  0.00    +0.248 C 
ATOM     30  O   UNL     1     -22.071  12.250 -19.483  0.00  0.00    -0.270 OA
ATOM     31  H   UNL     1     -20.309  11.039 -21.820  0.00  0.00    +0.155 HD
BRANCH  14  15
ATOM     15  C   UNL     1     -22.089  10.050 -20.211  0.00  0.00    +0.037 A 
ATOM     16  C   UNL     1     -23.499   9.720 -19.988  0.00  0.00    +0.013 A 
ATOM     17  C   UNL     1     -23.910   8.343 -19.874  0.00  0.00    +0.005 A 
ATOM     18  C   UNL     1     -22.908   7.285 -19.985  0.00  0.00    -0.033 A 
ATOM     28  C   UNL     1     -21.517   7.641 -20.211  0.00  0.00    +0.005 A 
ATOM     29  C   UNL     1     -21.110   8.990 -20.322  0.00  0.00    +0.013 A 
BRANCH  18  19
ATOM     19  C   UNL     1     -23.253   5.790 -19.855  0.00  0.00    +0.119 C 
BRANCH  19  20
ATOM     20  N   UNL     1     -23.885   5.342 -18.578  0.00  0.00    -0.302 NA
ATOM     21  C   UNL     1     -23.086   5.794 -17.353  0.00  0.00    +0.066 C 
ATOM     22  C   UNL     1     -23.773   5.337 -16.025  0.00  0.00    -0.064 C 
ATOM     23  N   UNL     1     -23.935   3.816 -16.035  0.00  0.00    +0.379 N 
ATOM     24  C   UNL     1     -24.527   3.377 -14.764  0.00  0.00    -0.096 C 
ATOM     25  H   UNL     1     -22.916   3.369 -16.106  0.00  0.00    -0.082 HD
ATOM     26  C   UNL     1     -24.725   3.357 -17.252  0.00  0.00    -0.064 C 
ATOM     27  C   UNL     1     -24.050   3.842 -18.565  0.00  0.00    +0.066 C 
ENDBRANCH  19  20
ENDBRANCH  18  19
ENDBRANCH  14  15
ENDBRANCH  12  13
TORSDOF 6
ENDMDL
