MODEL 1
REMARK VINA RESULT:      -9.4      0.000      0.000
REMARK  Name = C:\Users\Docking\Desktop\test protocol\1iep_ligandH.pdb
REMARK  8 active torsions:
REMARK  status: ('A' for Active; 'I' for Inactive)
REMARK    1  A    between atoms: _5  and  _11
REMARK    2  A    between atoms: _19  and  _21
REMARK    3  A    between atoms: _22  and  _66
REMARK    4  A    between atoms: _27  and  _30
REMARK    5  A    between atoms: _32  and  _33
REMARK    6  A    between atoms: _38  and  _43
REMARK    7  A    between atoms: _43  and  _46
REMARK    8  A    between atoms: _53  and  _55
REMARK                            x       y       z     vdW  Elec       q    Type
REMARK                         _______ _______ _______ _____ _____    ______ ____
ROOT
ATOM     10  C   UNL     1       9.424  25.777  19.075  0.00  0.00    +0.038 A 
ATOM     11  C   UNL     1      10.693  25.598  18.467  0.00  0.00    +0.047 A 
ATOM     12  C   UNL     1      11.339  24.295  18.444  0.00  0.00    +0.035 A 
ATOM     32  C   UNL     1      10.663  23.195  19.048  0.00  0.00    +0.024 A 
ATOM     33  C   UNL     1       9.373  23.359  19.671  0.00  0.00    +0.007 A 
ATOM     34  C   UNL     1       8.732  24.643  19.698  0.00  0.00    -0.029 A 
ATOM     35  C   UNL     1       7.352  24.762  20.386  0.00  0.00    +0.045 C 
ENDROOT
BRANCH  10   9
ATOM      4  C   UNL     1       8.211  29.885  21.240  0.00  0.00    +0.077 A 
ATOM      5  C   UNL     1       8.743  29.448  22.498  0.00  0.00    +0.048 A 
ATOM      6  C   UNL     1       9.313  28.156  22.548  0.00  0.00    +0.116 A 
ATOM      7  N   UNL     1       9.345  27.369  21.417  0.00  0.00    -0.223 NA
ATOM      8  C   UNL     1       8.822  27.821  20.219  0.00  0.00    +0.220 A 
ATOM      9  N   UNL     1       8.850  27.050  19.067  0.00  0.00    -0.283 N 
ATOM     36  H   UNL     1       8.447  27.416  18.205  0.00  0.00    +0.155 HD
ATOM     37  N   UNL     1       8.270  29.050  20.146  0.00  0.00    -0.214 NA
BRANCH   4   3
ATOM      1  C   UNL     1       6.034  33.101  21.702  0.00  0.00    +0.020 A 
ATOM      2  C   UNL     1       6.614  31.803  21.954  0.00  0.00    +0.013 A 
ATOM      3  C   UNL     1       7.579  31.226  21.027  0.00  0.00    +0.019 A 
ATOM     38  C   UNL     1       7.939  31.995  19.845  0.00  0.00    +0.120 A 
ATOM     39  N   UNL     1       7.362  33.243  19.628  0.00  0.00    -0.263 NA
ATOM     40  C   UNL     1       6.431  33.807  20.513  0.00  0.00    +0.111 A 
ENDBRANCH   4   3
ENDBRANCH  10   9
BRANCH  12  13
ATOM     13  N   UNL     1      12.630  24.054  17.849  0.00  0.00    -0.281 N 
ATOM     14  C   UNL     1      12.945  23.180  16.821  0.00  0.00    +0.248 C 
ATOM     30  O   UNL     1      12.195  22.313  16.398  0.00  0.00    -0.270 OA
ATOM     31  H   UNL     1      13.407  24.593  18.233  0.00  0.00    +0.155 HD
BRANCH  14  15
ATOM     15  C   UNL     1      14.291  23.275  16.179  0.00  0.00    +0.037 A 
ATOM     16  C   UNL     1      14.455  23.126  14.731  0.00  0.00    +0.013 A 
ATOM     17  C   UNL     1      15.767  23.205  14.140  0.00  0.00    +0.005 A 
ATOM     18  C   UNL     1      16.927  23.436  14.998  0.00  0.00    -0.033 A 
ATOM     28  C   UNL     1      16.735  23.586  16.431  0.00  0.00    +0.005 A 
ATOM     29  C   UNL     1      15.450  23.508  17.014  0.00  0.00    +0.013 A 
BRANCH  18  19
ATOM     19  C   UNL     1      18.366  23.514  14.456  0.00  0.00    +0.119 C 
BRANCH  19  20
ATOM     20  N   UNL     1      18.884  22.323  13.718  0.00  0.00    -0.302 NA
ATOM     21  C   UNL     1      18.427  21.008  14.356  0.00  0.00    +0.066 C 
ATOM     22  C   UNL     1      18.959  19.773  13.559  0.00  0.00    -0.064 C 
ATOM     23  N   UNL     1      20.486  19.837  13.484  0.00  0.00    +0.379 N 
ATOM     24  C   UNL     1      20.993  18.647  12.785  0.00  0.00    -0.096 C 
ATOM     25  H   UNL     1      20.876  19.809  14.528  0.00  0.00    -0.082 HD
ATOM     26  C   UNL     1      20.949  21.142  12.853  0.00  0.00    -0.064 C 
ATOM     27  C   UNL     1      20.390  22.363  13.636  0.00  0.00    +0.066 C 
ENDBRANCH  19  20
ENDBRANCH  18  19
ENDBRANCH  14  15
ENDBRANCH  12  13
TORSDOF 6
ENDMDL
MODEL 2
REMARK VINA RESULT:      -9.3      3.279     13.961
REMARK  Name = C:\Users\Docking\Desktop\test protocol\1iep_ligandH.pdb
REMARK  8 active torsions:
REMARK  status: ('A' for Active; 'I' for Inactive)
REMARK    1  A    between atoms: _5  and  _11
REMARK    2  A    between atoms: _19  and  _21
REMARK    3  A    between atoms: _22  and  _66
REMARK    4  A    between atoms: _27  and  _30
REMARK    5  A    between atoms: _32  and  _33
REMARK    6  A    between atoms: _38  and  _43
REMARK    7  A    between atoms: _43  and  _46
REMARK    8  A    between atoms: _53  and  _55
REMARK                            x       y       z     vdW  Elec       q    Type
REMARK                         _______ _______ _______ _____ _____    ______ ____
ROOT
ATOM     10  C   UNL     1      10.583  26.042  20.209  0.00  0.00    +0.038 A 
ATOM     11  C   UNL     1       9.938  27.253  19.851  0.00  0.00    +0.047 A 
ATOM     12  C   UNL     1       8.923  27.847  20.707  0.00  0.00    +0.035 A 
ATOM     32  C   UNL     1       8.591  27.182  21.923  0.00  0.00    +0.024 A 
ATOM     33  C   UNL     1       9.236  25.949  22.302  0.00  0.00    +0.007 A 
ATOM     34  C   UNL     1      10.236  25.357  21.460  0.00  0.00    -0.029 A 
ATOM     35  C   UNL     1      10.890  24.031  21.913  0.00  0.00    +0.045 C 
ENDROOT
BRANCH  10   9
ATOM      4  C   UNL     1      12.049  22.863  16.925  0.00  0.00    +0.077 A 
ATOM      5  C   UNL     1      10.790  22.176  16.942  0.00  0.00    +0.048 A 
ATOM      6  C   UNL     1       9.794  22.667  17.816  0.00  0.00    +0.116 A 
ATOM      7  N   UNL     1      10.049  23.766  18.608  0.00  0.00    -0.223 NA
ATOM      8  C   UNL     1      11.275  24.405  18.568  0.00  0.00    +0.220 A 
ATOM      9  N   UNL     1      11.550  25.516  19.349  0.00  0.00    -0.283 N 
ATOM     36  H   UNL     1      12.469  25.955  19.296  0.00  0.00    +0.155 HD
ATOM     37  N   UNL     1      12.243  23.954  17.743  0.00  0.00    -0.214 NA
BRANCH   4   3
ATOM      1  C   UNL     1      15.132  22.998  14.521  0.00  0.00    +0.020 A 
ATOM      2  C   UNL     1      14.033  23.434  15.351  0.00  0.00    +0.013 A 
ATOM      3  C   UNL     1      13.199  22.466  16.053  0.00  0.00    +0.019 A 
ATOM     38  C   UNL     1      13.508  21.053  15.893  0.00  0.00    +0.120 A 
ATOM     39  N   UNL     1      14.572  20.662  15.087  0.00  0.00    -0.263 NA
ATOM     40  C   UNL     1      15.380  21.585  14.405  0.00  0.00    +0.111 A 
ENDBRANCH   4   3
ENDBRANCH  10   9
BRANCH  12  13
ATOM     13  N   UNL     1       8.229  29.071  20.391  0.00  0.00    -0.281 N 
ATOM     14  C   UNL     1       8.165  30.232  21.145  0.00  0.00    +0.248 C 
ATOM     30  O   UNL     1       8.521  30.320  22.310  0.00  0.00    -0.270 OA
ATOM     31  H   UNL     1       7.724  29.083  19.505  0.00  0.00    +0.155 HD
BRANCH  14  15
ATOM     15  C   UNL     1       7.611  31.470  20.516  0.00  0.00    +0.037 A 
ATOM     16  C   UNL     1       8.242  32.776  20.727  0.00  0.00    +0.013 A 
ATOM     17  C   UNL     1       7.678  33.957  20.124  0.00  0.00    +0.005 A 
ATOM     18  C   UNL     1       6.476  33.837  19.301  0.00  0.00    -0.033 A 
ATOM     28  C   UNL     1       5.875  32.529  19.104  0.00  0.00    +0.005 A 
ATOM     29  C   UNL     1       6.424  31.369  19.695  0.00  0.00    +0.013 A 
BRANCH  18  19
ATOM     19  C   UNL     1       5.794  35.047  18.636  0.00  0.00    +0.119 C 
BRANCH  19  20
ATOM     20  N   UNL     1       5.110  36.025  19.533  0.00  0.00    -0.302 NA
ATOM     21  C   UNL     1       6.053  37.139  19.995  0.00  0.00    +0.066 C 
ATOM     22  C   UNL     1       5.315  38.166  20.915  0.00  0.00    -0.064 C 
ATOM     23  N   UNL     1       4.715  37.431  22.115  0.00  0.00    +0.379 N 
ATOM     24  C   UNL     1       4.070  38.402  23.011  0.00  0.00    -0.096 C 
ATOM     25  H   UNL     1       5.554  36.958  22.676  0.00  0.00    -0.082 HD
ATOM     26  C   UNL     1       3.777  36.320  21.664  0.00  0.00    -0.064 C 
ATOM     27  C   UNL     1       4.513  35.322  20.727  0.00  0.00    +0.066 C 
ENDBRANCH  19  20
ENDBRANCH  18  19
ENDBRANCH  14  15
ENDBRANCH  12  13
TORSDOF 6
ENDMDL
MODEL 3
REMARK VINA RESULT:      -9.1      7.183     14.234
REMARK  Name = C:\Users\Docking\Desktop\test protocol\1iep_ligandH.pdb
REMARK  8 active torsions:
REMARK  status: ('A' for Active; 'I' for Inactive)
REMARK    1  A    between atoms: _5  and  _11
REMARK    2  A    between atoms: _19  and  _21
REMARK    3  A    between atoms: _22  and  _66
REMARK    4  A    between atoms: _27  and  _30
REMARK    5  A    between atoms: _32  and  _33
REMARK    6  A    between atoms: _38  and  _43
REMARK    7  A    between atoms: _43  and  _46
REMARK    8  A    between atoms: _53  and  _55
REMARK                            x       y       z     vdW  Elec       q    Type
REMARK                         _______ _______ _______ _____ _____    ______ ____
ROOT
ATOM     10  C   UNL     1       8.835  27.190  21.512  0.00  0.00    +0.038 A 
ATOM     11  C   UNL     1       8.394  28.267  20.702  0.00  0.00    +0.047 A 
ATOM     12  C   UNL     1       8.264  29.611  21.242  0.00  0.00    +0.035 A 
ATOM     32  C   UNL     1       8.594  29.823  22.613  0.00  0.00    +0.024 A 
ATOM     33  C   UNL     1       9.043  28.740  23.451  0.00  0.00    +0.007 A 
ATOM     34  C   UNL     1       9.171  27.411  22.924  0.00  0.00    -0.029 A 
ATOM     35  C   UNL     1       9.650  26.287  23.871  0.00  0.00    +0.045 C 
ENDROOT
BRANCH  10   9
ATOM      4  C   UNL     1       6.904  23.144  19.798  0.00  0.00    +0.077 A 
ATOM      5  C   UNL     1       5.571  23.587  20.089  0.00  0.00    +0.048 A 
ATOM      6  C   UNL     1       5.426  24.859  20.686  0.00  0.00    +0.116 A 
ATOM      7  N   UNL     1       6.538  25.623  20.967  0.00  0.00    -0.223 NA
ATOM      8  C   UNL     1       7.810  25.165  20.675  0.00  0.00    +0.220 A 
ATOM      9  N   UNL     1       8.942  25.920  20.942  0.00  0.00    -0.283 N 
ATOM     36  H   UNL     1       9.863  25.543  20.718  0.00  0.00    +0.155 HD
ATOM     37  N   UNL     1       7.975  23.953  20.106  0.00  0.00    -0.214 NA
BRANCH   4   3
ATOM      1  C   UNL     1       8.649  20.317  17.732  0.00  0.00    +0.020 A 
ATOM      2  C   UNL     1       8.389  21.612  18.320  0.00  0.00    +0.013 A 
ATOM      3  C   UNL     1       7.221  21.825  19.165  0.00  0.00    +0.019 A 
ATOM     38  C   UNL     1       6.329  20.699  19.398  0.00  0.00    +0.120 A 
ATOM     39  N   UNL     1       6.604  19.464  18.818  0.00  0.00    -0.263 NA
ATOM     40  C   UNL     1       7.724  19.248  18.001  0.00  0.00    +0.111 A 
ENDBRANCH   4   3
ENDBRANCH  10   9
BRANCH  12  13
ATOM     13  N   UNL     1       7.814  30.742  20.470  0.00  0.00    -0.281 N 
ATOM     14  C   UNL     1       6.966  31.763  20.868  0.00  0.00    +0.248 C 
ATOM     30  O   UNL     1       6.292  31.743  21.888  0.00  0.00    -0.270 OA
ATOM     31  H   UNL     1       8.162  30.797  19.512  0.00  0.00    +0.155 HD
BRANCH  14  15
ATOM     15  C   UNL     1       6.836  32.974  20.002  0.00  0.00    +0.037 A 
ATOM     16  C   UNL     1       8.014  33.620  19.417  0.00  0.00    +0.013 A 
ATOM     17  C   UNL     1       7.862  34.796  18.599  0.00  0.00    +0.005 A 
ATOM     18  C   UNL     1       6.525  35.334  18.359  0.00  0.00    -0.033 A 
ATOM     28  C   UNL     1       5.373  34.671  18.947  0.00  0.00    +0.005 A 
ATOM     29  C   UNL     1       5.518  33.518  19.751  0.00  0.00    +0.013 A 
BRANCH  18  19
ATOM     19  C   UNL     1       6.271  36.598  17.516  0.00  0.00    +0.119 C 
BRANCH  19  20
ATOM     20  N   UNL     1       6.025  37.874  18.253  0.00  0.00    -0.302 NA
ATOM     21  C   UNL     1       5.822  37.640  19.753  0.00  0.00    +0.066 C 
ATOM     22  C   UNL     1       5.588  38.987  20.512  0.00  0.00    -0.064 C 
ATOM     23  N   UNL     1       4.381  39.707  19.908  0.00  0.00    +0.379 N 
ATOM     24  C   UNL     1       4.123  40.945  20.657  0.00  0.00    -0.096 C 
ATOM     25  H   UNL     1       3.494  39.044  20.035  0.00  0.00    -0.082 HD
ATOM     26  C   UNL     1       4.573  39.940  18.416  0.00  0.00    -0.064 C 
ATOM     27  C   UNL     1       4.834  38.599  17.676  0.00  0.00    +0.066 C 
ENDBRANCH  19  20
ENDBRANCH  18  19
ENDBRANCH  14  15
ENDBRANCH  12  13
TORSDOF 6
ENDMDL
MODEL 4
REMARK VINA RESULT:      -9.0      2.381      3.914
REMARK  Name = C:\Users\Docking\Desktop\test protocol\1iep_ligandH.pdb
REMARK  8 active torsions:
REMARK  status: ('A' for Active; 'I' for Inactive)
REMARK    1  A    between atoms: _5  and  _11
REMARK    2  A    between atoms: _19  and  _21
REMARK    3  A    between atoms: _22  and  _66
REMARK    4  A    between atoms: _27  and  _30
REMARK    5  A    between atoms: _32  and  _33
REMARK    6  A    between atoms: _38  and  _43
REMARK    7  A    between atoms: _43  and  _46
REMARK    8  A    between atoms: _53  and  _55
REMARK                            x       y       z     vdW  Elec       q    Type
REMARK                         _______ _______ _______ _____ _____    ______ ____
ROOT
ATOM     10  C   UNL     1       8.895  24.560  20.622  0.00  0.00    +0.038 A 
ATOM     11  C   UNL     1      10.080  24.419  19.856  0.00  0.00    +0.047 A 
ATOM     12  C   UNL     1      10.031  23.996  18.465  0.00  0.00    +0.035 A 
ATOM     32  C   UNL     1       8.757  23.727  17.885  0.00  0.00    +0.024 A 
ATOM     33  C   UNL     1       7.542  23.865  18.650  0.00  0.00    +0.007 A 
ATOM     34  C   UNL     1       7.585  24.279  20.023  0.00  0.00    -0.029 A 
ATOM     35  C   UNL     1       6.251  24.404  20.796  0.00  0.00    +0.045 C 
ENDROOT
BRANCH  10   9
ATOM      4  C   UNL     1       8.977  27.958  24.011  0.00  0.00    +0.077 A 
ATOM      5  C   UNL     1       8.823  29.008  23.046  0.00  0.00    +0.048 A 
ATOM      6  C   UNL     1       8.734  28.632  21.687  0.00  0.00    +0.116 A 
ATOM      7  N   UNL     1       8.795  27.302  21.331  0.00  0.00    -0.223 NA
ATOM      8  C   UNL     1       8.945  26.314  22.287  0.00  0.00    +0.220 A 
ATOM      9  N   UNL     1       9.001  24.970  21.953  0.00  0.00    -0.283 N 
ATOM     36  H   UNL     1       9.120  24.273  22.687  0.00  0.00    +0.155 HD
ATOM     37  N   UNL     1       9.034  26.648  23.592  0.00  0.00    -0.214 NA
BRANCH   4   3
ATOM      1  C   UNL     1       8.113  28.860  27.718  0.00  0.00    +0.020 A 
ATOM      2  C   UNL     1       7.959  28.646  26.298  0.00  0.00    +0.013 A 
ATOM      3  C   UNL     1       9.082  28.196  25.486  0.00  0.00    +0.019 A 
ATOM     38  C   UNL     1      10.358  27.969  26.147  0.00  0.00    +0.120 A 
ATOM     39  N   UNL     1      10.477  28.185  27.516  0.00  0.00    -0.263 NA
ATOM     40  C   UNL     1       9.404  28.620  28.308  0.00  0.00    +0.111 A 
ENDBRANCH   4   3
ENDBRANCH  10   9
BRANCH  12  13
ATOM     13  N   UNL     1      11.202  23.827  17.640  0.00  0.00    -0.281 N 
ATOM     14  C   UNL     1      11.818  22.644  17.268  0.00  0.00    +0.248 C 
ATOM     30  O   UNL     1      11.579  21.554  17.766  0.00  0.00    -0.270 OA
ATOM     31  H   UNL     1      11.628  24.684  17.288  0.00  0.00    +0.155 HD
BRANCH  14  15
ATOM     15  C   UNL     1      12.860  22.678  16.197  0.00  0.00    +0.037 A 
ATOM     16  C   UNL     1      14.163  23.308  16.425  0.00  0.00    +0.013 A 
ATOM     17  C   UNL     1      15.144  23.342  15.370  0.00  0.00    +0.005 A 
ATOM     18  C   UNL     1      14.826  22.742  14.076  0.00  0.00    -0.033 A 
ATOM     28  C   UNL     1      13.527  22.119  13.879  0.00  0.00    +0.005 A 
ATOM     29  C   UNL     1      12.563  22.085  14.911  0.00  0.00    +0.013 A 
BRANCH  18  19
ATOM     19  C   UNL     1      15.804  22.751  12.886  0.00  0.00    +0.119 C 
BRANCH  19  20
ATOM     20  N   UNL     1      17.252  22.544  13.190  0.00  0.00    -0.302 NA
ATOM     21  C   UNL     1      18.151  23.442  12.336  0.00  0.00    +0.066 C 
ATOM     22  C   UNL     1      19.661  23.229  12.682  0.00  0.00    -0.064 C 
ATOM     23  N   UNL     1      20.023  21.756  12.487  0.00  0.00    +0.379 N 
ATOM     24  C   UNL     1      21.456  21.563  12.756  0.00  0.00    -0.096 C 
ATOM     25  H   UNL     1      19.843  21.502  11.416  0.00  0.00    -0.082 HD
ATOM     26  C   UNL     1      19.131  20.856  13.331  0.00  0.00    -0.064 C 
ATOM     27  C   UNL     1      17.632  21.097  13.000  0.00  0.00    +0.066 C 
ENDBRANCH  19  20
ENDBRANCH  18  19
ENDBRANCH  14  15
ENDBRANCH  12  13
TORSDOF 6
ENDMDL
MODEL 5
REMARK VINA RESULT:      -8.9      2.637     15.268
REMARK  Name = C:\Users\Docking\Desktop\test protocol\1iep_ligandH.pdb
REMARK  8 active torsions:
REMARK  status: ('A' for Active; 'I' for Inactive)
REMARK    1  A    between atoms: _5  and  _11
REMARK    2  A    between atoms: _19  and  _21
REMARK    3  A    between atoms: _22  and  _66
REMARK    4  A    between atoms: _27  and  _30
REMARK    5  A    between atoms: _32  and  _33
REMARK    6  A    between atoms: _38  and  _43
REMARK    7  A    between atoms: _43  and  _46
REMARK    8  A    between atoms: _53  and  _55
REMARK                            x       y       z     vdW  Elec       q    Type
REMARK                         _______ _______ _______ _____ _____    ______ ____
ROOT
ATOM     10  C   UNL     1      19.983  21.075  13.924  0.00  0.00    +0.038 A 
ATOM     11  C   UNL     1      18.805  21.292  14.685  0.00  0.00    +0.047 A 
ATOM     12  C   UNL     1      18.214  22.617  14.794  0.00  0.00    +0.035 A 
ATOM     32  C   UNL     1      18.846  23.697  14.113  0.00  0.00    +0.024 A 
ATOM     33  C   UNL     1      20.044  23.494  13.336  0.00  0.00    +0.007 A 
ATOM     34  C   UNL     1      20.633  22.191  13.227  0.00  0.00    -0.029 A 
ATOM     35  C   UNL     1      21.921  22.033  12.385  0.00  0.00    +0.045 C 
ENDROOT
BRANCH  10   9
ATOM      4  C   UNL     1      20.649  16.895  11.660  0.00  0.00    +0.077 A 
ATOM      5  C   UNL     1      19.863  17.312  10.535  0.00  0.00    +0.048 A 
ATOM      6  C   UNL     1      19.298  18.606  10.581  0.00  0.00    +0.116 A 
ATOM      7  N   UNL     1      19.511  19.415  11.676  0.00  0.00    -0.223 NA
ATOM      8  C   UNL     1      20.274  18.982  12.745  0.00  0.00    +0.220 A 
ATOM      9  N   UNL     1      20.508  19.783  13.853  0.00  0.00    -0.283 N 
ATOM     36  H   UNL     1      21.069  19.424  14.625  0.00  0.00    +0.155 HD
ATOM     37  N   UNL     1      20.823  17.750  12.726  0.00  0.00    -0.214 NA
BRANCH   4   3
ATOM      1  C   UNL     1      23.220  13.969  11.302  0.00  0.00    +0.020 A 
ATOM      2  C   UNL     1      22.622  15.278  11.178  0.00  0.00    +0.013 A 
ATOM      3  C   UNL     1      21.314  15.557  11.759  0.00  0.00    +0.019 A 
ATOM     38  C   UNL     1      20.634  14.482  12.464  0.00  0.00    +0.120 A 
ATOM     39  N   UNL     1      21.234  13.231  12.566  0.00  0.00    -0.263 NA
ATOM     40  C   UNL     1      22.491  12.950  12.010  0.00  0.00    +0.111 A 
ENDBRANCH   4   3
ENDBRANCH  10   9
BRANCH  12  13
ATOM     13  N   UNL     1      17.024  22.899  15.559  0.00  0.00    -0.281 N 
ATOM     14  C   UNL     1      15.725  23.029  15.096  0.00  0.00    +0.248 C 
ATOM     30  O   UNL     1      15.419  23.134  13.917  0.00  0.00    -0.270 OA
ATOM     31  H   UNL     1      17.156  23.018  16.563  0.00  0.00    +0.155 HD
BRANCH  14  15
ATOM     15  C   UNL     1      14.606  23.062  16.086  0.00  0.00    +0.037 A 
ATOM     16  C   UNL     1      14.817  23.534  17.456  0.00  0.00    +0.013 A 
ATOM     17  C   UNL     1      13.724  23.540  18.396  0.00  0.00    +0.005 A 
ATOM     18  C   UNL     1      12.409  23.072  17.967  0.00  0.00    -0.033 A 
ATOM     28  C   UNL     1      12.225  22.614  16.600  0.00  0.00    +0.005 A 
ATOM     29  C   UNL     1      13.295  22.607  15.676  0.00  0.00    +0.013 A 
BRANCH  18  19
ATOM     19  C   UNL     1      11.190  23.023  18.908  0.00  0.00    +0.119 C 
BRANCH  19  20
ATOM     20  N   UNL     1      10.754  24.310  19.530  0.00  0.00    -0.302 NA
ATOM     21  C   UNL     1       9.489  24.139  20.374  0.00  0.00    +0.066 C 
ATOM     22  C   UNL     1       9.059  25.489  21.035  0.00  0.00    -0.064 C 
ATOM     23  N   UNL     1       8.846  26.542  19.946  0.00  0.00    +0.379 N 
ATOM     24  C   UNL     1       8.386  27.796  20.559  0.00  0.00    -0.096 C 
ATOM     25  H   UNL     1       8.034  26.175  19.276  0.00  0.00    -0.082 HD
ATOM     26  C   UNL     1      10.099  26.716  19.099  0.00  0.00    -0.064 C 
ATOM     27  C   UNL     1      10.534  25.362  18.471  0.00  0.00    +0.066 C 
ENDBRANCH  19  20
ENDBRANCH  18  19
ENDBRANCH  14  15
ENDBRANCH  12  13
TORSDOF 6
ENDMDL
