MODEL 1
REMARK VINA RESULT:      -9.7      0.000      0.000
REMARK  Name = C:\Users\Docking\Desktop\test protocol\1iep_ligandH.pdb
REMARK  8 active torsions:
REMARK  status: ('A' for Active; 'I' for Inactive)
REMARK    1  A    between atoms: _5  and  _11
REMARK    2  A    between atoms: _19  and  _21
REMARK    3  A    between atoms: _22  and  _66
REMARK    4  A    between atoms: _27  and  _30
REMARK    5  A    between atoms: _32  and  _33
REMARK    6  A    between atoms: _38  and  _43
REMARK    7  A    between atoms: _43  and  _46
REMARK    8  A    between atoms: _53  and  _55
REMARK                            x       y       z     vdW  Elec       q    Type
REMARK                         _______ _______ _______ _____ _____    ______ ____
ROOT
ATOM     10  C   UNL     1      10.036  27.604  20.794  0.00  0.00    +0.038 A 
ATOM     11  C   UNL     1       9.490  28.725  20.116  0.00  0.00    +0.047 A 
ATOM     12  C   UNL     1       8.754  29.753  20.835  0.00  0.00    +0.035 A 
ATOM     32  C   UNL     1       8.595  29.610  22.244  0.00  0.00    +0.024 A 
ATOM     33  C   UNL     1       9.143  28.477  22.949  0.00  0.00    +0.007 A 
ATOM     34  C   UNL     1       9.868  27.459  22.244  0.00  0.00    -0.029 A 
ATOM     35  C   UNL     1      10.428  26.263  23.050  0.00  0.00    +0.045 C 
ENDROOT
BRANCH  10   9
ATOM      4  C   UNL     1      10.191  23.772  17.908  0.00  0.00    +0.077 A 
ATOM      5  C   UNL     1       8.761  23.650  17.895  0.00  0.00    +0.048 A 
ATOM      6  C   UNL     1       8.023  24.590  18.650  0.00  0.00    +0.116 A 
ATOM      7  N   UNL     1       8.677  25.573  19.360  0.00  0.00    -0.223 NA
ATOM      8  C   UNL     1      10.057  25.661  19.353  0.00  0.00    +0.220 A 
ATOM      9  N   UNL     1      10.734  26.647  20.054  0.00  0.00    -0.283 N 
ATOM     36  H   UNL     1      11.753  26.674  20.029  0.00  0.00    +0.155 HD
ATOM     37  N   UNL     1      10.784  24.775  18.641  0.00  0.00    -0.214 NA
BRANCH   4   3
ATOM      1  C   UNL     1      11.669  20.649  16.075  0.00  0.00    +0.020 A 
ATOM      2  C   UNL     1      10.747  21.491  16.801  0.00  0.00    +0.013 A 
ATOM      3  C   UNL     1      11.108  22.857  17.158  0.00  0.00    +0.019 A 
ATOM     38  C   UNL     1      12.421  23.344  16.763  0.00  0.00    +0.120 A 
ATOM     39  N   UNL     1      13.289  22.509  16.066  0.00  0.00    -0.263 NA
ATOM     40  C   UNL     1      12.953  21.193  15.718  0.00  0.00    +0.111 A 
ENDBRANCH   4   3
ENDBRANCH  10   9
BRANCH  12  13
ATOM     13  N   UNL     1       8.170  30.908  20.200  0.00  0.00    -0.281 N 
ATOM     14  C   UNL     1       7.229  31.782  20.721  0.00  0.00    +0.248 C 
ATOM     30  O   UNL     1       6.586  31.578  21.740  0.00  0.00    -0.270 OA
ATOM     31  H   UNL     1       8.488  31.106  19.251  0.00  0.00    +0.155 HD
BRANCH  14  15
ATOM     15  C   UNL     1       6.953  33.061  19.998  0.00  0.00    +0.037 A 
ATOM     16  C   UNL     1       8.030  33.816  19.352  0.00  0.00    +0.013 A 
ATOM     17  C   UNL     1       7.739  35.055  18.676  0.00  0.00    +0.005 A 
ATOM     18  C   UNL     1       6.363  35.546  18.641  0.00  0.00    -0.033 A 
ATOM     28  C   UNL     1       5.314  34.774  19.286  0.00  0.00    +0.005 A 
ATOM     29  C   UNL     1       5.596  33.560  19.950  0.00  0.00    +0.013 A 
BRANCH  18  19
ATOM     19  C   UNL     1       5.964  36.869  17.960  0.00  0.00    +0.119 C 
BRANCH  19  20
ATOM     20  N   UNL     1       5.477  37.972  18.842  0.00  0.00    -0.302 NA
ATOM     21  C   UNL     1       5.921  39.348  18.340  0.00  0.00    +0.066 C 
ATOM     22  C   UNL     1       5.383  40.491  19.261  0.00  0.00    -0.064 C 
ATOM     23  N   UNL     1       5.864  40.256  20.694  0.00  0.00    +0.379 N 
ATOM     24  C   UNL     1       5.408  41.360  21.551  0.00  0.00    -0.096 C 
ATOM     25  H   UNL     1       6.979  40.273  20.684  0.00  0.00    -0.082 HD
ATOM     26  C   UNL     1       5.428  38.888  21.200  0.00  0.00    -0.064 C 
ATOM     27  C   UNL     1       5.943  37.762  20.261  0.00  0.00    +0.066 C 
ENDBRANCH  19  20
ENDBRANCH  18  19
ENDBRANCH  14  15
ENDBRANCH  12  13
TORSDOF 6
ENDMDL
MODEL 2
REMARK VINA RESULT:      -9.5      1.589      2.226
REMARK  Name = C:\Users\Docking\Desktop\test protocol\1iep_ligandH.pdb
REMARK  8 active torsions:
REMARK  status: ('A' for Active; 'I' for Inactive)
REMARK    1  A    between atoms: _5  and  _11
REMARK    2  A    between atoms: _19  and  _21
REMARK    3  A    between atoms: _22  and  _66
REMARK    4  A    between atoms: _27  and  _30
REMARK    5  A    between atoms: _32  and  _33
REMARK    6  A    between atoms: _38  and  _43
REMARK    7  A    between atoms: _43  and  _46
REMARK    8  A    between atoms: _53  and  _55
REMARK                            x       y       z     vdW  Elec       q    Type
REMARK                         _______ _______ _______ _____ _____    ______ ____
ROOT
ATOM     10  C   UNL     1      10.145  26.141  20.066  0.00  0.00    +0.038 A 
ATOM     11  C   UNL     1       9.595  27.411  19.752  0.00  0.00    +0.047 A 
ATOM     12  C   UNL     1       8.504  27.972  20.531  0.00  0.00    +0.035 A 
ATOM     32  C   UNL     1       7.997  27.215  21.627  0.00  0.00    +0.024 A 
ATOM     33  C   UNL     1       8.542  25.922  21.960  0.00  0.00    +0.007 A 
ATOM     34  C   UNL     1       9.618  25.362  21.193  0.00  0.00    -0.029 A 
ATOM     35  C   UNL     1      10.159  23.970  21.591  0.00  0.00    +0.045 C 
ENDROOT
BRANCH  10   9
ATOM      4  C   UNL     1      11.919  23.131  16.776  0.00  0.00    +0.077 A 
ATOM      5  C   UNL     1      10.659  22.463  16.622  0.00  0.00    +0.048 A 
ATOM      6  C   UNL     1       9.582  22.919  17.413  0.00  0.00    +0.116 A 
ATOM      7  N   UNL     1       9.762  23.968  18.289  0.00  0.00    -0.223 NA
ATOM      8  C   UNL     1      10.991  24.589  18.415  0.00  0.00    +0.220 A 
ATOM      9  N   UNL     1      11.192  25.650  19.284  0.00  0.00    -0.283 N 
ATOM     36  H   UNL     1      12.116  26.077  19.352  0.00  0.00    +0.155 HD
ATOM     37  N   UNL     1      12.036  24.171  17.671  0.00  0.00    -0.214 NA
BRANCH   4   3
ATOM      1  C   UNL     1      14.329  21.845  13.976  0.00  0.00    +0.020 A 
ATOM      2  C   UNL     1      13.109  22.178  14.675  0.00  0.00    +0.013 A 
ATOM      3  C   UNL     1      13.152  22.766  16.008  0.00  0.00    +0.019 A 
ATOM     38  C   UNL     1      14.454  23.006  16.610  0.00  0.00    +0.120 A 
ATOM     39  N   UNL     1      15.612  22.673  15.913  0.00  0.00    -0.263 NA
ATOM     40  C   UNL     1      15.583  22.105  14.631  0.00  0.00    +0.111 A 
ENDBRANCH   4   3
ENDBRANCH  10   9
BRANCH  12  13
ATOM     13  N   UNL     1       7.900  29.252  20.254  0.00  0.00    -0.281 N 
ATOM     14  C   UNL     1       8.065  30.440  20.949  0.00  0.00    +0.248 C 
ATOM     30  O   UNL     1       8.593  30.530  22.047  0.00  0.00    -0.270 OA
ATOM     31  H   UNL     1       7.276  29.288  19.448  0.00  0.00    +0.155 HD
BRANCH  14  15
ATOM     15  C   UNL     1       7.557  31.708  20.342  0.00  0.00    +0.037 A 
ATOM     16  C   UNL     1       8.389  32.912  20.291  0.00  0.00    +0.013 A 
ATOM     17  C   UNL     1       7.868  34.127  19.716  0.00  0.00    +0.005 A 
ATOM     18  C   UNL     1       6.508  34.142  19.185  0.00  0.00    -0.033 A 
ATOM     28  C   UNL     1       5.706  32.931  19.243  0.00  0.00    +0.005 A 
ATOM     29  C   UNL     1       6.212  31.739  19.807  0.00  0.00    +0.013 A 
BRANCH  18  19
ATOM     19  C   UNL     1       5.863  35.399  18.572  0.00  0.00    +0.119 C 
BRANCH  19  20
ATOM     20  N   UNL     1       5.776  36.614  19.436  0.00  0.00    -0.302 NA
ATOM     21  C   UNL     1       4.640  36.513  20.457  0.00  0.00    +0.066 C 
ATOM     22  C   UNL     1       4.578  37.783  21.368  0.00  0.00    -0.064 C 
ATOM     23  N   UNL     1       4.412  39.027  20.493  0.00  0.00    +0.379 N 
ATOM     24  C   UNL     1       4.295  40.216  21.350  0.00  0.00    -0.096 C 
ATOM     25  H   UNL     1       3.455  38.919  19.931  0.00  0.00    -0.082 HD
ATOM     26  C   UNL     1       5.537  39.133  19.473  0.00  0.00    -0.064 C 
ATOM     27  C   UNL     1       5.608  37.854  18.593  0.00  0.00    +0.066 C 
ENDBRANCH  19  20
ENDBRANCH  18  19
ENDBRANCH  14  15
ENDBRANCH  12  13
TORSDOF 6
ENDMDL
MODEL 3
REMARK VINA RESULT:      -9.2      4.327     14.281
REMARK  Name = C:\Users\Docking\Desktop\test protocol\1iep_ligandH.pdb
REMARK  8 active torsions:
REMARK  status: ('A' for Active; 'I' for Inactive)
REMARK    1  A    between atoms: _5  and  _11
REMARK    2  A    between atoms: _19  and  _21
REMARK    3  A    between atoms: _22  and  _66
REMARK    4  A    between atoms: _27  and  _30
REMARK    5  A    between atoms: _32  and  _33
REMARK    6  A    between atoms: _38  and  _43
REMARK    7  A    between atoms: _43  and  _46
REMARK    8  A    between atoms: _53  and  _55
REMARK                            x       y       z     vdW  Elec       q    Type
REMARK                         _______ _______ _______ _____ _____    ______ ____
ROOT
ATOM     10  C   UNL     1       9.174  25.801  18.916  0.00  0.00    +0.038 A 
ATOM     11  C   UNL     1      10.496  25.534  18.478  0.00  0.00    +0.047 A 
ATOM     12  C   UNL     1      11.028  24.180  18.476  0.00  0.00    +0.035 A 
ATOM     32  C   UNL     1      10.185  23.122  18.925  0.00  0.00    +0.024 A 
ATOM     33  C   UNL     1       8.839  23.376  19.375  0.00  0.00    +0.007 A 
ATOM     34  C   UNL     1       8.310  24.710  19.382  0.00  0.00    -0.029 A 
ATOM     35  C   UNL     1       6.862  24.925  19.881  0.00  0.00    +0.045 C 
ENDROOT
BRANCH  10   9
ATOM      4  C   UNL     1       8.232  29.988  21.067  0.00  0.00    +0.077 A 
ATOM      5  C   UNL     1       8.668  29.498  22.343  0.00  0.00    +0.048 A 
ATOM      6  C   UNL     1       9.120  28.161  22.404  0.00  0.00    +0.116 A 
ATOM      7  N   UNL     1       9.132  27.381  21.268  0.00  0.00    -0.223 NA
ATOM      8  C   UNL     1       8.703  27.884  20.054  0.00  0.00    +0.220 A 
ATOM      9  N   UNL     1       8.714  27.120  18.897  0.00  0.00    -0.283 N 
ATOM     36  H   UNL     1       8.382  27.525  18.022  0.00  0.00    +0.155 HD
ATOM     37  N   UNL     1       8.265  29.157  19.969  0.00  0.00    -0.214 NA
BRANCH   4   3
ATOM      1  C   UNL     1       6.262  33.349  21.417  0.00  0.00    +0.020 A 
ATOM      2  C   UNL     1       6.712  32.001  21.679  0.00  0.00    +0.013 A 
ATOM      3  C   UNL     1       7.729  31.380  20.840  0.00  0.00    +0.019 A 
ATOM     38  C   UNL     1       8.274  32.155  19.736  0.00  0.00    +0.120 A 
ATOM     39  N   UNL     1       7.820  33.450  19.507  0.00  0.00    -0.263 NA
ATOM     40  C   UNL     1       6.841  34.058  20.307  0.00  0.00    +0.111 A 
ENDBRANCH   4   3
ENDBRANCH  10   9
BRANCH  12  13
ATOM     13  N   UNL     1      12.365  23.848  18.050  0.00  0.00    -0.281 N 
ATOM     14  C   UNL     1      12.756  23.233  16.872  0.00  0.00    +0.248 C 
ATOM     30  O   UNL     1      11.992  22.678  16.097  0.00  0.00    -0.270 OA
ATOM     31  H   UNL     1      13.115  24.098  18.695  0.00  0.00    +0.155 HD
BRANCH  14  15
ATOM     15  C   UNL     1      14.206  23.219  16.511  0.00  0.00    +0.037 A 
ATOM     16  C   UNL     1      14.653  22.804  15.179  0.00  0.00    +0.013 A 
ATOM     17  C   UNL     1      16.059  22.783  14.862  0.00  0.00    +0.005 A 
ATOM     18  C   UNL     1      17.029  23.181  15.880  0.00  0.00    -0.033 A 
ATOM     28  C   UNL     1      16.557  23.593  17.192  0.00  0.00    +0.005 A 
ATOM     29  C   UNL     1      15.180  23.614  17.506  0.00  0.00    +0.013 A 
BRANCH  18  19
ATOM     19  C   UNL     1      18.550  23.170  15.637  0.00  0.00    +0.119 C 
BRANCH  19  20
ATOM     20  N   UNL     1      19.064  22.264  14.567  0.00  0.00    -0.302 NA
ATOM     21  C   UNL     1      18.892  20.787  14.933  0.00  0.00    +0.066 C 
ATOM     22  C   UNL     1      19.415  19.854  13.792  0.00  0.00    -0.064 C 
ATOM     23  N   UNL     1      20.883  20.174  13.508  0.00  0.00    +0.379 N 
ATOM     24  C   UNL     1      21.394  19.259  12.476  0.00  0.00    -0.096 C 
ATOM     25  H   UNL     1      21.458  19.984  14.444  0.00  0.00    -0.082 HD
ATOM     26  C   UNL     1      21.063  21.641  13.146  0.00  0.00    -0.064 C 
ATOM     27  C   UNL     1      20.514  22.560  14.272  0.00  0.00    +0.066 C 
ENDBRANCH  19  20
ENDBRANCH  18  19
ENDBRANCH  14  15
ENDBRANCH  12  13
TORSDOF 6
ENDMDL
MODEL 4
REMARK VINA RESULT:      -9.1      4.651     12.884
REMARK  Name = C:\Users\Docking\Desktop\test protocol\1iep_ligandH.pdb
REMARK  8 active torsions:
REMARK  status: ('A' for Active; 'I' for Inactive)
REMARK    1  A    between atoms: _5  and  _11
REMARK    2  A    between atoms: _19  and  _21
REMARK    3  A    between atoms: _22  and  _66
REMARK    4  A    between atoms: _27  and  _30
REMARK    5  A    between atoms: _32  and  _33
REMARK    6  A    between atoms: _38  and  _43
REMARK    7  A    between atoms: _43  and  _46
REMARK    8  A    between atoms: _53  and  _55
REMARK                            x       y       z     vdW  Elec       q    Type
REMARK                         _______ _______ _______ _____ _____    ______ ____
ROOT
ATOM     10  C   UNL     1       9.153  25.896  19.328  0.00  0.00    +0.038 A 
ATOM     11  C   UNL     1      10.467  25.666  18.844  0.00  0.00    +0.047 A 
ATOM     12  C   UNL     1      11.102  24.365  18.982  0.00  0.00    +0.035 A 
ATOM     32  C   UNL     1      10.370  23.319  19.616  0.00  0.00    +0.024 A 
ATOM     33  C   UNL     1       9.035  23.536  20.114  0.00  0.00    +0.007 A 
ATOM     34  C   UNL     1       8.404  24.818  19.983  0.00  0.00    -0.029 A 
ATOM     35  C   UNL     1       6.973  24.995  20.542  0.00  0.00    +0.045 C 
ENDROOT
BRANCH  10   9
ATOM      4  C   UNL     1       8.016  30.258  20.976  0.00  0.00    +0.077 A 
ATOM      5  C   UNL     1       8.563  29.976  22.272  0.00  0.00    +0.048 A 
ATOM      6  C   UNL     1       9.121  28.694  22.475  0.00  0.00    +0.116 A 
ATOM      7  N   UNL     1       9.127  27.771  21.452  0.00  0.00    -0.223 NA
ATOM      8  C   UNL     1       8.589  28.075  20.215  0.00  0.00    +0.220 A 
ATOM      9  N   UNL     1       8.592  27.165  19.169  0.00  0.00    -0.283 N 
ATOM     36  H   UNL     1       8.179  27.425  18.273  0.00  0.00    +0.155 HD
ATOM     37  N   UNL     1       8.049  29.292  19.995  0.00  0.00    -0.214 NA
BRANCH   4   3
ATOM      1  C   UNL     1       5.764  32.979  19.293  0.00  0.00    +0.020 A 
ATOM      2  C   UNL     1       6.332  31.689  19.614  0.00  0.00    +0.013 A 
ATOM      3  C   UNL     1       7.393  31.569  20.605  0.00  0.00    +0.019 A 
ATOM     38  C   UNL     1       7.861  32.781  21.259  0.00  0.00    +0.120 A 
ATOM     39  N   UNL     1       7.297  34.009  20.928  0.00  0.00    -0.263 NA
ATOM     40  C   UNL     1       6.276  34.138  19.975  0.00  0.00    +0.111 A 
ENDBRANCH   4   3
ENDBRANCH  10   9
BRANCH  12  13
ATOM     13  N   UNL     1      12.436  24.075  18.517  0.00  0.00    -0.281 N 
ATOM     14  C   UNL     1      12.811  23.465  17.331  0.00  0.00    +0.248 C 
ATOM     30  O   UNL     1      12.043  22.882  16.581  0.00  0.00    -0.270 OA
ATOM     31  H   UNL     1      13.196  24.352  19.138  0.00  0.00    +0.155 HD
BRANCH  14  15
ATOM     15  C   UNL     1      14.249  23.497  16.926  0.00  0.00    +0.037 A 
ATOM     16  C   UNL     1      15.294  23.910  17.866  0.00  0.00    +0.013 A 
ATOM     17  C   UNL     1      16.672  23.947  17.445  0.00  0.00    +0.005 A 
ATOM     18  C   UNL     1      17.013  23.569  16.075  0.00  0.00    -0.033 A 
ATOM     28  C   UNL     1      15.957  23.158  15.165  0.00  0.00    +0.005 A 
ATOM     29  C   UNL     1      14.605  23.121  15.574  0.00  0.00    +0.013 A 
BRANCH  18  19
ATOM     19  C   UNL     1      18.455  23.599  15.533  0.00  0.00    +0.119 C 
BRANCH  19  20
ATOM     20  N   UNL     1      19.143  24.924  15.496  0.00  0.00    -0.302 NA
ATOM     21  C   UNL     1      18.476  25.890  14.512  0.00  0.00    +0.066 C 
ATOM     22  C   UNL     1      19.195  27.278  14.502  0.00  0.00    -0.064 C 
ATOM     23  N   UNL     1      20.671  27.082  14.152  0.00  0.00    +0.379 N 
ATOM     24  C   UNL     1      21.338  28.391  14.085  0.00  0.00    -0.096 C 
ATOM     25  H   UNL     1      20.720  26.625  13.136  0.00  0.00    -0.082 HD
ATOM     26  C   UNL     1      21.341  26.121  15.123  0.00  0.00    -0.064 C 
ATOM     27  C   UNL     1      20.601  24.754  15.148  0.00  0.00    +0.066 C 
ENDBRANCH  19  20
ENDBRANCH  18  19
ENDBRANCH  14  15
ENDBRANCH  12  13
TORSDOF 6
ENDMDL
MODEL 5
REMARK VINA RESULT:      -9.0      3.277      4.477
REMARK  Name = C:\Users\Docking\Desktop\test protocol\1iep_ligandH.pdb
REMARK  8 active torsions:
REMARK  status: ('A' for Active; 'I' for Inactive)
REMARK    1  A    between atoms: _5  and  _11
REMARK    2  A    between atoms: _19  and  _21
REMARK    3  A    between atoms: _22  and  _66
REMARK    4  A    between atoms: _27  and  _30
REMARK    5  A    between atoms: _32  and  _33
REMARK    6  A    between atoms: _38  and  _43
REMARK    7  A    between atoms: _43  and  _46
REMARK    8  A    between atoms: _53  and  _55
REMARK                            x       y       z     vdW  Elec       q    Type
REMARK                         _______ _______ _______ _____ _____    ______ ____
ROOT
ATOM     10  C   UNL     1       8.962  25.473  19.886  0.00  0.00    +0.038 A 
ATOM     11  C   UNL     1       8.278  26.708  19.744  0.00  0.00    +0.047 A 
ATOM     12  C   UNL     1       8.900  27.962  20.137  0.00  0.00    +0.035 A 
ATOM     32  C   UNL     1      10.222  27.924  20.669  0.00  0.00    +0.024 A 
ATOM     33  C   UNL     1      10.932  26.678  20.821  0.00  0.00    +0.007 A 
ATOM     34  C   UNL     1      10.322  25.437  20.437  0.00  0.00    -0.029 A 
ATOM     35  C   UNL     1      11.127  24.130  20.629  0.00  0.00    +0.045 C 
ENDROOT
BRANCH  10   9
ATOM      4  C   UNL     1       5.724  21.995  20.557  0.00  0.00    +0.077 A 
ATOM      5  C   UNL     1       5.300  22.550  21.810  0.00  0.00    +0.048 A 
ATOM      6  C   UNL     1       5.946  23.727  22.250  0.00  0.00    +0.116 A 
ATOM      7  N   UNL     1       6.939  24.298  21.485  0.00  0.00    -0.223 NA
ATOM      8  C   UNL     1       7.325  23.737  20.282  0.00  0.00    +0.220 A 
ATOM      9  N   UNL     1       8.317  24.299  19.493  0.00  0.00    -0.283 N 
ATOM     36  H   UNL     1       8.578  23.850  18.615  0.00  0.00    +0.155 HD
ATOM     37  N   UNL     1       6.725  22.612  19.841  0.00  0.00    -0.214 NA
BRANCH   4   3
ATOM      1  C   UNL     1       4.703  19.197  18.021  0.00  0.00    +0.020 A 
ATOM      2  C   UNL     1       5.291  20.406  18.550  0.00  0.00    +0.013 A 
ATOM      3  C   UNL     1       5.135  20.756  19.957  0.00  0.00    +0.019 A 
ATOM     38  C   UNL     1       4.373  19.854  20.807  0.00  0.00    +0.120 A 
ATOM     39  N   UNL     1       3.817  18.698  20.269  0.00  0.00    -0.263 NA
ATOM     40  C   UNL     1       3.959  18.351  18.917  0.00  0.00    +0.111 A 
ENDBRANCH   4   3
ENDBRANCH  10   9
BRANCH  12  13
ATOM     13  N   UNL     1       8.252  29.245  20.024  0.00  0.00    -0.281 N 
ATOM     14  C   UNL     1       8.037  30.182  21.022  0.00  0.00    +0.248 C 
ATOM     30  O   UNL     1       8.181  29.965  22.216  0.00  0.00    -0.270 OA
ATOM     31  H   UNL     1       7.910  29.493  19.095  0.00  0.00    +0.155 HD
BRANCH  14  15
ATOM     15  C   UNL     1       7.582  31.553  20.639  0.00  0.00    +0.037 A 
ATOM     16  C   UNL     1       8.111  32.744  21.309  0.00  0.00    +0.013 A 
ATOM     17  C   UNL     1       7.642  34.054  20.932  0.00  0.00    +0.005 A 
ATOM     18  C   UNL     1       6.639  34.180  19.878  0.00  0.00    -0.033 A 
ATOM     28  C   UNL     1       6.135  32.982  19.226  0.00  0.00    +0.005 A 
ATOM     29  C   UNL     1       6.591  31.696  19.594  0.00  0.00    +0.013 A 
BRANCH  18  19
ATOM     19  C   UNL     1       6.066  35.536  19.426  0.00  0.00    +0.119 C 
BRANCH  19  20
ATOM     20  N   UNL     1       5.577  36.461  20.491  0.00  0.00    -0.302 NA
ATOM     21  C   UNL     1       4.126  36.171  20.883  0.00  0.00    +0.066 C 
ATOM     22  C   UNL     1       3.638  37.133  22.014  0.00  0.00    -0.064 C 
ATOM     23  N   UNL     1       3.794  38.582  21.550  0.00  0.00    +0.379 N 
ATOM     24  C   UNL     1       3.282  39.488  22.589  0.00  0.00    -0.096 C 
ATOM     25  H   UNL     1       3.161  38.716  20.643  0.00  0.00    -0.082 HD
ATOM     26  C   UNL     1       5.234  38.879  21.156  0.00  0.00    -0.064 C 
ATOM     27  C   UNL     1       5.718  37.898  20.052  0.00  0.00    +0.066 C 
ENDBRANCH  19  20
ENDBRANCH  18  19
ENDBRANCH  14  15
ENDBRANCH  12  13
TORSDOF 6
ENDMDL
