MODEL 1
REMARK VINA RESULT:      -8.6      0.000      0.000
REMARK  Name = C:\Users\Docking\Desktop\test protocol\1iep_ligandH.pdb
REMARK  8 active torsions:
REMARK  status: ('A' for Active; 'I' for Inactive)
REMARK    1  A    between atoms: _5  and  _11
REMARK    2  A    between atoms: _19  and  _21
REMARK    3  A    between atoms: _22  and  _66
REMARK    4  A    between atoms: _27  and  _30
REMARK    5  A    between atoms: _32  and  _33
REMARK    6  A    between atoms: _38  and  _43
REMARK    7  A    between atoms: _43  and  _46
REMARK    8  A    between atoms: _53  and  _55
REMARK                            x       y       z     vdW  Elec       q    Type
REMARK                         _______ _______ _______ _____ _____    ______ ____
ROOT
ATOM     10  C   UNL     1     -45.214  78.178  62.978  0.00  0.00    +0.038 A 
ATOM     11  C   UNL     1     -45.471  76.783  62.999  0.00  0.00    +0.047 A 
ATOM     12  C   UNL     1     -46.831  76.268  63.018  0.00  0.00    +0.035 A 
ATOM     32  C   UNL     1     -47.907  77.203  63.014  0.00  0.00    +0.024 A 
ATOM     33  C   UNL     1     -47.664  78.624  62.994  0.00  0.00    +0.007 A 
ATOM     34  C   UNL     1     -46.325  79.138  62.977  0.00  0.00    -0.029 A 
ATOM     35  C   UNL     1     -46.124  80.671  62.962  0.00  0.00    +0.045 C 
ENDROOT
BRANCH  10   9
ATOM      4  C   UNL     1     -41.161  79.307  60.668  0.00  0.00    +0.077 A 
ATOM      5  C   UNL     1     -41.724  78.969  59.392  0.00  0.00    +0.048 A 
ATOM      6  C   UNL     1     -43.057  78.501  59.375  0.00  0.00    +0.116 A 
ATOM      7  N   UNL     1     -43.765  78.385  60.552  0.00  0.00    -0.223 NA
ATOM      8  C   UNL     1     -43.192  78.718  61.765  0.00  0.00    +0.220 A 
ATOM      9  N   UNL     1     -43.888  78.617  62.959  0.00  0.00    -0.283 N 
ATOM     36  H   UNL     1     -43.427  78.865  63.834  0.00  0.00    +0.155 HD
ATOM     37  N   UNL     1     -41.920  79.166  61.808  0.00  0.00    -0.214 NA
BRANCH   4   3
ATOM      1  C   UNL     1     -38.089  81.464  61.770  0.00  0.00    +0.020 A 
ATOM      2  C   UNL     1     -39.454  81.013  61.625  0.00  0.00    +0.013 A 
ATOM      3  C   UNL     1     -39.766  79.818  60.850  0.00  0.00    +0.019 A 
ATOM     38  C   UNL     1     -38.664  79.097  60.230  0.00  0.00    +0.120 A 
ATOM     39  N   UNL     1     -37.360  79.556  60.386  0.00  0.00    -0.263 NA
ATOM     40  C   UNL     1     -37.048  80.705  61.128  0.00  0.00    +0.111 A 
ENDBRANCH   4   3
ENDBRANCH  10   9
BRANCH  12  13
ATOM     13  N   UNL     1     -47.153  74.863  63.048  0.00  0.00    -0.281 N 
ATOM     14  C   UNL     1     -46.909  73.913  62.070  0.00  0.00    +0.248 C 
ATOM     30  O   UNL     1     -46.566  74.171  60.926  0.00  0.00    -0.270 OA
ATOM     31  H   UNL     1     -47.617  74.528  63.893  0.00  0.00    +0.155 HD
BRANCH  14  15
ATOM     15  C   UNL     1     -47.084  72.467  62.408  0.00  0.00    +0.037 A 
ATOM     16  C   UNL     1     -47.039  71.433  61.371  0.00  0.00    +0.013 A 
ATOM     17  C   UNL     1     -47.229  70.048  61.722  0.00  0.00    +0.005 A 
ATOM     18  C   UNL     1     -47.464  69.689  63.118  0.00  0.00    -0.033 A 
ATOM     28  C   UNL     1     -47.499  70.734  64.128  0.00  0.00    +0.005 A 
ATOM     29  C   UNL     1     -47.314  72.093  63.787  0.00  0.00    +0.013 A 
BRANCH  18  19
ATOM     19  C   UNL     1     -47.698  68.239  63.581  0.00  0.00    +0.119 C 
BRANCH  19  20
ATOM     20  N   UNL     1     -48.125  67.251  62.545  0.00  0.00    -0.302 NA
ATOM     21  C   UNL     1     -49.362  66.461  62.980  0.00  0.00    +0.066 C 
ATOM     22  C   UNL     1     -49.809  65.449  61.876  0.00  0.00    -0.064 C 
ATOM     23  N   UNL     1     -48.649  64.505  61.554  0.00  0.00    +0.379 N 
ATOM     24  C   UNL     1     -49.084  63.515  60.558  0.00  0.00    -0.096 C 
ATOM     25  H   UNL     1     -48.392  63.954  62.489  0.00  0.00    -0.082 HD
ATOM     26  C   UNL     1     -47.413  65.282  61.123  0.00  0.00    -0.064 C 
ATOM     27  C   UNL     1     -46.995  66.306  62.216  0.00  0.00    +0.066 C 
ENDBRANCH  19  20
ENDBRANCH  18  19
ENDBRANCH  14  15
ENDBRANCH  12  13
TORSDOF 6
ENDMDL
MODEL 2
REMARK VINA RESULT:      -8.6      1.652      2.039
REMARK  Name = C:\Users\Docking\Desktop\test protocol\1iep_ligandH.pdb
REMARK  8 active torsions:
REMARK  status: ('A' for Active; 'I' for Inactive)
REMARK    1  A    between atoms: _5  and  _11
REMARK    2  A    between atoms: _19  and  _21
REMARK    3  A    between atoms: _22  and  _66
REMARK    4  A    between atoms: _27  and  _30
REMARK    5  A    between atoms: _32  and  _33
REMARK    6  A    between atoms: _38  and  _43
REMARK    7  A    between atoms: _43  and  _46
REMARK    8  A    between atoms: _53  and  _55
REMARK                            x       y       z     vdW  Elec       q    Type
REMARK                         _______ _______ _______ _____ _____    ______ ____
ROOT
ATOM     10  C   UNL     1     -44.837  78.700  60.890  0.00  0.00    +0.038 A 
ATOM     11  C   UNL     1     -45.189  77.403  61.342  0.00  0.00    +0.047 A 
ATOM     12  C   UNL     1     -46.408  76.752  60.887  0.00  0.00    +0.035 A 
ATOM     32  C   UNL     1     -47.244  77.451  59.969  0.00  0.00    +0.024 A 
ATOM     33  C   UNL     1     -46.903  78.771  59.500  0.00  0.00    +0.007 A 
ATOM     34  C   UNL     1     -45.703  79.419  59.947  0.00  0.00    -0.029 A 
ATOM     35  C   UNL     1     -45.390  80.837  59.415  0.00  0.00    +0.045 C 
ENDROOT
BRANCH  10   9
ATOM      4  C   UNL     1     -40.106  79.464  60.629  0.00  0.00    +0.077 A 
ATOM      5  C   UNL     1     -39.973  78.620  59.477  0.00  0.00    +0.048 A 
ATOM      6  C   UNL     1     -41.145  78.002  58.987  0.00  0.00    +0.116 A 
ATOM      7  N   UNL     1     -42.355  78.220  59.610  0.00  0.00    -0.223 NA
ATOM      8  C   UNL     1     -42.448  79.038  60.721  0.00  0.00    +0.220 A 
ATOM      9  N   UNL     1     -43.655  79.278  61.359  0.00  0.00    -0.283 N 
ATOM     36  H   UNL     1     -43.680  79.882  62.179  0.00  0.00    +0.155 HD
ATOM     37  N   UNL     1     -41.342  79.639  61.209  0.00  0.00    -0.214 NA
BRANCH   4   3
ATOM      1  C   UNL     1     -36.544  80.913  61.348  0.00  0.00    +0.020 A 
ATOM      2  C   UNL     1     -37.616  80.196  60.696  0.00  0.00    +0.013 A 
ATOM      3  C   UNL     1     -38.959  80.189  61.262  0.00  0.00    +0.019 A 
ATOM     38  C   UNL     1     -39.186  80.924  62.498  0.00  0.00    +0.120 A 
ATOM     39  N   UNL     1     -38.134  81.604  63.103  0.00  0.00    -0.263 NA
ATOM     40  C   UNL     1     -36.837  81.616  62.569  0.00  0.00    +0.111 A 
ENDBRANCH   4   3
ENDBRANCH  10   9
BRANCH  12  13
ATOM     13  N   UNL     1     -46.821  75.440  61.318  0.00  0.00    -0.281 N 
ATOM     14  C   UNL     1     -46.407  74.212  60.827  0.00  0.00    +0.248 C 
ATOM     30  O   UNL     1     -45.775  74.060  59.792  0.00  0.00    -0.270 OA
ATOM     31  H   UNL     1     -47.501  75.412  62.078  0.00  0.00    +0.155 HD
BRANCH  14  15
ATOM     15  C   UNL     1     -46.757  72.974  61.587  0.00  0.00    +0.037 A 
ATOM     16  C   UNL     1     -46.715  72.944  63.052  0.00  0.00    +0.013 A 
ATOM     17  C   UNL     1     -47.041  71.732  63.760  0.00  0.00    +0.005 A 
ATOM     18  C   UNL     1     -47.416  70.539  63.004  0.00  0.00    -0.033 A 
ATOM     28  C   UNL     1     -47.455  70.599  61.552  0.00  0.00    +0.005 A 
ATOM     29  C   UNL     1     -47.134  71.785  60.854  0.00  0.00    +0.013 A 
BRANCH  18  19
ATOM     19  C   UNL     1     -47.759  69.197  63.675  0.00  0.00    +0.119 C 
BRANCH  19  20
ATOM     20  N   UNL     1     -48.173  68.072  62.784  0.00  0.00    -0.302 NA
ATOM     21  C   UNL     1     -49.630  67.661  63.016  0.00  0.00    +0.066 C 
ATOM     22  C   UNL     1     -50.052  66.499  62.060  0.00  0.00    -0.064 C 
ATOM     23  N   UNL     1     -49.114  65.308  62.263  0.00  0.00    +0.379 N 
ATOM     24  C   UNL     1     -49.545  64.193  61.407  0.00  0.00    -0.096 C 
ATOM     25  H   UNL     1     -49.212  64.978  63.324  0.00  0.00    -0.082 HD
ATOM     26  C   UNL     1     -47.664  65.709  62.037  0.00  0.00    -0.064 C 
ATOM     27  C   UNL     1     -47.262  66.884  62.972  0.00  0.00    +0.066 C 
ENDBRANCH  19  20
ENDBRANCH  18  19
ENDBRANCH  14  15
ENDBRANCH  12  13
TORSDOF 6
ENDMDL
MODEL 3
REMARK VINA RESULT:      -8.4     10.507     18.209
REMARK  Name = C:\Users\Docking\Desktop\test protocol\1iep_ligandH.pdb
REMARK  8 active torsions:
REMARK  status: ('A' for Active; 'I' for Inactive)
REMARK    1  A    between atoms: _5  and  _11
REMARK    2  A    between atoms: _19  and  _21
REMARK    3  A    between atoms: _22  and  _66
REMARK    4  A    between atoms: _27  and  _30
REMARK    5  A    between atoms: _32  and  _33
REMARK    6  A    between atoms: _38  and  _43
REMARK    7  A    between atoms: _43  and  _46
REMARK    8  A    between atoms: _53  and  _55
REMARK                            x       y       z     vdW  Elec       q    Type
REMARK                         _______ _______ _______ _____ _____    ______ ____
ROOT
ATOM     10  C   UNL     1     -39.455  81.473  65.630  0.00  0.00    +0.038 A 
ATOM     11  C   UNL     1     -38.383  81.976  66.411  0.00  0.00    +0.047 A 
ATOM     12  C   UNL     1     -37.085  82.255  65.817  0.00  0.00    +0.035 A 
ATOM     32  C   UNL     1     -36.914  82.013  64.422  0.00  0.00    +0.024 A 
ATOM     33  C   UNL     1     -37.993  81.501  63.614  0.00  0.00    +0.007 A 
ATOM     34  C   UNL     1     -39.275  81.221  64.195  0.00  0.00    -0.029 A 
ATOM     35  C   UNL     1     -40.393  80.667  63.282  0.00  0.00    +0.045 C 
ENDROOT
BRANCH  10   9
ATOM      4  C   UNL     1     -42.889  82.556  68.803  0.00  0.00    +0.077 A 
ATOM      5  C   UNL     1     -42.170  83.702  69.280  0.00  0.00    +0.048 A 
ATOM      6  C   UNL     1     -40.916  83.974  68.688  0.00  0.00    +0.116 A 
ATOM      7  N   UNL     1     -40.429  83.154  67.693  0.00  0.00    -0.223 NA
ATOM      8  C   UNL     1     -41.147  82.056  67.257  0.00  0.00    +0.220 A 
ATOM      9  N   UNL     1     -40.680  81.223  66.252  0.00  0.00    -0.283 N 
ATOM     36  H   UNL     1     -41.237  80.419  65.965  0.00  0.00    +0.155 HD
ATOM     37  N   UNL     1     -42.346  81.774  67.808  0.00  0.00    -0.214 NA
BRANCH   4   3
ATOM      1  C   UNL     1     -46.164  80.531  69.491  0.00  0.00    +0.020 A 
ATOM      2  C   UNL     1     -44.870  80.886  68.955  0.00  0.00    +0.013 A 
ATOM      3  C   UNL     1     -44.228  82.140  69.328  0.00  0.00    +0.019 A 
ATOM     38  C   UNL     1     -44.928  83.019  70.253  0.00  0.00    +0.120 A 
ATOM     39  N   UNL     1     -46.173  82.652  70.751  0.00  0.00    -0.263 NA
ATOM     40  C   UNL     1     -46.802  81.448  70.398  0.00  0.00    +0.111 A 
ENDBRANCH   4   3
ENDBRANCH  10   9
BRANCH  12  13
ATOM     13  N   UNL     1     -35.958  82.759  66.561  0.00  0.00    -0.281 N 
ATOM     14  C   UNL     1     -35.798  84.017  67.118  0.00  0.00    +0.248 C 
ATOM     30  O   UNL     1     -36.516  84.976  66.875  0.00  0.00    -0.270 OA
ATOM     31  H   UNL     1     -35.183  82.108  66.694  0.00  0.00    +0.155 HD
BRANCH  14  15
ATOM     15  C   UNL     1     -34.670  84.248  68.070  0.00  0.00    +0.037 A 
ATOM     16  C   UNL     1     -33.754  83.165  68.440  0.00  0.00    +0.013 A 
ATOM     17  C   UNL     1     -32.684  83.411  69.374  0.00  0.00    +0.005 A 
ATOM     18  C   UNL     1     -32.523  84.746  69.945  0.00  0.00    -0.033 A 
ATOM     28  C   UNL     1     -33.443  85.803  69.557  0.00  0.00    +0.005 A 
ATOM     29  C   UNL     1     -34.494  85.566  68.642  0.00  0.00    +0.013 A 
BRANCH  18  19
ATOM     19  C   UNL     1     -31.423  85.093  70.965  0.00  0.00    +0.119 C 
BRANCH  19  20
ATOM     20  N   UNL     1     -31.571  86.371  71.723  0.00  0.00    -0.302 NA
ATOM     21  C   UNL     1     -30.678  87.480  71.159  0.00  0.00    +0.066 C 
ATOM     22  C   UNL     1     -30.862  88.816  71.949  0.00  0.00    -0.064 C 
ATOM     23  N   UNL     1     -30.560  88.576  73.429  0.00  0.00    +0.379 N 
ATOM     24  C   UNL     1     -30.676  89.844  74.165  0.00  0.00    -0.096 C 
ATOM     25  H   UNL     1     -29.501  88.236  73.507  0.00  0.00    -0.082 HD
ATOM     26  C   UNL     1     -31.442  87.474  73.997  0.00  0.00    -0.064 C 
ATOM     27  C   UNL     1     -31.273  86.158  73.186  0.00  0.00    +0.066 C 
ENDBRANCH  19  20
ENDBRANCH  18  19
ENDBRANCH  14  15
ENDBRANCH  12  13
TORSDOF 6
ENDMDL
MODEL 4
REMARK VINA RESULT:      -8.2      2.712     12.676
REMARK  Name = C:\Users\Docking\Desktop\test protocol\1iep_ligandH.pdb
REMARK  8 active torsions:
REMARK  status: ('A' for Active; 'I' for Inactive)
REMARK    1  A    between atoms: _5  and  _11
REMARK    2  A    between atoms: _19  and  _21
REMARK    3  A    between atoms: _22  and  _66
REMARK    4  A    between atoms: _27  and  _30
REMARK    5  A    between atoms: _32  and  _33
REMARK    6  A    between atoms: _38  and  _43
REMARK    7  A    between atoms: _43  and  _46
REMARK    8  A    between atoms: _53  and  _55
REMARK                            x       y       z     vdW  Elec       q    Type
REMARK                         _______ _______ _______ _____ _____    ______ ____
ROOT
ATOM     10  C   UNL     1     -46.841  73.699  59.188  0.00  0.00    +0.038 A 
ATOM     11  C   UNL     1     -45.680  74.403  59.597  0.00  0.00    +0.047 A 
ATOM     12  C   UNL     1     -45.499  75.809  59.269  0.00  0.00    +0.035 A 
ATOM     32  C   UNL     1     -46.522  76.467  58.526  0.00  0.00    +0.024 A 
ATOM     33  C   UNL     1     -47.708  75.766  58.102  0.00  0.00    +0.007 A 
ATOM     34  C   UNL     1     -47.891  74.378  58.420  0.00  0.00    -0.029 A 
ATOM     35  C   UNL     1     -49.180  73.675  57.935  0.00  0.00    +0.045 C 
ENDROOT
BRANCH  10   9
ATOM      4  C   UNL     1     -47.291  70.174  62.416  0.00  0.00    +0.077 A 
ATOM      5  C   UNL     1     -47.251  71.096  63.515  0.00  0.00    +0.048 A 
ATOM      6  C   UNL     1     -47.107  72.467  63.207  0.00  0.00    +0.116 A 
ATOM      7  N   UNL     1     -47.011  72.876  61.894  0.00  0.00    -0.223 NA
ATOM      8  C   UNL     1     -47.051  71.961  60.858  0.00  0.00    +0.220 A 
ATOM      9  N   UNL     1     -46.964  72.350  59.531  0.00  0.00    -0.283 N 
ATOM     36  H   UNL     1     -46.990  71.644  58.795  0.00  0.00    +0.155 HD
ATOM     37  N   UNL     1     -47.186  70.645  61.126  0.00  0.00    -0.214 NA
BRANCH   4   3
ATOM      1  C   UNL     1     -46.676  66.316  62.230  0.00  0.00    +0.020 A 
ATOM      2  C   UNL     1     -46.483  67.736  62.044  0.00  0.00    +0.013 A 
ATOM      3  C   UNL     1     -47.442  68.694  62.579  0.00  0.00    +0.019 A 
ATOM     38  C   UNL     1     -48.594  68.179  63.304  0.00  0.00    +0.120 A 
ATOM     39  N   UNL     1     -48.754  66.806  63.466  0.00  0.00    -0.263 NA
ATOM     40  C   UNL     1     -47.839  65.875  62.955  0.00  0.00    +0.111 A 
ENDBRANCH   4   3
ENDBRANCH  10   9
BRANCH  12  13
ATOM     13  N   UNL     1     -44.337  76.574  59.649  0.00  0.00    -0.281 N 
ATOM     14  C   UNL     1     -43.370  77.121  58.823  0.00  0.00    +0.248 C 
ATOM     30  O   UNL     1     -43.241  76.853  57.637  0.00  0.00    -0.270 OA
ATOM     31  H   UNL     1     -44.213  76.730  60.650  0.00  0.00    +0.155 HD
BRANCH  14  15
ATOM     15  C   UNL     1     -42.396  78.097  59.399  0.00  0.00    +0.037 A 
ATOM     16  C   UNL     1     -42.850  79.274  60.144  0.00  0.00    +0.013 A 
ATOM     17  C   UNL     1     -41.889  80.209  60.675  0.00  0.00    +0.005 A 
ATOM     18  C   UNL     1     -40.464  79.969  60.464  0.00  0.00    -0.033 A 
ATOM     28  C   UNL     1     -40.041  78.790  59.725  0.00  0.00    +0.005 A 
ATOM     29  C   UNL     1     -40.979  77.873  59.203  0.00  0.00    +0.013 A 
BRANCH  18  19
ATOM     19  C   UNL     1     -39.370  80.924  60.976  0.00  0.00    +0.119 C 
BRANCH  19  20
ATOM     20  N   UNL     1     -38.925  80.757  62.392  0.00  0.00    -0.302 NA
ATOM     21  C   UNL     1     -39.890  81.421  63.379  0.00  0.00    +0.066 C 
ATOM     22  C   UNL     1     -39.421  81.218  64.857  0.00  0.00    -0.064 C 
ATOM     23  N   UNL     1     -38.007  81.778  65.022  0.00  0.00    +0.379 N 
ATOM     24  C   UNL     1     -37.586  81.640  66.424  0.00  0.00    -0.096 C 
ATOM     25  H   UNL     1     -38.045  82.866  64.785  0.00  0.00    -0.082 HD
ATOM     26  C   UNL     1     -37.042  81.125  64.043  0.00  0.00    -0.064 C 
ATOM     27  C   UNL     1     -37.532  81.307  62.579  0.00  0.00    +0.066 C 
ENDBRANCH  19  20
ENDBRANCH  18  19
ENDBRANCH  14  15
ENDBRANCH  12  13
TORSDOF 6
ENDMDL
MODEL 5
REMARK VINA RESULT:      -7.4     22.621     28.531
REMARK  Name = C:\Users\Docking\Desktop\test protocol\1iep_ligandH.pdb
REMARK  8 active torsions:
REMARK  status: ('A' for Active; 'I' for Inactive)
REMARK    1  A    between atoms: _5  and  _11
REMARK    2  A    between atoms: _19  and  _21
REMARK    3  A    between atoms: _22  and  _66
REMARK    4  A    between atoms: _27  and  _30
REMARK    5  A    between atoms: _32  and  _33
REMARK    6  A    between atoms: _38  and  _43
REMARK    7  A    between atoms: _43  and  _46
REMARK    8  A    between atoms: _53  and  _55
REMARK                            x       y       z     vdW  Elec       q    Type
REMARK                         _______ _______ _______ _____ _____    ______ ____
ROOT
ATOM     10  C   UNL     1     -43.530  90.021  79.491  0.00  0.00    +0.038 A 
ATOM     11  C   UNL     1     -42.513  90.350  80.423  0.00  0.00    +0.047 A 
ATOM     12  C   UNL     1     -41.579  91.436  80.167  0.00  0.00    +0.035 A 
ATOM     32  C   UNL     1     -41.712  92.168  78.952  0.00  0.00    +0.024 A 
ATOM     33  C   UNL     1     -42.739  91.847  77.993  0.00  0.00    +0.007 A 
ATOM     34  C   UNL     1     -43.661  90.776  78.239  0.00  0.00    -0.029 A 
ATOM     35  C   UNL     1     -44.739  90.472  77.172  0.00  0.00    +0.045 C 
ENDROOT
BRANCH  10   9
ATOM      4  C   UNL     1     -44.842  85.412  79.226  0.00  0.00    +0.077 A 
ATOM      5  C   UNL     1     -43.714  85.077  78.405  0.00  0.00    +0.048 A 
ATOM      6  C   UNL     1     -42.824  86.121  78.067  0.00  0.00    +0.116 A 
ATOM      7  N   UNL     1     -43.054  87.401  78.523  0.00  0.00    -0.223 NA
ATOM      8  C   UNL     1     -44.152  87.691  79.312  0.00  0.00    +0.220 A 
ATOM      9  N   UNL     1     -44.399  88.969  79.788  0.00  0.00    -0.283 N 
ATOM     36  H   UNL     1     -45.224  89.143  80.361  0.00  0.00    +0.155 HD
ATOM     37  N   UNL     1     -45.018  86.711  79.647  0.00  0.00    -0.214 NA
BRANCH   4   3
ATOM      1  C   UNL     1     -46.715  82.061  79.975  0.00  0.00    +0.020 A 
ATOM      2  C   UNL     1     -45.692  82.978  79.529  0.00  0.00    +0.013 A 
ATOM      3  C   UNL     1     -45.869  84.418  79.671  0.00  0.00    +0.019 A 
ATOM     38  C   UNL     1     -47.102  84.900  80.273  0.00  0.00    +0.120 A 
ATOM     39  N   UNL     1     -48.071  83.993  80.692  0.00  0.00    -0.263 NA
ATOM     40  C   UNL     1     -47.912  82.606  80.560  0.00  0.00    +0.111 A 
ENDBRANCH   4   3
ENDBRANCH  10   9
BRANCH  12  13
ATOM     13  N   UNL     1     -40.521  91.810  81.073  0.00  0.00    -0.281 N 
ATOM     14  C   UNL     1     -40.512  92.849  81.989  0.00  0.00    +0.248 C 
ATOM     30  O   UNL     1     -41.335  93.752  82.018  0.00  0.00    -0.270 OA
ATOM     31  H   UNL     1     -39.677  91.239  81.035  0.00  0.00    +0.155 HD
BRANCH  14  15
ATOM     15  C   UNL     1     -39.423  92.902  83.011  0.00  0.00    +0.037 A 
ATOM     16  C   UNL     1     -39.209  94.095  83.833  0.00  0.00    +0.013 A 
ATOM     17  C   UNL     1     -38.140  94.126  84.799  0.00  0.00    +0.005 A 
ATOM     18  C   UNL     1     -37.277  92.956  84.950  0.00  0.00    -0.033 A 
ATOM     28  C   UNL     1     -37.515  91.784  84.125  0.00  0.00    +0.005 A 
ATOM     29  C   UNL     1     -38.561  91.751  83.176  0.00  0.00    +0.013 A 
BRANCH  18  19
ATOM     19  C   UNL     1     -36.099  92.908  85.941  0.00  0.00    +0.119 C 
BRANCH  19  20
ATOM     20  N   UNL     1     -35.292  94.154  86.106  0.00  0.00    -0.302 NA
ATOM     21  C   UNL     1     -34.500  94.497  84.841  0.00  0.00    +0.066 C 
ATOM     22  C   UNL     1     -33.679  95.815  85.023  0.00  0.00    -0.064 C 
ATOM     23  N   UNL     1     -32.745  95.669  86.225  0.00  0.00    +0.379 N 
ATOM     24  C   UNL     1     -31.930  96.885  86.364  0.00  0.00    -0.096 C 
ATOM     25  H   UNL     1     -32.053  94.820  86.014  0.00  0.00    -0.082 HD
ATOM     26  C   UNL     1     -33.525  95.325  87.487  0.00  0.00    -0.064 C 
ATOM     27  C   UNL     1     -34.359  94.030  87.285  0.00  0.00    +0.066 C 
ENDBRANCH  19  20
ENDBRANCH  18  19
ENDBRANCH  14  15
ENDBRANCH  12  13
TORSDOF 6
ENDMDL
