MODEL 1
REMARK VINA RESULT:      -8.3      0.000      0.000
REMARK  Name = C:\Users\Docking\Desktop\test protocol\1iep_ligandH.pdb
REMARK  8 active torsions:
REMARK  status: ('A' for Active; 'I' for Inactive)
REMARK    1  A    between atoms: _5  and  _11
REMARK    2  A    between atoms: _19  and  _21
REMARK    3  A    between atoms: _22  and  _66
REMARK    4  A    between atoms: _27  and  _30
REMARK    5  A    between atoms: _32  and  _33
REMARK    6  A    between atoms: _38  and  _43
REMARK    7  A    between atoms: _43  and  _46
REMARK    8  A    between atoms: _53  and  _55
REMARK                            x       y       z     vdW  Elec       q    Type
REMARK                         _______ _______ _______ _____ _____    ______ ____
ROOT
ATOM     10  C   UNL     1      15.116  11.432   3.732  0.00  0.00    +0.038 A 
ATOM     11  C   UNL     1      15.982  10.498   4.355  0.00  0.00    +0.047 A 
ATOM     12  C   UNL     1      17.424  10.688   4.347  0.00  0.00    +0.035 A 
ATOM     32  C   UNL     1      17.950  11.843   3.698  0.00  0.00    +0.024 A 
ATOM     33  C   UNL     1      17.083  12.802   3.059  0.00  0.00    +0.007 A 
ATOM     34  C   UNL     1      15.660  12.618   3.061  0.00  0.00    -0.029 A 
ATOM     35  C   UNL     1      14.780  13.675   2.354  0.00  0.00    +0.045 C 
ENDROOT
BRANCH  10   9
ATOM      4  C   UNL     1      11.145   9.258   2.136  0.00  0.00    +0.077 A 
ATOM      5  C   UNL     1      11.871   8.545   1.124  0.00  0.00    +0.048 A 
ATOM      6  C   UNL     1      13.263   8.772   1.043  0.00  0.00    +0.116 A 
ATOM      7  N   UNL     1      13.874   9.647   1.915  0.00  0.00    -0.223 NA
ATOM      8  C   UNL     1      13.144  10.320   2.878  0.00  0.00    +0.220 A 
ATOM      9  N   UNL     1      13.739  11.199   3.769  0.00  0.00    -0.283 N 
ATOM     36  H   UNL     1      13.165  11.682   4.460  0.00  0.00    +0.155 HD
ATOM     37  N   UNL     1      11.813  10.122   2.974  0.00  0.00    -0.214 NA
BRANCH   4   3
ATOM      1  C   UNL     1       7.649   7.984   3.341  0.00  0.00    +0.020 A 
ATOM      2  C   UNL     1       9.080   8.070   3.167  0.00  0.00    +0.013 A 
ATOM      3  C   UNL     1       9.669   9.123   2.349  0.00  0.00    +0.019 A 
ATOM     38  C   UNL     1       8.775  10.081   1.717  0.00  0.00    +0.120 A 
ATOM     39  N   UNL     1       7.400   9.973   1.902  0.00  0.00    -0.263 NA
ATOM     40  C   UNL     1       6.822   8.963   2.685  0.00  0.00    +0.111 A 
ENDBRANCH   4   3
ENDBRANCH  10   9
BRANCH  12  13
ATOM     13  N   UNL     1      18.354   9.770   4.956  0.00  0.00    -0.281 N 
ATOM     14  C   UNL     1      18.724   8.512   4.510  0.00  0.00    +0.248 C 
ATOM     30  O   UNL     1      18.147   7.894   3.627  0.00  0.00    -0.270 OA
ATOM     31  H   UNL     1      18.793  10.086   5.821  0.00  0.00    +0.155 HD
BRANCH  14  15
ATOM     15  C   UNL     1      19.896   7.836   5.146  0.00  0.00    +0.037 A 
ATOM     16  C   UNL     1      19.799   6.464   5.652  0.00  0.00    +0.013 A 
ATOM     17  C   UNL     1      20.940   5.841   6.276  0.00  0.00    +0.005 A 
ATOM     18  C   UNL     1      22.188   6.591   6.397  0.00  0.00    -0.033 A 
ATOM     28  C   UNL     1      22.257   7.948   5.882  0.00  0.00    +0.005 A 
ATOM     29  C   UNL     1      21.141   8.562   5.270  0.00  0.00    +0.013 A 
BRANCH  18  19
ATOM     19  C   UNL     1      23.449   6.014   7.067  0.00  0.00    +0.119 C 
BRANCH  19  20
ATOM     20  N   UNL     1      24.586   5.637   6.176  0.00  0.00    -0.302 NA
ATOM     21  C   UNL     1      24.104   5.134   4.812  0.00  0.00    +0.066 C 
ATOM     22  C   UNL     1      25.307   4.766   3.884  0.00  0.00    -0.064 C 
ATOM     23  N   UNL     1      26.175   3.712   4.573  0.00  0.00    +0.379 N 
ATOM     24  C   UNL     1      27.275   3.321   3.679  0.00  0.00    -0.096 C 
ATOM     25  H   UNL     1      25.541   2.811   4.744  0.00  0.00    -0.082 HD
ATOM     26  C   UNL     1      26.656   4.202   5.932  0.00  0.00    -0.064 C 
ATOM     27  C   UNL     1      25.454   4.594   6.835  0.00  0.00    +0.066 C 
ENDBRANCH  19  20
ENDBRANCH  18  19
ENDBRANCH  14  15
ENDBRANCH  12  13
TORSDOF 6
ENDMDL
MODEL 2
REMARK VINA RESULT:      -7.9      1.676      2.332
REMARK  Name = C:\Users\Docking\Desktop\test protocol\1iep_ligandH.pdb
REMARK  8 active torsions:
REMARK  status: ('A' for Active; 'I' for Inactive)
REMARK    1  A    between atoms: _5  and  _11
REMARK    2  A    between atoms: _19  and  _21
REMARK    3  A    between atoms: _22  and  _66
REMARK    4  A    between atoms: _27  and  _30
REMARK    5  A    between atoms: _32  and  _33
REMARK    6  A    between atoms: _38  and  _43
REMARK    7  A    between atoms: _43  and  _46
REMARK    8  A    between atoms: _53  and  _55
REMARK                            x       y       z     vdW  Elec       q    Type
REMARK                         _______ _______ _______ _____ _____    ______ ____
ROOT
ATOM     10  C   UNL     1      14.814  10.508   1.239  0.00  0.00    +0.038 A 
ATOM     11  C   UNL     1      15.866   9.941   2.003  0.00  0.00    +0.047 A 
ATOM     12  C   UNL     1      17.168  10.585   2.084  0.00  0.00    +0.035 A 
ATOM     32  C   UNL     1      17.363  11.807   1.376  0.00  0.00    +0.024 A 
ATOM     33  C   UNL     1      16.304  12.396   0.595  0.00  0.00    +0.007 A 
ATOM     34  C   UNL     1      15.019  11.765   0.509  0.00  0.00    -0.029 A 
ATOM     35  C   UNL     1      13.923  12.439  -0.348  0.00  0.00    +0.045 C 
ENDROOT
BRANCH  10   9
ATOM      4  C   UNL     1      10.366   9.735   2.869  0.00  0.00    +0.077 A 
ATOM      5  C   UNL     1      10.514  10.710   3.911  0.00  0.00    +0.048 A 
ATOM      6  C   UNL     1      11.754  11.384   3.997  0.00  0.00    +0.116 A 
ATOM      7  N   UNL     1      12.762  11.096   3.103  0.00  0.00    -0.223 NA
ATOM      8  C   UNL     1      12.586  10.148   2.111  0.00  0.00    +0.220 A 
ATOM      9  N   UNL     1      13.584   9.847   1.197  0.00  0.00    -0.283 N 
ATOM     36  H   UNL     1      13.418   9.137   0.485  0.00  0.00    +0.155 HD
ATOM     37  N   UNL     1      11.413   9.490   2.009  0.00  0.00    -0.214 NA
BRANCH   4   3
ATOM      1  C   UNL     1       7.313   7.350   3.407  0.00  0.00    +0.020 A 
ATOM      2  C   UNL     1       8.522   8.094   3.673  0.00  0.00    +0.013 A 
ATOM      3  C   UNL     1       9.115   8.943   2.647  0.00  0.00    +0.019 A 
ATOM     38  C   UNL     1       8.454   9.017   1.353  0.00  0.00    +0.120 A 
ATOM     39  N   UNL     1       7.291   8.288   1.125  0.00  0.00    -0.263 NA
ATOM     40  C   UNL     1       6.712   7.467   2.104  0.00  0.00    +0.111 A 
ENDBRANCH   4   3
ENDBRANCH  10   9
BRANCH  12  13
ATOM     13  N   UNL     1      18.277  10.052   2.836  0.00  0.00    -0.281 N 
ATOM     14  C   UNL     1      18.318   9.735   4.184  0.00  0.00    +0.248 C 
ATOM     30  O   UNL     1      17.466  10.063   4.997  0.00  0.00    -0.270 OA
ATOM     31  H   UNL     1      19.136   9.889   2.311  0.00  0.00    +0.155 HD
BRANCH  14  15
ATOM     15  C   UNL     1      19.478   8.952   4.707  0.00  0.00    +0.037 A 
ATOM     16  C   UNL     1      20.772   9.590   4.962  0.00  0.00    +0.013 A 
ATOM     17  C   UNL     1      21.880   8.808   5.451  0.00  0.00    +0.005 A 
ATOM     18  C   UNL     1      21.698   7.378   5.688  0.00  0.00    -0.033 A 
ATOM     28  C   UNL     1      20.403   6.772   5.431  0.00  0.00    +0.005 A 
ATOM     29  C   UNL     1      19.314   7.535   4.951  0.00  0.00    +0.013 A 
BRANCH  18  19
ATOM     19  C   UNL     1      22.831   6.462   6.188  0.00  0.00    +0.119 C 
BRANCH  19  20
ATOM     20  N   UNL     1      23.372   5.455   5.227  0.00  0.00    -0.302 NA
ATOM     21  C   UNL     1      24.805   5.042   5.573  0.00  0.00    +0.066 C 
ATOM     22  C   UNL     1      25.346   3.972   4.571  0.00  0.00    -0.064 C 
ATOM     23  N   UNL     1      25.271   4.526   3.147  0.00  0.00    +0.379 N 
ATOM     24  C   UNL     1      25.833   3.545   2.208  0.00  0.00    -0.096 C 
ATOM     25  H   UNL     1      25.910   5.439   3.106  0.00  0.00    -0.082 HD
ATOM     26  C   UNL     1      23.850   4.942   2.796  0.00  0.00    -0.064 C 
ATOM     27  C   UNL     1      23.311   5.984   3.815  0.00  0.00    +0.066 C 
ENDBRANCH  19  20
ENDBRANCH  18  19
ENDBRANCH  14  15
ENDBRANCH  12  13
TORSDOF 6
ENDMDL
MODEL 3
REMARK VINA RESULT:      -7.7      2.925     13.416
REMARK  Name = C:\Users\Docking\Desktop\test protocol\1iep_ligandH.pdb
REMARK  8 active torsions:
REMARK  status: ('A' for Active; 'I' for Inactive)
REMARK    1  A    between atoms: _5  and  _11
REMARK    2  A    between atoms: _19  and  _21
REMARK    3  A    between atoms: _22  and  _66
REMARK    4  A    between atoms: _27  and  _30
REMARK    5  A    between atoms: _32  and  _33
REMARK    6  A    between atoms: _38  and  _43
REMARK    7  A    between atoms: _43  and  _46
REMARK    8  A    between atoms: _53  and  _55
REMARK                            x       y       z     vdW  Elec       q    Type
REMARK                         _______ _______ _______ _____ _____    ______ ____
ROOT
ATOM     10  C   UNL     1      22.650   5.999   5.563  0.00  0.00    +0.038 A 
ATOM     11  C   UNL     1      21.354   6.574   5.527  0.00  0.00    +0.047 A 
ATOM     12  C   UNL     1      20.703   6.883   4.263  0.00  0.00    +0.035 A 
ATOM     32  C   UNL     1      21.401   6.591   3.055  0.00  0.00    +0.024 A 
ATOM     33  C   UNL     1      22.719   6.007   3.074  0.00  0.00    +0.007 A 
ATOM     34  C   UNL     1      23.367   5.702   4.317  0.00  0.00    -0.029 A 
ATOM     35  C   UNL     1      24.783   5.083   4.277  0.00  0.00    +0.045 C 
ENDROOT
BRANCH  10   9
ATOM      4  C   UNL     1      25.325   7.226   9.355  0.00  0.00    +0.077 A 
ATOM      5  C   UNL     1      25.619   8.517   8.804  0.00  0.00    +0.048 A 
ATOM      6  C   UNL     1      25.069   8.824   7.539  0.00  0.00    +0.116 A 
ATOM      7  N   UNL     1      24.283   7.900   6.884  0.00  0.00    -0.223 NA
ATOM      8  C   UNL     1      24.021   6.663   7.443  0.00  0.00    +0.220 A 
ATOM      9  N   UNL     1      23.227   5.722   6.805  0.00  0.00    -0.283 N 
ATOM     36  H   UNL     1      23.063   4.818   7.247  0.00  0.00    +0.155 HD
ATOM     37  N   UNL     1      24.536   6.345   8.648  0.00  0.00    -0.214 NA
BRANCH   4   3
ATOM      1  C   UNL     1      26.210   4.973  12.428  0.00  0.00    +0.020 A 
ATOM      2  C   UNL     1      25.703   5.376  11.136  0.00  0.00    +0.013 A 
ATOM      3  C   UNL     1      25.831   6.755  10.683  0.00  0.00    +0.019 A 
ATOM     38  C   UNL     1      26.482   7.710  11.568  0.00  0.00    +0.120 A 
ATOM     39  N   UNL     1      26.958   7.294  12.807  0.00  0.00    -0.263 NA
ATOM     40  C   UNL     1      26.840   5.969  13.255  0.00  0.00    +0.111 A 
ENDBRANCH   4   3
ENDBRANCH  10   9
BRANCH  12  13
ATOM     13  N   UNL     1      19.392   7.475   4.164  0.00  0.00    -0.281 N 
ATOM     14  C   UNL     1      18.986   8.724   4.606  0.00  0.00    +0.248 C 
ATOM     30  O   UNL     1      19.640   9.440   5.349  0.00  0.00    -0.270 OA
ATOM     31  H   UNL     1      18.677   6.905   3.713  0.00  0.00    +0.155 HD
BRANCH  14  15
ATOM     15  C   UNL     1      17.654   9.245   4.171  0.00  0.00    +0.037 A 
ATOM     16  C   UNL     1      16.551   8.337   3.847  0.00  0.00    +0.013 A 
ATOM     17  C   UNL     1      15.282   8.866   3.414  0.00  0.00    +0.005 A 
ATOM     18  C   UNL     1      15.110  10.313   3.304  0.00  0.00    -0.033 A 
ATOM     28  C   UNL     1      16.219  11.191   3.637  0.00  0.00    +0.005 A 
ATOM     29  C   UNL     1      17.464  10.676   4.061  0.00  0.00    +0.013 A 
BRANCH  18  19
ATOM     19  C   UNL     1      13.797  10.965   2.830  0.00  0.00    +0.119 C 
BRANCH  19  20
ATOM     20  N   UNL     1      12.543  10.170   2.988  0.00  0.00    -0.302 NA
ATOM     21  C   UNL     1      11.945   9.765   1.638  0.00  0.00    +0.066 C 
ATOM     22  C   UNL     1      10.646   8.915   1.822  0.00  0.00    -0.064 C 
ATOM     23  N   UNL     1       9.632   9.711   2.647  0.00  0.00    +0.379 N 
ATOM     24  C   UNL     1       8.388   8.938   2.773  0.00  0.00    -0.096 C 
ATOM     25  H   UNL     1       9.396  10.643   2.084  0.00  0.00    -0.082 HD
ATOM     26  C   UNL     1      10.220  10.120   3.990  0.00  0.00    -0.064 C 
ATOM     27  C   UNL     1      11.526  10.938   3.796  0.00  0.00    +0.066 C 
ENDBRANCH  19  20
ENDBRANCH  18  19
ENDBRANCH  14  15
ENDBRANCH  12  13
TORSDOF 6
ENDMDL
MODEL 4
REMARK VINA RESULT:      -7.7      8.637     15.250
REMARK  Name = C:\Users\Docking\Desktop\test protocol\1iep_ligandH.pdb
REMARK  8 active torsions:
REMARK  status: ('A' for Active; 'I' for Inactive)
REMARK    1  A    between atoms: _5  and  _11
REMARK    2  A    between atoms: _19  and  _21
REMARK    3  A    between atoms: _22  and  _66
REMARK    4  A    between atoms: _27  and  _30
REMARK    5  A    between atoms: _32  and  _33
REMARK    6  A    between atoms: _38  and  _43
REMARK    7  A    between atoms: _43  and  _46
REMARK    8  A    between atoms: _53  and  _55
REMARK                            x       y       z     vdW  Elec       q    Type
REMARK                         _______ _______ _______ _____ _____    ______ ____
ROOT
ATOM     10  C   UNL     1       9.621   9.866   1.885  0.00  0.00    +0.038 A 
ATOM     11  C   UNL     1       8.563   9.115   1.312  0.00  0.00    +0.047 A 
ATOM     12  C   UNL     1       7.799   8.164   2.104  0.00  0.00    +0.035 A 
ATOM     32  C   UNL     1       8.139   8.005   3.480  0.00  0.00    +0.024 A 
ATOM     33  C   UNL     1       9.212   8.759   4.078  0.00  0.00    +0.007 A 
ATOM     34  C   UNL     1       9.970   9.697   3.301  0.00  0.00    -0.029 A 
ATOM     35  C   UNL     1      11.114  10.474   3.993  0.00  0.00    +0.045 C 
ENDROOT
BRANCH  10   9
ATOM      4  C   UNL     1      13.305  11.008  -0.971  0.00  0.00    +0.077 A 
ATOM      5  C   UNL     1      13.901   9.711  -0.820  0.00  0.00    +0.048 A 
ATOM      6  C   UNL     1      13.231   8.782   0.007  0.00  0.00    +0.116 A 
ATOM      7  N   UNL     1      12.054   9.134   0.631  0.00  0.00    -0.223 NA
ATOM      8  C   UNL     1      11.507  10.393   0.466  0.00  0.00    +0.220 A 
ATOM      9  N   UNL     1      10.321  10.766   1.077  0.00  0.00    -0.283 N 
ATOM     36  H   UNL     1       9.954  11.707   0.936  0.00  0.00    +0.155 HD
ATOM     37  N   UNL     1      12.129  11.299  -0.318  0.00  0.00    -0.214 NA
BRANCH   4   3
ATOM      1  C   UNL     1      14.092  14.507  -2.532  0.00  0.00    +0.020 A 
ATOM      2  C   UNL     1      13.494  13.494  -1.694  0.00  0.00    +0.013 A 
ATOM      3  C   UNL     1      13.892  12.097  -1.814  0.00  0.00    +0.019 A 
ATOM     38  C   UNL     1      14.907  11.757  -2.800  0.00  0.00    +0.120 A 
ATOM     39  N   UNL     1      15.464  12.754  -3.595  0.00  0.00    -0.263 NA
ATOM     40  C   UNL     1      15.087  14.101  -3.489  0.00  0.00    +0.111 A 
ENDBRANCH   4   3
ENDBRANCH  10   9
BRANCH  12  13
ATOM     13  N   UNL     1       6.720   7.368   1.575  0.00  0.00    -0.281 N 
ATOM     14  C   UNL     1       5.400   7.742   1.384  0.00  0.00    +0.248 C 
ATOM     30  O   UNL     1       4.896   8.758   1.841  0.00  0.00    -0.270 OA
ATOM     31  H   UNL     1       6.958   6.413   1.309  0.00  0.00    +0.155 HD
BRANCH  14  15
ATOM     15  C   UNL     1       4.506   6.853   0.581  0.00  0.00    +0.037 A 
ATOM     16  C   UNL     1       4.979   6.212  -0.649  0.00  0.00    +0.013 A 
ATOM     17  C   UNL     1       4.091   5.373  -1.414  0.00  0.00    +0.005 A 
ATOM     18  C   UNL     1       2.721   5.168  -0.949  0.00  0.00    -0.033 A 
ATOM     28  C   UNL     1       2.280   5.812   0.277  0.00  0.00    +0.005 A 
ATOM     29  C   UNL     1       3.147   6.636   1.029  0.00  0.00    +0.013 A 
BRANCH  18  19
ATOM     19  C   UNL     1       1.698   4.306  -1.713  0.00  0.00    +0.119 C 
BRANCH  19  20
ATOM     20  N   UNL     1       2.038   2.867  -1.922  0.00  0.00    -0.302 NA
ATOM     21  C   UNL     1       0.890   2.094  -2.576  0.00  0.00    +0.066 C 
ATOM     22  C   UNL     1       1.271   0.596  -2.809  0.00  0.00    -0.064 C 
ATOM     23  N   UNL     1       1.661  -0.041  -1.474  0.00  0.00    +0.379 N 
ATOM     24  C   UNL     1       1.964  -1.465  -1.680  0.00  0.00    -0.096 C 
ATOM     25  H   UNL     1       0.776   0.023  -0.798  0.00  0.00    -0.082 HD
ATOM     26  C   UNL     1       2.801   0.723  -0.815  0.00  0.00    -0.064 C 
ATOM     27  C   UNL     1       2.423   2.217  -0.616  0.00  0.00    +0.066 C 
ENDBRANCH  19  20
ENDBRANCH  18  19
ENDBRANCH  14  15
ENDBRANCH  12  13
TORSDOF 6
ENDMDL
MODEL 5
REMARK VINA RESULT:      -7.5      8.010     15.407
REMARK  Name = C:\Users\Docking\Desktop\test protocol\1iep_ligandH.pdb
REMARK  8 active torsions:
REMARK  status: ('A' for Active; 'I' for Inactive)
REMARK    1  A    between atoms: _5  and  _11
REMARK    2  A    between atoms: _19  and  _21
REMARK    3  A    between atoms: _22  and  _66
REMARK    4  A    between atoms: _27  and  _30
REMARK    5  A    between atoms: _32  and  _33
REMARK    6  A    between atoms: _38  and  _43
REMARK    7  A    between atoms: _43  and  _46
REMARK    8  A    between atoms: _53  and  _55
REMARK                            x       y       z     vdW  Elec       q    Type
REMARK                         _______ _______ _______ _____ _____    ______ ____
ROOT
ATOM     10  C   UNL     1      11.643   9.668   1.724  0.00  0.00    +0.038 A 
ATOM     11  C   UNL     1      10.366   9.100   1.486  0.00  0.00    +0.047 A 
ATOM     12  C   UNL     1       9.329   9.124   2.507  0.00  0.00    +0.035 A 
ATOM     32  C   UNL     1       9.627   9.738   3.758  0.00  0.00    +0.024 A 
ATOM     33  C   UNL     1      10.921  10.320   4.017  0.00  0.00    +0.007 A 
ATOM     34  C   UNL     1      11.948  10.297   3.015  0.00  0.00    -0.029 A 
ATOM     35  C   UNL     1      13.318  10.930   3.351  0.00  0.00    +0.045 C 
ENDROOT
BRANCH  10   9
ATOM      4  C   UNL     1      13.651  11.369  -2.290  0.00  0.00    +0.077 A 
ATOM      5  C   UNL     1      12.695  12.434  -2.388  0.00  0.00    +0.048 A 
ATOM      6  C   UNL     1      11.698  12.505  -1.389  0.00  0.00    +0.116 A 
ATOM      7  N   UNL     1      11.670  11.574  -0.372  0.00  0.00    -0.223 NA
ATOM      8  C   UNL     1      12.606  10.559  -0.309  0.00  0.00    +0.220 A 
ATOM      9  N   UNL     1      12.601   9.617   0.709  0.00  0.00    -0.283 N 
ATOM     36  H   UNL     1      13.304   8.879   0.716  0.00  0.00    +0.155 HD
ATOM     37  N   UNL     1      13.567  10.469  -1.251  0.00  0.00    -0.214 NA
BRANCH   4   3
ATOM      1  C   UNL     1      16.638   9.800  -4.270  0.00  0.00    +0.020 A 
ATOM      2  C   UNL     1      15.573   9.949  -3.305  0.00  0.00    +0.013 A 
ATOM      3  C   UNL     1      14.767  11.163  -3.267  0.00  0.00    +0.019 A 
ATOM     38  C   UNL     1      15.067  12.215  -4.227  0.00  0.00    +0.120 A 
ATOM     39  N   UNL     1      16.100  12.044  -5.143  0.00  0.00    -0.263 NA
ATOM     40  C   UNL     1      16.883  10.881  -5.188  0.00  0.00    +0.111 A 
ENDBRANCH   4   3
ENDBRANCH  10   9
BRANCH  12  13
ATOM     13  N   UNL     1       8.017   8.556   2.325  0.00  0.00    -0.281 N 
ATOM     14  C   UNL     1       6.799   9.216   2.296  0.00  0.00    +0.248 C 
ATOM     30  O   UNL     1       6.635  10.378   2.637  0.00  0.00    -0.270 OA
ATOM     31  H   UNL     1       7.981   7.544   2.203  0.00  0.00    +0.155 HD
BRANCH  14  15
ATOM     15  C   UNL     1       5.586   8.474   1.835  0.00  0.00    +0.037 A 
ATOM     16  C   UNL     1       4.252   8.812   2.338  0.00  0.00    +0.013 A 
ATOM     17  C   UNL     1       3.101   8.070   1.890  0.00  0.00    +0.005 A 
ATOM     18  C   UNL     1       3.279   6.981   0.932  0.00  0.00    -0.033 A 
ATOM     28  C   UNL     1       4.613   6.671   0.445  0.00  0.00    +0.005 A 
ATOM     29  C   UNL     1       5.744   7.396   0.883  0.00  0.00    +0.013 A 
BRANCH  18  19
ATOM     19  C   UNL     1       2.110   6.122   0.415  0.00  0.00    +0.119 C 
BRANCH  19  20
ATOM     20  N   UNL     1       1.448   6.558  -0.851  0.00  0.00    -0.302 NA
ATOM     21  C   UNL     1      -0.005   6.983  -0.622  0.00  0.00    +0.066 C 
ATOM     22  C   UNL     1      -0.676   7.457  -1.952  0.00  0.00    -0.064 C 
ATOM     23  N   UNL     1      -0.596   6.335  -2.989  0.00  0.00    +0.379 N 
ATOM     24  C   UNL     1      -1.277   6.757  -4.222  0.00  0.00    -0.096 C 
ATOM     25  H   UNL     1      -1.149   5.458  -2.580  0.00  0.00    -0.082 HD
ATOM     26  C   UNL     1       0.846   5.904  -3.220  0.00  0.00    -0.064 C 
ATOM     27  C   UNL     1       1.511   5.463  -1.887  0.00  0.00    +0.066 C 
ENDBRANCH  19  20
ENDBRANCH  18  19
ENDBRANCH  14  15
ENDBRANCH  12  13
TORSDOF 6
ENDMDL
