MODEL 1
REMARK VINA RESULT:      -9.9      0.000      0.000
REMARK  Name = C:\Users\Docking\Desktop\test protocol\1iep_ligandH.pdb
REMARK  8 active torsions:
REMARK  status: ('A' for Active; 'I' for Inactive)
REMARK    1  A    between atoms: _5  and  _11
REMARK    2  A    between atoms: _19  and  _21
REMARK    3  A    between atoms: _22  and  _66
REMARK    4  A    between atoms: _27  and  _30
REMARK    5  A    between atoms: _32  and  _33
REMARK    6  A    between atoms: _38  and  _43
REMARK    7  A    between atoms: _43  and  _46
REMARK    8  A    between atoms: _53  and  _55
REMARK                            x       y       z     vdW  Elec       q    Type
REMARK                         _______ _______ _______ _____ _____    ______ ____
ROOT
ATOM     10  C   UNL     1       5.331  27.124   3.691  0.00  0.00    +0.038 A 
ATOM     11  C   UNL     1       4.884  27.571   4.961  0.00  0.00    +0.047 A 
ATOM     12  C   UNL     1       4.336  28.906   5.139  0.00  0.00    +0.035 A 
ATOM     32  C   UNL     1       4.255  29.760   4.000  0.00  0.00    +0.024 A 
ATOM     33  C   UNL     1       4.706  29.323   2.702  0.00  0.00    +0.007 A 
ATOM     34  C   UNL     1       5.249  28.007   2.522  0.00  0.00    -0.029 A 
ATOM     35  C   UNL     1       5.723  27.593   1.109  0.00  0.00    +0.045 C 
ENDROOT
BRANCH  10   9
ATOM      4  C   UNL     1       7.723  23.353   5.451  0.00  0.00    +0.077 A 
ATOM      5  C   UNL     1       7.987  24.024   6.691  0.00  0.00    +0.048 A 
ATOM      6  C   UNL     1       7.496  25.341   6.833  0.00  0.00    +0.116 A 
ATOM      7  N   UNL     1       6.794  25.933   5.805  0.00  0.00    -0.223 NA
ATOM      8  C   UNL     1       6.558  25.258   4.622  0.00  0.00    +0.220 A 
ATOM      9  N   UNL     1       5.848  25.831   3.578  0.00  0.00    -0.283 N 
ATOM     36  H   UNL     1       5.702  25.303   2.718  0.00  0.00    +0.155 HD
ATOM     37  N   UNL     1       7.018  24.000   4.460  0.00  0.00    -0.214 NA
BRANCH   4   3
ATOM      1  C   UNL     1       7.894  19.451   5.233  0.00  0.00    +0.020 A 
ATOM      2  C   UNL     1       7.415  20.777   5.548  0.00  0.00    +0.013 A 
ATOM      3  C   UNL     1       8.173  21.957   5.150  0.00  0.00    +0.019 A 
ATOM     38  C   UNL     1       9.421  21.758   4.429  0.00  0.00    +0.120 A 
ATOM     39  N   UNL     1       9.858  20.469   4.141  0.00  0.00    -0.263 NA
ATOM     40  C   UNL     1       9.138  19.327   4.520  0.00  0.00    +0.111 A 
ENDBRANCH   4   3
ENDBRANCH  10   9
BRANCH  12  13
ATOM     13  N   UNL     1       3.874  29.418   6.405  0.00  0.00    -0.281 N 
ATOM     14  C   UNL     1       4.612  29.629   7.559  0.00  0.00    +0.248 C 
ATOM     30  O   UNL     1       5.744  29.206   7.742  0.00  0.00    -0.270 OA
ATOM     31  H   UNL     1       2.883  29.654   6.458  0.00  0.00    +0.155 HD
BRANCH  14  15
ATOM     15  C   UNL     1       3.999  30.410   8.676  0.00  0.00    +0.037 A 
ATOM     16  C   UNL     1       2.841  31.278   8.449  0.00  0.00    +0.013 A 
ATOM     17  C   UNL     1       2.279  32.034   9.540  0.00  0.00    +0.005 A 
ATOM     18  C   UNL     1       2.874  31.923  10.870  0.00  0.00    -0.033 A 
ATOM     28  C   UNL     1       4.019  31.050  11.068  0.00  0.00    +0.005 A 
ATOM     29  C   UNL     1       4.573  30.308  10.000  0.00  0.00    +0.013 A 
BRANCH  18  19
ATOM     19  C   UNL     1       2.354  32.708  12.088  0.00  0.00    +0.119 C 
BRANCH  19  20
ATOM     20  N   UNL     1       3.277  33.709  12.702  0.00  0.00    -0.302 NA
ATOM     21  C   UNL     1       2.697  34.316  13.982  0.00  0.00    +0.066 C 
ATOM     22  C   UNL     1       3.685  35.343  14.624  0.00  0.00    -0.064 C 
ATOM     23  N   UNL     1       4.011  36.437  13.605  0.00  0.00    +0.379 N 
ATOM     24  C   UNL     1       4.895  37.436  14.224  0.00  0.00    -0.096 C 
ATOM     25  H   UNL     1       3.056  36.948  13.340  0.00  0.00    -0.082 HD
ATOM     26  C   UNL     1       4.586  35.842  12.328  0.00  0.00    -0.064 C 
ATOM     27  C   UNL     1       3.609  34.800  11.715  0.00  0.00    +0.066 C 
ENDBRANCH  19  20
ENDBRANCH  18  19
ENDBRANCH  14  15
ENDBRANCH  12  13
TORSDOF 6
ENDMDL
MODEL 2
REMARK VINA RESULT:      -9.5      7.091     10.281
REMARK  Name = C:\Users\Docking\Desktop\test protocol\1iep_ligandH.pdb
REMARK  8 active torsions:
REMARK  status: ('A' for Active; 'I' for Inactive)
REMARK    1  A    between atoms: _5  and  _11
REMARK    2  A    between atoms: _19  and  _21
REMARK    3  A    between atoms: _22  and  _66
REMARK    4  A    between atoms: _27  and  _30
REMARK    5  A    between atoms: _32  and  _33
REMARK    6  A    between atoms: _38  and  _43
REMARK    7  A    between atoms: _43  and  _46
REMARK    8  A    between atoms: _53  and  _55
REMARK                            x       y       z     vdW  Elec       q    Type
REMARK                         _______ _______ _______ _____ _____    ______ ____
ROOT
ATOM     10  C   UNL     1       4.589  30.806   5.172  0.00  0.00    +0.038 A 
ATOM     11  C   UNL     1       4.769  31.489   3.943  0.00  0.00    +0.047 A 
ATOM     12  C   UNL     1       3.946  32.636   3.592  0.00  0.00    +0.035 A 
ATOM     32  C   UNL     1       2.949  33.062   4.519  0.00  0.00    +0.024 A 
ATOM     33  C   UNL     1       2.752  32.377   5.772  0.00  0.00    +0.007 A 
ATOM     34  C   UNL     1       3.559  31.244   6.123  0.00  0.00    -0.029 A 
ATOM     35  C   UNL     1       3.299  30.545   7.477  0.00  0.00    +0.045 C 
ENDROOT
BRANCH  10   9
ATOM      4  C   UNL     1       5.783  26.180   4.712  0.00  0.00    +0.077 A 
ATOM      5  C   UNL     1       4.666  25.916   3.851  0.00  0.00    +0.048 A 
ATOM      6  C   UNL     1       3.804  26.996   3.557  0.00  0.00    +0.116 A 
ATOM      7  N   UNL     1       4.051  28.243   4.089  0.00  0.00    -0.223 NA
ATOM      8  C   UNL     1       5.136  28.463   4.918  0.00  0.00    +0.220 A 
ATOM      9  N   UNL     1       5.407  29.710   5.458  0.00  0.00    -0.283 N 
ATOM     36  H   UNL     1       6.213  29.830   6.071  0.00  0.00    +0.155 HD
ATOM     37  N   UNL     1       5.973  27.447   5.215  0.00  0.00    -0.214 NA
BRANCH   4   3
ATOM      1  C   UNL     1       8.581  24.239   6.637  0.00  0.00    +0.020 A 
ATOM      2  C   UNL     1       7.629  25.270   6.294  0.00  0.00    +0.013 A 
ATOM      3  C   UNL     1       6.785  25.142   5.113  0.00  0.00    +0.019 A 
ATOM     38  C   UNL     1       6.928  23.947   4.294  0.00  0.00    +0.120 A 
ATOM     39  N   UNL     1       7.854  22.971   4.649  0.00  0.00    -0.263 NA
ATOM     40  C   UNL     1       8.673  23.085   5.782  0.00  0.00    +0.111 A 
ENDBRANCH   4   3
ENDBRANCH  10   9
BRANCH  12  13
ATOM     13  N   UNL     1       4.077  33.365   2.355  0.00  0.00    -0.281 N 
ATOM     14  C   UNL     1       3.347  33.203   1.189  0.00  0.00    +0.248 C 
ATOM     30  O   UNL     1       2.609  32.256   0.962  0.00  0.00    -0.270 OA
ATOM     31  H   UNL     1       4.797  34.089   2.337  0.00  0.00    +0.155 HD
BRANCH  14  15
ATOM     15  C   UNL     1       3.465  34.235   0.114  0.00  0.00    +0.037 A 
ATOM     16  C   UNL     1       2.463  34.342  -0.950  0.00  0.00    +0.013 A 
ATOM     17  C   UNL     1       2.610  35.334  -1.984  0.00  0.00    +0.005 A 
ATOM     18  C   UNL     1       3.764  36.230  -1.959  0.00  0.00    -0.033 A 
ATOM     28  C   UNL     1       4.740  36.105  -0.889  0.00  0.00    +0.005 A 
ATOM     29  C   UNL     1       4.600  35.133   0.126  0.00  0.00    +0.013 A 
BRANCH  18  19
ATOM     19  C   UNL     1       4.012  37.305  -3.034  0.00  0.00    +0.119 C 
BRANCH  19  20
ATOM     20  N   UNL     1       2.943  38.327  -3.239  0.00  0.00    -0.302 NA
ATOM     21  C   UNL     1       2.116  38.049  -4.497  0.00  0.00    +0.066 C 
ATOM     22  C   UNL     1       0.988  39.115  -4.684  0.00  0.00    -0.064 C 
ATOM     23  N   UNL     1       1.612  40.510  -4.744  0.00  0.00    +0.379 N 
ATOM     24  C   UNL     1       0.560  41.509  -4.977  0.00  0.00    -0.096 C 
ATOM     25  H   UNL     1       2.302  40.534  -5.619  0.00  0.00    -0.082 HD
ATOM     26  C   UNL     1       2.439  40.793  -3.497  0.00  0.00    -0.064 C 
ATOM     27  C   UNL     1       3.538  39.712  -3.305  0.00  0.00    +0.066 C 
ENDBRANCH  19  20
ENDBRANCH  18  19
ENDBRANCH  14  15
ENDBRANCH  12  13
TORSDOF 6
ENDMDL
MODEL 3
REMARK VINA RESULT:      -9.3      6.927     13.151
REMARK  Name = C:\Users\Docking\Desktop\test protocol\1iep_ligandH.pdb
REMARK  8 active torsions:
REMARK  status: ('A' for Active; 'I' for Inactive)
REMARK    1  A    between atoms: _5  and  _11
REMARK    2  A    between atoms: _19  and  _21
REMARK    3  A    between atoms: _22  and  _66
REMARK    4  A    between atoms: _27  and  _30
REMARK    5  A    between atoms: _32  and  _33
REMARK    6  A    between atoms: _38  and  _43
REMARK    7  A    between atoms: _43  and  _46
REMARK    8  A    between atoms: _53  and  _55
REMARK                            x       y       z     vdW  Elec       q    Type
REMARK                         _______ _______ _______ _____ _____    ______ ____
ROOT
ATOM     10  C   UNL     1       2.920  34.821   0.810  0.00  0.00    +0.038 A 
ATOM     11  C   UNL     1       3.095  33.669   1.619  0.00  0.00    +0.047 A 
ATOM     12  C   UNL     1       4.423  33.214   2.002  0.00  0.00    +0.035 A 
ATOM     32  C   UNL     1       5.550  33.958   1.545  0.00  0.00    +0.024 A 
ATOM     33  C   UNL     1       5.390  35.130   0.721  0.00  0.00    +0.007 A 
ATOM     34  C   UNL     1       4.083  35.582   0.338  0.00  0.00    -0.029 A 
ATOM     35  C   UNL     1       3.971  36.842  -0.552  0.00  0.00    +0.045 C 
ENDROOT
BRANCH  10   9
ATOM      4  C   UNL     1      -0.856  34.853  -2.154  0.00  0.00    +0.077 A 
ATOM      5  C   UNL     1      -0.177  34.043  -3.124  0.00  0.00    +0.048 A 
ATOM      6  C   UNL     1       1.146  33.645  -2.825  0.00  0.00    +0.116 A 
ATOM      7  N   UNL     1       1.735  34.034  -1.641  0.00  0.00    -0.223 NA
ATOM      8  C   UNL     1       1.052  34.817  -0.728  0.00  0.00    +0.220 A 
ATOM      9  N   UNL     1       1.622  35.213   0.472  0.00  0.00    -0.283 N 
ATOM     36  H   UNL     1       1.089  35.796   1.115  0.00  0.00    +0.155 HD
ATOM     37  N   UNL     1      -0.211  35.211  -0.991  0.00  0.00    -0.214 NA
BRANCH   4   3
ATOM      1  C   UNL     1      -4.754  35.006  -2.439  0.00  0.00    +0.020 A 
ATOM      2  C   UNL     1      -3.421  34.475  -2.269  0.00  0.00    +0.013 A 
ATOM      3  C   UNL     1      -2.258  35.351  -2.324  0.00  0.00    +0.019 A 
ATOM     38  C   UNL     1      -2.479  36.770  -2.554  0.00  0.00    +0.120 A 
ATOM     39  N   UNL     1      -3.774  37.253  -2.716  0.00  0.00    -0.263 NA
ATOM     40  C   UNL     1      -4.901  36.419  -2.666  0.00  0.00    +0.111 A 
ENDBRANCH   4   3
ENDBRANCH  10   9
BRANCH  12  13
ATOM     13  N   UNL     1       4.663  32.048   2.815  0.00  0.00    -0.281 N 
ATOM     14  C   UNL     1       4.665  30.720   2.420  0.00  0.00    +0.248 C 
ATOM     30  O   UNL     1       4.246  30.319   1.344  0.00  0.00    -0.270 OA
ATOM     31  H   UNL     1       4.856  32.222   3.801  0.00  0.00    +0.155 HD
BRANCH  14  15
ATOM     15  C   UNL     1       5.194  29.687   3.362  0.00  0.00    +0.037 A 
ATOM     16  C   UNL     1       6.497  29.054   3.140  0.00  0.00    +0.013 A 
ATOM     17  C   UNL     1       6.976  28.048   4.055  0.00  0.00    +0.005 A 
ATOM     18  C   UNL     1       6.152  27.670   5.201  0.00  0.00    -0.033 A 
ATOM     28  C   UNL     1       4.867  28.318   5.399  0.00  0.00    +0.005 A 
ATOM     29  C   UNL     1       4.393  29.304   4.504  0.00  0.00    +0.013 A 
BRANCH  18  19
ATOM     19  C   UNL     1       6.575  26.592   6.215  0.00  0.00    +0.119 C 
BRANCH  19  20
ATOM     20  N   UNL     1       7.419  25.469   5.708  0.00  0.00    -0.302 NA
ATOM     21  C   UNL     1       6.616  24.491   4.846  0.00  0.00    +0.066 C 
ATOM     22  C   UNL     1       7.520  23.335   4.305  0.00  0.00    -0.064 C 
ATOM     23  N   UNL     1       8.173  22.609   5.482  0.00  0.00    +0.379 N 
ATOM     24  C   UNL     1       8.977  21.485   4.980  0.00  0.00    -0.096 C 
ATOM     25  H   UNL     1       7.357  22.186   6.113  0.00  0.00    -0.082 HD
ATOM     26  C   UNL     1       8.971  23.574   6.347  0.00  0.00    -0.064 C 
ATOM     27  C   UNL     1       8.071  24.735   6.855  0.00  0.00    +0.066 C 
ENDBRANCH  19  20
ENDBRANCH  18  19
ENDBRANCH  14  15
ENDBRANCH  12  13
TORSDOF 6
ENDMDL
MODEL 4
REMARK VINA RESULT:      -9.3      3.933      8.247
REMARK  Name = C:\Users\Docking\Desktop\test protocol\1iep_ligandH.pdb
REMARK  8 active torsions:
REMARK  status: ('A' for Active; 'I' for Inactive)
REMARK    1  A    between atoms: _5  and  _11
REMARK    2  A    between atoms: _19  and  _21
REMARK    3  A    between atoms: _22  and  _66
REMARK    4  A    between atoms: _27  and  _30
REMARK    5  A    between atoms: _32  and  _33
REMARK    6  A    between atoms: _38  and  _43
REMARK    7  A    between atoms: _43  and  _46
REMARK    8  A    between atoms: _53  and  _55
REMARK                            x       y       z     vdW  Elec       q    Type
REMARK                         _______ _______ _______ _____ _____    ______ ____
ROOT
ATOM     10  C   UNL     1       3.455  31.705  10.669  0.00  0.00    +0.038 A 
ATOM     11  C   UNL     1       4.324  32.598  11.347  0.00  0.00    +0.047 A 
ATOM     12  C   UNL     1       3.853  33.887  11.828  0.00  0.00    +0.035 A 
ATOM     32  C   UNL     1       2.489  34.234  11.604  0.00  0.00    +0.024 A 
ATOM     33  C   UNL     1       1.592  33.340  10.916  0.00  0.00    +0.007 A 
ATOM     34  C   UNL     1       2.052  32.068  10.437  0.00  0.00    -0.029 A 
ATOM     35  C   UNL     1       1.047  31.151   9.700  0.00  0.00    +0.045 C 
ENDROOT
BRANCH  10   9
ATOM      4  C   UNL     1       5.449  28.909   7.316  0.00  0.00    +0.077 A 
ATOM      5  C   UNL     1       5.460  29.971   6.352  0.00  0.00    +0.048 A 
ATOM      6  C   UNL     1       4.937  31.220   6.756  0.00  0.00    +0.116 A 
ATOM      7  N   UNL     1       4.442  31.383   8.033  0.00  0.00    -0.223 NA
ATOM      8  C   UNL     1       4.445  30.337   8.937  0.00  0.00    +0.220 A 
ATOM      9  N   UNL     1       3.961  30.480  10.228  0.00  0.00    -0.283 N 
ATOM     36  H   UNL     1       3.973  29.683  10.863  0.00  0.00    +0.155 HD
ATOM     37  N   UNL     1       4.938  29.134   8.575  0.00  0.00    -0.214 NA
BRANCH   4   3
ATOM      1  C   UNL     1       6.267  25.509   5.563  0.00  0.00    +0.020 A 
ATOM      2  C   UNL     1       5.742  26.837   5.779  0.00  0.00    +0.013 A 
ATOM      3  C   UNL     1       5.970  27.533   7.040  0.00  0.00    +0.019 A 
ATOM     38  C   UNL     1       6.741  26.851   8.069  0.00  0.00    +0.120 A 
ATOM     39  N   UNL     1       7.233  25.571   7.833  0.00  0.00    -0.263 NA
ATOM     40  C   UNL     1       7.018  24.892   6.625  0.00  0.00    +0.111 A 
ENDBRANCH   4   3
ENDBRANCH  10   9
BRANCH  12  13
ATOM     13  N   UNL     1       4.692  34.838  12.515  0.00  0.00    -0.281 N 
ATOM     14  C   UNL     1       4.915  36.166  12.192  0.00  0.00    +0.248 C 
ATOM     30  O   UNL     1       4.592  36.684  11.133  0.00  0.00    -0.270 OA
ATOM     31  H   UNL     1       5.180  34.489  13.340  0.00  0.00    +0.155 HD
BRANCH  14  15
ATOM     15  C   UNL     1       5.610  37.043  13.183  0.00  0.00    +0.037 A 
ATOM     16  C   UNL     1       5.018  37.329  14.492  0.00  0.00    +0.013 A 
ATOM     17  C   UNL     1       5.701  38.192  15.423  0.00  0.00    +0.005 A 
ATOM     18  C   UNL     1       6.987  38.775  15.047  0.00  0.00    -0.033 A 
ATOM     28  C   UNL     1       7.554  38.471  13.743  0.00  0.00    +0.005 A 
ATOM     29  C   UNL     1       6.886  37.626  12.828  0.00  0.00    +0.013 A 
BRANCH  18  19
ATOM     19  C   UNL     1       7.776  39.724  15.968  0.00  0.00    +0.119 C 
BRANCH  19  20
ATOM     20  N   UNL     1       8.775  40.628  15.324  0.00  0.00    -0.302 NA
ATOM     21  C   UNL     1       9.935  40.965  16.265  0.00  0.00    +0.066 C 
ATOM     22  C   UNL     1      10.982  41.894  15.567  0.00  0.00    -0.064 C 
ATOM     23  N   UNL     1      10.287  43.169  15.085  0.00  0.00    +0.379 N 
ATOM     24  C   UNL     1      11.279  44.070  14.481  0.00  0.00    -0.096 C 
ATOM     25  H   UNL     1       9.865  43.682  15.980  0.00  0.00    -0.082 HD
ATOM     26  C   UNL     1       9.130  42.843  14.152  0.00  0.00    -0.064 C 
ATOM     27  C   UNL     1       8.111  41.895  14.844  0.00  0.00    +0.066 C 
ENDBRANCH  19  20
ENDBRANCH  18  19
ENDBRANCH  14  15
ENDBRANCH  12  13
TORSDOF 6
ENDMDL
MODEL 5
REMARK VINA RESULT:      -9.2      4.132      8.619
REMARK  Name = C:\Users\Docking\Desktop\test protocol\1iep_ligandH.pdb
REMARK  8 active torsions:
REMARK  status: ('A' for Active; 'I' for Inactive)
REMARK    1  A    between atoms: _5  and  _11
REMARK    2  A    between atoms: _19  and  _21
REMARK    3  A    between atoms: _22  and  _66
REMARK    4  A    between atoms: _27  and  _30
REMARK    5  A    between atoms: _32  and  _33
REMARK    6  A    between atoms: _38  and  _43
REMARK    7  A    between atoms: _43  and  _46
REMARK    8  A    between atoms: _53  and  _55
REMARK                            x       y       z     vdW  Elec       q    Type
REMARK                         _______ _______ _______ _____ _____    ______ ____
ROOT
ATOM     10  C   UNL     1       3.292  32.622   9.775  0.00  0.00    +0.038 A 
ATOM     11  C   UNL     1       4.193  33.503  10.427  0.00  0.00    +0.047 A 
ATOM     12  C   UNL     1       3.895  34.044  11.744  0.00  0.00    +0.035 A 
ATOM     32  C   UNL     1       2.672  33.665  12.370  0.00  0.00    +0.024 A 
ATOM     33  C   UNL     1       1.744  32.772  11.721  0.00  0.00    +0.007 A 
ATOM     34  C   UNL     1       2.031  32.237  10.421  0.00  0.00    -0.029 A 
ATOM     35  C   UNL     1       0.998  31.289   9.770  0.00  0.00    +0.045 C 
ENDROOT
BRANCH  10   9
ATOM      4  C   UNL     1       5.324  29.356   6.905  0.00  0.00    +0.077 A 
ATOM      5  C   UNL     1       5.778  28.573   8.018  0.00  0.00    +0.048 A 
ATOM      6  C   UNL     1       5.474  29.050   9.313  0.00  0.00    +0.116 A 
ATOM      7  N   UNL     1       4.768  30.223   9.471  0.00  0.00    -0.223 NA
ATOM      8  C   UNL     1       4.347  30.954   8.376  0.00  0.00    +0.220 A 
ATOM      9  N   UNL     1       3.628  32.132   8.511  0.00  0.00    -0.283 N 
ATOM     36  H   UNL     1       3.342  32.647   7.679  0.00  0.00    +0.155 HD
ATOM     37  N   UNL     1       4.626  30.521   7.129  0.00  0.00    -0.214 NA
BRANCH   4   3
ATOM      1  C   UNL     1       6.741  27.660   3.677  0.00  0.00    +0.020 A 
ATOM      2  C   UNL     1       6.548  27.985   5.072  0.00  0.00    +0.013 A 
ATOM      3  C   UNL     1       5.565  28.982   5.475  0.00  0.00    +0.019 A 
ATOM     38  C   UNL     1       4.787  29.638   4.435  0.00  0.00    +0.120 A 
ATOM     39  N   UNL     1       4.996  29.306   3.100  0.00  0.00    -0.263 NA
ATOM     40  C   UNL     1       5.940  28.349   2.700  0.00  0.00    +0.111 A 
ENDBRANCH   4   3
ENDBRANCH  10   9
BRANCH  12  13
ATOM     13  N   UNL     1       4.768  34.949  12.452  0.00  0.00    -0.281 N 
ATOM     14  C   UNL     1       4.908  36.315  12.268  0.00  0.00    +0.248 C 
ATOM     30  O   UNL     1       4.456  36.934  11.316  0.00  0.00    -0.270 OA
ATOM     31  H   UNL     1       5.353  34.531  13.175  0.00  0.00    +0.155 HD
BRANCH  14  15
ATOM     15  C   UNL     1       5.673  37.104  13.281  0.00  0.00    +0.037 A 
ATOM     16  C   UNL     1       5.160  37.297  14.639  0.00  0.00    +0.013 A 
ATOM     17  C   UNL     1       5.909  38.078  15.592  0.00  0.00    +0.005 A 
ATOM     18  C   UNL     1       7.182  38.670  15.188  0.00  0.00    -0.033 A 
ATOM     28  C   UNL     1       7.670  38.459  13.835  0.00  0.00    +0.005 A 
ATOM     29  C   UNL     1       6.938  37.695  12.899  0.00  0.00    +0.013 A 
BRANCH  18  19
ATOM     19  C   UNL     1       8.038  39.536  16.131  0.00  0.00    +0.119 C 
BRANCH  19  20
ATOM     20  N   UNL     1       8.898  40.585  15.506  0.00  0.00    -0.302 NA
ATOM     21  C   UNL     1      10.023  41.039  16.440  0.00  0.00    +0.066 C 
ATOM     22  C   UNL     1      10.925  42.120  15.762  0.00  0.00    -0.064 C 
ATOM     23  N   UNL     1      10.061  43.308  15.337  0.00  0.00    +0.379 N 
ATOM     24  C   UNL     1      10.915  44.351  14.751  0.00  0.00    -0.096 C 
ATOM     25  H   UNL     1       9.593  43.731  16.256  0.00  0.00    -0.082 HD
ATOM     26  C   UNL     1       8.938  42.865  14.410  0.00  0.00    -0.064 C 
ATOM     27  C   UNL     1       8.065  41.770  15.083  0.00  0.00    +0.066 C 
ENDBRANCH  19  20
ENDBRANCH  18  19
ENDBRANCH  14  15
ENDBRANCH  12  13
TORSDOF 6
ENDMDL
