MODEL 1
REMARK VINA RESULT:      -8.0      0.000      0.000
REMARK  Name = C:\Users\Docking\Desktop\test protocol\1iep_ligandH.pdb
REMARK  8 active torsions:
REMARK  status: ('A' for Active; 'I' for Inactive)
REMARK    1  A    between atoms: _5  and  _11
REMARK    2  A    between atoms: _19  and  _21
REMARK    3  A    between atoms: _22  and  _66
REMARK    4  A    between atoms: _27  and  _30
REMARK    5  A    between atoms: _32  and  _33
REMARK    6  A    between atoms: _38  and  _43
REMARK    7  A    between atoms: _43  and  _46
REMARK    8  A    between atoms: _53  and  _55
REMARK                            x       y       z     vdW  Elec       q    Type
REMARK                         _______ _______ _______ _____ _____    ______ ____
ROOT
ATOM     10  C   UNL     1      62.216  46.285  30.669  0.00  0.00    +0.038 A 
ATOM     11  C   UNL     1      62.972  45.393  29.867  0.00  0.00    +0.047 A 
ATOM     12  C   UNL     1      62.393  44.763  28.691  0.00  0.00    +0.035 A 
ATOM     32  C   UNL     1      61.040  45.065  28.360  0.00  0.00    +0.024 A 
ATOM     33  C   UNL     1      60.256  45.969  29.165  0.00  0.00    +0.007 A 
ATOM     34  C   UNL     1      60.822  46.591  30.328  0.00  0.00    -0.029 A 
ATOM     35  C   UNL     1      59.933  47.546  31.158  0.00  0.00    +0.045 C 
ENDROOT
BRANCH  10   9
ATOM      4  C   UNL     1      63.178  46.412  35.370  0.00  0.00    +0.077 A 
ATOM      5  C   UNL     1      62.382  45.246  35.624  0.00  0.00    +0.048 A 
ATOM      6  C   UNL     1      61.736  44.647  34.519  0.00  0.00    +0.116 A 
ATOM      7  N   UNL     1      61.882  45.183  33.258  0.00  0.00    -0.223 NA
ATOM      8  C   UNL     1      62.656  46.310  33.048  0.00  0.00    +0.220 A 
ATOM      9  N   UNL     1      62.823  46.862  31.787  0.00  0.00    -0.283 N 
ATOM     36  H   UNL     1      63.395  47.698  31.674  0.00  0.00    +0.155 HD
ATOM     37  N   UNL     1      63.282  46.901  34.087  0.00  0.00    -0.214 NA
BRANCH   4   3
ATOM      1  C   UNL     1      65.645  48.834  37.200  0.00  0.00    +0.020 A 
ATOM      2  C   UNL     1      64.954  48.144  36.136  0.00  0.00    +0.013 A 
ATOM      3  C   UNL     1      63.925  47.155  36.434  0.00  0.00    +0.019 A 
ATOM     38  C   UNL     1      63.616  46.887  37.830  0.00  0.00    +0.120 A 
ATOM     39  N   UNL     1      64.299  47.566  38.834  0.00  0.00    -0.263 NA
ATOM     40  C   UNL     1      65.293  48.518  38.559  0.00  0.00    +0.111 A 
ENDBRANCH   4   3
ENDBRANCH  10   9
BRANCH  12  13
ATOM     13  N   UNL     1      63.110  43.843  27.843  0.00  0.00    -0.281 N 
ATOM     14  C   UNL     1      63.441  42.524  28.105  0.00  0.00    +0.248 C 
ATOM     30  O   UNL     1      63.357  41.996  29.204  0.00  0.00    -0.270 OA
ATOM     31  H   UNL     1      63.409  44.209  26.939  0.00  0.00    +0.155 HD
BRANCH  14  15
ATOM     15  C   UNL     1      63.954  41.672  26.989  0.00  0.00    +0.037 A 
ATOM     16  C   UNL     1      63.287  41.646  25.685  0.00  0.00    +0.013 A 
ATOM     17  C   UNL     1      63.792  40.803  24.631  0.00  0.00    +0.005 A 
ATOM     18  C   UNL     1      64.974  39.979  24.877  0.00  0.00    -0.033 A 
ATOM     28  C   UNL     1      65.619  40.028  26.179  0.00  0.00    +0.005 A 
ATOM     29  C   UNL     1      65.126  40.853  27.215  0.00  0.00    +0.013 A 
BRANCH  18  19
ATOM     19  C   UNL     1      65.570  39.033  23.818  0.00  0.00    +0.119 C 
BRANCH  19  20
ATOM     20  N   UNL     1      66.482  37.954  24.300  0.00  0.00    -0.302 NA
ATOM     21  C   UNL     1      67.783  37.899  23.493  0.00  0.00    +0.066 C 
ATOM     22  C   UNL     1      68.736  36.780  24.026  0.00  0.00    -0.064 C 
ATOM     23  N   UNL     1      68.012  35.433  23.979  0.00  0.00    +0.379 N 
ATOM     24  C   UNL     1      68.924  34.370  24.424  0.00  0.00    -0.096 C 
ATOM     25  H   UNL     1      67.747  35.228  22.916  0.00  0.00    -0.082 HD
ATOM     26  C   UNL     1      66.716  35.480  24.776  0.00  0.00    -0.064 C 
ATOM     27  C   UNL     1      65.789  36.615  24.258  0.00  0.00    +0.066 C 
ENDBRANCH  19  20
ENDBRANCH  18  19
ENDBRANCH  14  15
ENDBRANCH  12  13
TORSDOF 6
ENDMDL
MODEL 2
REMARK VINA RESULT:      -8.0     31.474     33.195
REMARK  Name = C:\Users\Docking\Desktop\test protocol\1iep_ligandH.pdb
REMARK  8 active torsions:
REMARK  status: ('A' for Active; 'I' for Inactive)
REMARK    1  A    between atoms: _5  and  _11
REMARK    2  A    between atoms: _19  and  _21
REMARK    3  A    between atoms: _22  and  _66
REMARK    4  A    between atoms: _27  and  _30
REMARK    5  A    between atoms: _32  and  _33
REMARK    6  A    between atoms: _38  and  _43
REMARK    7  A    between atoms: _43  and  _46
REMARK    8  A    between atoms: _53  and  _55
REMARK                            x       y       z     vdW  Elec       q    Type
REMARK                         _______ _______ _______ _____ _____    ______ ____
ROOT
ATOM     10  C   UNL     1      36.593  46.364  14.191  0.00  0.00    +0.038 A 
ATOM     11  C   UNL     1      36.732  45.138  13.492  0.00  0.00    +0.047 A 
ATOM     12  C   UNL     1      36.414  43.869  14.129  0.00  0.00    +0.035 A 
ATOM     32  C   UNL     1      35.954  43.886  15.478  0.00  0.00    +0.024 A 
ATOM     33  C   UNL     1      35.808  45.123  16.203  0.00  0.00    +0.007 A 
ATOM     34  C   UNL     1      36.122  46.378  15.582  0.00  0.00    -0.029 A 
ATOM     35  C   UNL     1      35.953  47.673  16.410  0.00  0.00    +0.045 C 
ENDROOT
BRANCH  10   9
ATOM      4  C   UNL     1      35.401  50.194  11.555  0.00  0.00    +0.077 A 
ATOM      5  C   UNL     1      34.032  49.777  11.460  0.00  0.00    +0.048 A 
ATOM      6  C   UNL     1      33.676  48.567  12.099  0.00  0.00    +0.116 A 
ATOM      7  N   UNL     1      34.628  47.837  12.778  0.00  0.00    -0.223 NA
ATOM      8  C   UNL     1      35.940  48.267  12.848  0.00  0.00    +0.220 A 
ATOM      9  N   UNL     1      36.912  47.553  13.532  0.00  0.00    -0.283 N 
ATOM     36  H   UNL     1      37.871  47.900  13.554  0.00  0.00    +0.155 HD
ATOM     37  N   UNL     1      36.305  49.418  12.245  0.00  0.00    -0.214 NA
BRANCH   4   3
ATOM      1  C   UNL     1      37.455  53.460  10.910  0.00  0.00    +0.020 A 
ATOM      2  C   UNL     1      36.979  52.254  11.549  0.00  0.00    +0.013 A 
ATOM      3  C   UNL     1      35.930  51.450  10.936  0.00  0.00    +0.019 A 
ATOM     38  C   UNL     1      35.379  51.897   9.665  0.00  0.00    +0.120 A 
ATOM     39  N   UNL     1      35.856  53.062   9.074  0.00  0.00    -0.263 NA
ATOM     40  C   UNL     1      36.864  53.845   9.656  0.00  0.00    +0.111 A 
ENDBRANCH   4   3
ENDBRANCH  10   9
BRANCH  12  13
ATOM     13  N   UNL     1      36.543  42.592  13.472  0.00  0.00    -0.281 N 
ATOM     14  C   UNL     1      37.707  41.906  13.166  0.00  0.00    +0.248 C 
ATOM     30  O   UNL     1      38.829  42.388  13.220  0.00  0.00    -0.270 OA
ATOM     31  H   UNL     1      35.671  42.139  13.199  0.00  0.00    +0.155 HD
BRANCH  14  15
ATOM     15  C   UNL     1      37.610  40.482  12.721  0.00  0.00    +0.037 A 
ATOM     16  C   UNL     1      38.678  39.856  11.938  0.00  0.00    +0.013 A 
ATOM     17  C   UNL     1      38.552  38.486  11.507  0.00  0.00    +0.005 A 
ATOM     18  C   UNL     1      37.352  37.732  11.862  0.00  0.00    -0.033 A 
ATOM     28  C   UNL     1      36.310  38.376  12.645  0.00  0.00    +0.005 A 
ATOM     29  C   UNL     1      36.430  39.719  13.067  0.00  0.00    +0.013 A 
BRANCH  18  19
ATOM     19  C   UNL     1      37.123  36.272  11.428  0.00  0.00    +0.119 C 
BRANCH  19  20
ATOM     20  N   UNL     1      36.796  35.284  12.498  0.00  0.00    -0.302 NA
ATOM     21  C   UNL     1      37.795  34.123  12.533  0.00  0.00    +0.066 C 
ATOM     22  C   UNL     1      37.451  33.110  13.673  0.00  0.00    -0.064 C 
ATOM     23  N   UNL     1      36.025  32.592  13.478  0.00  0.00    +0.379 N 
ATOM     24  C   UNL     1      35.719  31.596  14.515  0.00  0.00    -0.096 C 
ATOM     25  H   UNL     1      35.984  32.076  12.491  0.00  0.00    -0.082 HD
ATOM     26  C   UNL     1      35.026  33.740  13.440  0.00  0.00    -0.064 C 
ATOM     27  C   UNL     1      35.394  34.756  12.323  0.00  0.00    +0.066 C 
ENDBRANCH  19  20
ENDBRANCH  18  19
ENDBRANCH  14  15
ENDBRANCH  12  13
TORSDOF 6
ENDMDL
MODEL 3
REMARK VINA RESULT:      -8.0     32.422     36.849
REMARK  Name = C:\Users\Docking\Desktop\test protocol\1iep_ligandH.pdb
REMARK  8 active torsions:
REMARK  status: ('A' for Active; 'I' for Inactive)
REMARK    1  A    between atoms: _5  and  _11
REMARK    2  A    between atoms: _19  and  _21
REMARK    3  A    between atoms: _22  and  _66
REMARK    4  A    between atoms: _27  and  _30
REMARK    5  A    between atoms: _32  and  _33
REMARK    6  A    between atoms: _38  and  _43
REMARK    7  A    between atoms: _43  and  _46
REMARK    8  A    between atoms: _53  and  _55
REMARK                            x       y       z     vdW  Elec       q    Type
REMARK                         _______ _______ _______ _____ _____    ______ ____
ROOT
ATOM     10  C   UNL     1      65.227  25.215   0.345  0.00  0.00    +0.038 A 
ATOM     11  C   UNL     1      63.917  24.698   0.506  0.00  0.00    +0.047 A 
ATOM     12  C   UNL     1      63.098  25.068   1.650  0.00  0.00    +0.035 A 
ATOM     32  C   UNL     1      63.644  25.970   2.609  0.00  0.00    +0.024 A 
ATOM     33  C   UNL     1      64.975  26.504   2.461  0.00  0.00    +0.007 A 
ATOM     34  C   UNL     1      65.789  26.140   1.336  0.00  0.00    -0.029 A 
ATOM     35  C   UNL     1      67.211  26.739   1.231  0.00  0.00    +0.045 C 
ENDROOT
BRANCH  10   9
ATOM      4  C   UNL     1      66.945  25.978  -4.072  0.00  0.00    +0.077 A 
ATOM      5  C   UNL     1      66.285  27.248  -4.173  0.00  0.00    +0.048 A 
ATOM      6  C   UNL     1      65.508  27.665  -3.069  0.00  0.00    +0.116 A 
ATOM      7  N   UNL     1      65.405  26.864  -1.953  0.00  0.00    -0.223 NA
ATOM      8  C   UNL     1      66.053  25.644  -1.889  0.00  0.00    +0.220 A 
ATOM      9  N   UNL     1      65.970  24.825  -0.773  0.00  0.00    -0.283 N 
ATOM     36  H   UNL     1      66.456  23.929  -0.767  0.00  0.00    +0.155 HD
ATOM     37  N   UNL     1      66.800  25.222  -2.930  0.00  0.00    -0.214 NA
BRANCH   4   3
ATOM      1  C   UNL     1      69.783  25.478  -6.717  0.00  0.00    +0.020 A 
ATOM      2  C   UNL     1      68.986  26.079  -5.672  0.00  0.00    +0.013 A 
ATOM      3  C   UNL     1      67.804  25.401  -5.154  0.00  0.00    +0.019 A 
ATOM     38  C   UNL     1      67.454  24.107  -5.718  0.00  0.00    +0.120 A 
ATOM     39  N   UNL     1      68.239  23.553  -6.725  0.00  0.00    -0.263 NA
ATOM     40  C   UNL     1      69.377  24.197  -7.233  0.00  0.00    +0.111 A 
ENDBRANCH   4   3
ENDBRANCH  10   9
BRANCH  12  13
ATOM     13  N   UNL     1      61.763  24.569   1.871  0.00  0.00    -0.281 N 
ATOM     14  C   UNL     1      61.188  23.419   1.357  0.00  0.00    +0.248 C 
ATOM     30  O   UNL     1      61.667  22.751   0.453  0.00  0.00    -0.270 OA
ATOM     31  H   UNL     1      61.170  25.133   2.481  0.00  0.00    +0.155 HD
BRANCH  14  15
ATOM     15  C   UNL     1      59.885  22.950   1.919  0.00  0.00    +0.037 A 
ATOM     16  C   UNL     1      58.784  23.884   2.168  0.00  0.00    +0.013 A 
ATOM     17  C   UNL     1      57.544  23.408   2.727  0.00  0.00    +0.005 A 
ATOM     18  C   UNL     1      57.397  21.988   3.039  0.00  0.00    -0.033 A 
ATOM     28  C   UNL     1      58.503  21.083   2.778  0.00  0.00    +0.005 A 
ATOM     29  C   UNL     1      59.721  21.546   2.231  0.00  0.00    +0.013 A 
BRANCH  18  19
ATOM     19  C   UNL     1      56.117  21.396   3.658  0.00  0.00    +0.119 C 
BRANCH  19  20
ATOM     20  N   UNL     1      55.433  22.199   4.715  0.00  0.00    -0.302 NA
ATOM     21  C   UNL     1      55.652  21.614   6.113  0.00  0.00    +0.066 C 
ATOM     22  C   UNL     1      54.949  22.479   7.209  0.00  0.00    -0.064 C 
ATOM     23  N   UNL     1      53.456  22.582   6.893  0.00  0.00    +0.379 N 
ATOM     24  C   UNL     1      52.782  23.346   7.953  0.00  0.00    -0.096 C 
ATOM     25  H   UNL     1      53.037  21.549   6.902  0.00  0.00    -0.082 HD
ATOM     26  C   UNL     1      53.228  23.160   5.504  0.00  0.00    -0.064 C 
ATOM     27  C   UNL     1      53.956  22.310   4.425  0.00  0.00    +0.066 C 
ENDBRANCH  19  20
ENDBRANCH  18  19
ENDBRANCH  14  15
ENDBRANCH  12  13
TORSDOF 6
ENDMDL
MODEL 4
REMARK VINA RESULT:      -7.7     48.737     52.600
REMARK  Name = C:\Users\Docking\Desktop\test protocol\1iep_ligandH.pdb
REMARK  8 active torsions:
REMARK  status: ('A' for Active; 'I' for Inactive)
REMARK    1  A    between atoms: _5  and  _11
REMARK    2  A    between atoms: _19  and  _21
REMARK    3  A    between atoms: _22  and  _66
REMARK    4  A    between atoms: _27  and  _30
REMARK    5  A    between atoms: _32  and  _33
REMARK    6  A    between atoms: _38  and  _43
REMARK    7  A    between atoms: _43  and  _46
REMARK    8  A    between atoms: _53  and  _55
REMARK                            x       y       z     vdW  Elec       q    Type
REMARK                         _______ _______ _______ _____ _____    ______ ____
ROOT
ATOM     10  C   UNL     1      25.815  27.286  -0.175  0.00  0.00    +0.038 A 
ATOM     11  C   UNL     1      24.748  27.534   0.726  0.00  0.00    +0.047 A 
ATOM     12  C   UNL     1      23.466  26.863   0.577  0.00  0.00    +0.035 A 
ATOM     32  C   UNL     1      23.306  25.943  -0.500  0.00  0.00    +0.024 A 
ATOM     33  C   UNL     1      24.380  25.680  -1.426  0.00  0.00    +0.007 A 
ATOM     34  C   UNL     1      25.646  26.341  -1.285  0.00  0.00    -0.029 A 
ATOM     35  C   UNL     1      26.759  26.025  -2.311  0.00  0.00    +0.045 C 
ENDROOT
BRANCH  10   9
ATOM      4  C   UNL     1      28.917  30.795  -1.224  0.00  0.00    +0.077 A 
ATOM      5  C   UNL     1      28.069  31.317  -2.257  0.00  0.00    +0.048 A 
ATOM      6  C   UNL     1      26.846  30.650  -2.491  0.00  0.00    +0.116 A 
ATOM      7  N   UNL     1      26.507  29.543  -1.742  0.00  0.00    -0.223 NA
ATOM      8  C   UNL     1      27.349  29.065  -0.756  0.00  0.00    +0.220 A 
ATOM      9  N   UNL     1      27.024  27.958   0.015  0.00  0.00    -0.283 N 
ATOM     36  H   UNL     1      27.676  27.632   0.728  0.00  0.00    +0.155 HD
ATOM     37  N   UNL     1      28.523  29.684  -0.513  0.00  0.00    -0.214 NA
BRANCH   4   3
ATOM      1  C   UNL     1      32.473  31.330   0.315  0.00  0.00    +0.020 A 
ATOM      2  C   UNL     1      31.210  30.709  -0.010  0.00  0.00    +0.013 A 
ATOM      3  C   UNL     1      30.240  31.392  -0.856  0.00  0.00    +0.019 A 
ATOM     38  C   UNL     1      30.582  32.713  -1.362  0.00  0.00    +0.120 A 
ATOM     39  N   UNL     1      31.805  33.287  -1.031  0.00  0.00    -0.263 NA
ATOM     40  C   UNL     1      32.746  32.640  -0.216  0.00  0.00    +0.111 A 
ENDBRANCH   4   3
ENDBRANCH  10   9
BRANCH  12  13
ATOM     13  N   UNL     1      22.344  27.080   1.456  0.00  0.00    -0.281 N 
ATOM     14  C   UNL     1      21.036  27.377   1.110  0.00  0.00    +0.248 C 
ATOM     30  O   UNL     1      20.676  27.712  -0.008  0.00  0.00    -0.270 OA
ATOM     31  H   UNL     1      22.538  27.007   2.455  0.00  0.00    +0.155 HD
BRANCH  14  15
ATOM     15  C   UNL     1      19.977  27.304   2.162  0.00  0.00    +0.037 A 
ATOM     16  C   UNL     1      18.818  26.419   2.014  0.00  0.00    +0.013 A 
ATOM     17  C   UNL     1      17.802  26.381   3.036  0.00  0.00    +0.005 A 
ATOM     18  C   UNL     1      17.942  27.230   4.217  0.00  0.00    -0.033 A 
ATOM     28  C   UNL     1      19.104  28.094   4.341  0.00  0.00    +0.005 A 
ATOM     29  C   UNL     1      20.101  28.135   3.341  0.00  0.00    +0.013 A 
BRANCH  18  19
ATOM     19  C   UNL     1      16.896  27.270   5.347  0.00  0.00    +0.119 C 
BRANCH  19  20
ATOM     20  N   UNL     1      17.346  26.858   6.710  0.00  0.00    -0.302 NA
ATOM     21  C   UNL     1      17.452  25.336   6.844  0.00  0.00    +0.066 C 
ATOM     22  C   UNL     1      17.945  24.924   8.269  0.00  0.00    -0.064 C 
ATOM     23  N   UNL     1      16.993  25.495   9.321  0.00  0.00    +0.379 N 
ATOM     24  C   UNL     1      17.422  25.061  10.659  0.00  0.00    -0.096 C 
ATOM     25  H   UNL     1      15.983  25.064   9.133  0.00  0.00    -0.082 HD
ATOM     26  C   UNL     1      16.880  27.008   9.193  0.00  0.00    -0.064 C 
ATOM     27  C   UNL     1      16.417  27.408   7.764  0.00  0.00    +0.066 C 
ENDBRANCH  19  20
ENDBRANCH  18  19
ENDBRANCH  14  15
ENDBRANCH  12  13
TORSDOF 6
ENDMDL
MODEL 5
REMARK VINA RESULT:      -7.7     23.664     26.033
REMARK  Name = C:\Users\Docking\Desktop\test protocol\1iep_ligandH.pdb
REMARK  8 active torsions:
REMARK  status: ('A' for Active; 'I' for Inactive)
REMARK    1  A    between atoms: _5  and  _11
REMARK    2  A    between atoms: _19  and  _21
REMARK    3  A    between atoms: _22  and  _66
REMARK    4  A    between atoms: _27  and  _30
REMARK    5  A    between atoms: _32  and  _33
REMARK    6  A    between atoms: _38  and  _43
REMARK    7  A    between atoms: _43  and  _46
REMARK    8  A    between atoms: _53  and  _55
REMARK                            x       y       z     vdW  Elec       q    Type
REMARK                         _______ _______ _______ _____ _____    ______ ____
ROOT
ATOM     10  C   UNL     1      42.557  35.674  23.916  0.00  0.00    +0.038 A 
ATOM     11  C   UNL     1      42.582  34.781  22.815  0.00  0.00    +0.047 A 
ATOM     12  C   UNL     1      42.383  33.352  23.001  0.00  0.00    +0.035 A 
ATOM     32  C   UNL     1      42.158  32.867  24.323  0.00  0.00    +0.024 A 
ATOM     33  C   UNL     1      42.131  33.762  25.454  0.00  0.00    +0.007 A 
ATOM     34  C   UNL     1      42.329  35.172  25.277  0.00  0.00    -0.029 A 
ATOM     35  C   UNL     1      42.296  36.083  26.526  0.00  0.00    +0.045 C 
ENDROOT
BRANCH  10   9
ATOM      4  C   UNL     1      40.918  40.091  22.996  0.00  0.00    +0.077 A 
ATOM      5  C   UNL     1      39.556  39.641  22.955  0.00  0.00    +0.048 A 
ATOM      6  C   UNL     1      39.321  38.264  23.170  0.00  0.00    +0.116 A 
ATOM      7  N   UNL     1      40.376  37.410  23.406  0.00  0.00    -0.223 NA
ATOM      8  C   UNL     1      41.678  37.876  23.436  0.00  0.00    +0.220 A 
ATOM      9  N   UNL     1      42.754  37.037  23.680  0.00  0.00    -0.283 N 
ATOM     36  H   UNL     1      43.699  37.418  23.687  0.00  0.00    +0.155 HD
ATOM     37  N   UNL     1      41.929  39.186  23.233  0.00  0.00    -0.214 NA
BRANCH   4   3
ATOM      1  C   UNL     1      42.750  43.532  23.320  0.00  0.00    +0.020 A 
ATOM      2  C   UNL     1      42.393  42.152  23.556  0.00  0.00    +0.013 A 
ATOM      3  C   UNL     1      41.327  41.516  22.792  0.00  0.00    +0.019 A 
ATOM     38  C   UNL     1      40.638  42.311  21.786  0.00  0.00    +0.120 A 
ATOM     39  N   UNL     1      41.002  43.638  21.582  0.00  0.00    -0.263 NA
ATOM     40  C   UNL     1      42.025  44.261  22.313  0.00  0.00    +0.111 A 
ENDBRANCH   4   3
ENDBRANCH  10   9
BRANCH  12  13
ATOM     13  N   UNL     1      42.405  32.395  21.923  0.00  0.00    -0.281 N 
ATOM     14  C   UNL     1      43.503  31.743  21.385  0.00  0.00    +0.248 C 
ATOM     30  O   UNL     1      44.665  32.046  21.611  0.00  0.00    -0.270 OA
ATOM     31  H   UNL     1      41.502  32.172  21.504  0.00  0.00    +0.155 HD
BRANCH  14  15
ATOM     15  C   UNL     1      43.277  30.599  20.451  0.00  0.00    +0.037 A 
ATOM     16  C   UNL     1      44.286  30.217  19.459  0.00  0.00    +0.013 A 
ATOM     17  C   UNL     1      44.035  29.120  18.559  0.00  0.00    +0.005 A 
ATOM     18  C   UNL     1      42.770  28.395  18.647  0.00  0.00    -0.033 A 
ATOM     28  C   UNL     1      41.789  28.791  19.644  0.00  0.00    +0.005 A 
ATOM     29  C   UNL     1      42.031  29.867  20.528  0.00  0.00    +0.013 A 
BRANCH  18  19
ATOM     19  C   UNL     1      42.409  27.225  17.713  0.00  0.00    +0.119 C 
BRANCH  19  20
ATOM     20  N   UNL     1      42.074  27.559  16.296  0.00  0.00    -0.302 NA
ATOM     21  C   UNL     1      40.596  27.918  16.125  0.00  0.00    +0.066 C 
ATOM     22  C   UNL     1      40.268  28.287  14.641  0.00  0.00    -0.064 C 
ATOM     23  N   UNL     1      40.650  27.118  13.732  0.00  0.00    +0.379 N 
ATOM     24  C   UNL     1      40.290  27.439  12.343  0.00  0.00    -0.096 C 
ATOM     25  H   UNL     1      40.045  26.235  14.043  0.00  0.00    -0.082 HD
ATOM     26  C   UNL     1      42.119  26.752  13.898  0.00  0.00    -0.064 C 
ATOM     27  C   UNL     1      42.440  26.416  15.381  0.00  0.00    +0.066 C 
ENDBRANCH  19  20
ENDBRANCH  18  19
ENDBRANCH  14  15
ENDBRANCH  12  13
TORSDOF 6
ENDMDL
