MODEL 1
REMARK VINA RESULT:      -8.2      0.000      0.000
REMARK  Name = C:\Users\Docking\Desktop\test protocol\1iep_ligandH.pdb
REMARK  8 active torsions:
REMARK  status: ('A' for Active; 'I' for Inactive)
REMARK    1  A    between atoms: _5  and  _11
REMARK    2  A    between atoms: _19  and  _21
REMARK    3  A    between atoms: _22  and  _66
REMARK    4  A    between atoms: _27  and  _30
REMARK    5  A    between atoms: _32  and  _33
REMARK    6  A    between atoms: _38  and  _43
REMARK    7  A    between atoms: _43  and  _46
REMARK    8  A    between atoms: _53  and  _55
REMARK                            x       y       z     vdW  Elec       q    Type
REMARK                         _______ _______ _______ _____ _____    ______ ____
ROOT
ATOM     10  C   UNL     1     -13.967  -8.241   0.040  0.00  0.00    +0.038 A 
ATOM     11  C   UNL     1     -12.595  -7.881   0.077  0.00  0.00    +0.047 A 
ATOM     12  C   UNL     1     -11.822  -7.988   1.304  0.00  0.00    +0.035 A 
ATOM     32  C   UNL     1     -12.477  -8.467   2.476  0.00  0.00    +0.024 A 
ATOM     33  C   UNL     1     -13.871  -8.836   2.457  0.00  0.00    +0.007 A 
ATOM     34  C   UNL     1     -14.639  -8.730   1.250  0.00  0.00    -0.029 A 
ATOM     35  C   UNL     1     -16.132  -9.133   1.289  0.00  0.00    +0.045 C 
ENDROOT
BRANCH  10   9
ATOM      4  C   UNL     1     -15.531 -10.004  -4.141  0.00  0.00    +0.077 A 
ATOM      5  C   UNL     1     -14.888 -11.266  -3.917  0.00  0.00    +0.048 A 
ATOM      6  C   UNL     1     -14.159 -11.419  -2.716  0.00  0.00    +0.116 A 
ATOM      7  N   UNL     1     -14.085 -10.380  -1.814  0.00  0.00    -0.223 NA
ATOM      8  C   UNL     1     -14.715  -9.174  -2.062  0.00  0.00    +0.220 A 
ATOM      9  N   UNL     1     -14.661  -8.118  -1.165  0.00  0.00    -0.283 N 
ATOM     36  H   UNL     1     -15.133  -7.243  -1.389  0.00  0.00    +0.155 HD
ATOM     37  N   UNL     1     -15.417  -9.003  -3.202  0.00  0.00    -0.214 NA
BRANCH   4   3
ATOM      1  C   UNL     1     -16.569  -9.029  -7.784  0.00  0.00    +0.020 A 
ATOM      2  C   UNL     1     -15.741  -9.322  -6.637  0.00  0.00    +0.013 A 
ATOM      3  C   UNL     1     -16.341  -9.690  -5.360  0.00  0.00    +0.019 A 
ATOM     38  C   UNL     1     -17.792  -9.754  -5.278  0.00  0.00    +0.120 A 
ATOM     39  N   UNL     1     -18.564  -9.465  -6.400  0.00  0.00    -0.263 NA
ATOM     40  C   UNL     1     -17.998  -9.108  -7.633  0.00  0.00    +0.111 A 
ENDBRANCH   4   3
ENDBRANCH  10   9
BRANCH  12  13
ATOM     13  N   UNL     1     -10.429  -7.630   1.404  0.00  0.00    -0.281 N 
ATOM     14  C   UNL     1      -9.390  -8.008   0.568  0.00  0.00    +0.248 C 
ATOM     30  O   UNL     1      -9.468  -8.890  -0.274  0.00  0.00    -0.270 OA
ATOM     31  H   UNL     1     -10.177  -7.025   2.186  0.00  0.00    +0.155 HD
BRANCH  14  15
ATOM     15  C   UNL     1      -8.072  -7.317   0.697  0.00  0.00    +0.037 A 
ATOM     16  C   UNL     1      -7.756  -6.493   1.867  0.00  0.00    +0.013 A 
ATOM     17  C   UNL     1      -6.483  -5.823   1.958  0.00  0.00    +0.005 A 
ATOM     18  C   UNL     1      -5.515  -5.976   0.875  0.00  0.00    -0.033 A 
ATOM     28  C   UNL     1      -5.852  -6.802  -0.272  0.00  0.00    +0.005 A 
ATOM     29  C   UNL     1      -7.099  -7.460  -0.365  0.00  0.00    +0.013 A 
BRANCH  18  19
ATOM     19  C   UNL     1      -4.141  -5.280   0.878  0.00  0.00    +0.119 C 
BRANCH  19  20
ATOM     20  N   UNL     1      -2.931  -6.156   0.863  0.00  0.00    -0.302 NA
ATOM     21  C   UNL     1      -3.096  -7.379   1.770  0.00  0.00    +0.066 C 
ATOM     22  C   UNL     1      -1.831  -8.296   1.725  0.00  0.00    -0.064 C 
ATOM     23  N   UNL     1      -0.600  -7.482   2.131  0.00  0.00    +0.379 N 
ATOM     24  C   UNL     1       0.582  -8.356   2.147  0.00  0.00    -0.096 C 
ATOM     25  H   UNL     1      -0.765  -7.117   3.172  0.00  0.00    -0.082 HD
ATOM     26  C   UNL     1      -0.430  -6.263   1.236  0.00  0.00    -0.064 C 
ATOM     27  C   UNL     1      -1.705  -5.374   1.265  0.00  0.00    +0.066 C 
ENDBRANCH  19  20
ENDBRANCH  18  19
ENDBRANCH  14  15
ENDBRANCH  12  13
TORSDOF 6
ENDMDL
MODEL 2
REMARK VINA RESULT:      -8.2      3.520     15.089
REMARK  Name = C:\Users\Docking\Desktop\test protocol\1iep_ligandH.pdb
REMARK  8 active torsions:
REMARK  status: ('A' for Active; 'I' for Inactive)
REMARK    1  A    between atoms: _5  and  _11
REMARK    2  A    between atoms: _19  and  _21
REMARK    3  A    between atoms: _22  and  _66
REMARK    4  A    between atoms: _27  and  _30
REMARK    5  A    between atoms: _32  and  _33
REMARK    6  A    between atoms: _38  and  _43
REMARK    7  A    between atoms: _43  and  _46
REMARK    8  A    between atoms: _53  and  _55
REMARK                            x       y       z     vdW  Elec       q    Type
REMARK                         _______ _______ _______ _____ _____    ______ ____
ROOT
ATOM     10  C   UNL     1       0.107  -7.806   0.202  0.00  0.00    +0.038 A 
ATOM     11  C   UNL     1      -1.198  -7.763   0.756  0.00  0.00    +0.047 A 
ATOM     12  C   UNL     1      -2.365  -7.537  -0.084  0.00  0.00    +0.035 A 
ATOM     32  C   UNL     1      -2.165  -7.361  -1.484  0.00  0.00    +0.024 A 
ATOM     33  C   UNL     1      -0.845  -7.400  -2.063  0.00  0.00    +0.007 A 
ATOM     34  C   UNL     1       0.309  -7.620  -1.240  0.00  0.00    -0.029 A 
ATOM     35  C   UNL     1       1.701  -7.646  -1.914  0.00  0.00    +0.045 C 
ENDROOT
BRANCH  10   9
ATOM      4  C   UNL     1       3.231 -10.700   2.416  0.00  0.00    +0.077 A 
ATOM      5  C   UNL     1       2.636 -11.875   1.847  0.00  0.00    +0.048 A 
ATOM      6  C   UNL     1       1.523 -11.691   0.996  0.00  0.00    +0.116 A 
ATOM      7  N   UNL     1       1.050 -10.423   0.739  0.00  0.00    -0.223 NA
ATOM      8  C   UNL     1       1.646  -9.311   1.305  0.00  0.00    +0.220 A 
ATOM      9  N   UNL     1       1.191  -8.026   1.055  0.00  0.00    -0.283 N 
ATOM     36  H   UNL     1       1.653  -7.232   1.498  0.00  0.00    +0.155 HD
ATOM     37  N   UNL     1       2.708  -9.460   2.123  0.00  0.00    -0.214 NA
BRANCH   4   3
ATOM      1  C   UNL     1       6.576  -9.784   4.224  0.00  0.00    +0.020 A 
ATOM      2  C   UNL     1       5.454  -9.709   3.317  0.00  0.00    +0.013 A 
ATOM      3  C   UNL     1       4.414 -10.730   3.333  0.00  0.00    +0.019 A 
ATOM     38  C   UNL     1       4.541 -11.822   4.285  0.00  0.00    +0.120 A 
ATOM     39  N   UNL     1       5.633 -11.870   5.145  0.00  0.00    -0.263 NA
ATOM     40  C   UNL     1       6.641 -10.893   5.139  0.00  0.00    +0.111 A 
ENDBRANCH   4   3
ENDBRANCH  10   9
BRANCH  12  13
ATOM     13  N   UNL     1      -3.713  -7.475   0.422  0.00  0.00    -0.281 N 
ATOM     14  C   UNL     1      -4.484  -6.349   0.658  0.00  0.00    +0.248 C 
ATOM     30  O   UNL     1      -4.051  -5.206   0.671  0.00  0.00    -0.270 OA
ATOM     31  H   UNL     1      -4.153  -8.371   0.632  0.00  0.00    +0.155 HD
BRANCH  14  15
ATOM     15  C   UNL     1      -5.943  -6.517   0.935  0.00  0.00    +0.037 A 
ATOM     16  C   UNL     1      -6.802  -7.292   0.036  0.00  0.00    +0.013 A 
ATOM     17  C   UNL     1      -8.210  -7.424   0.316  0.00  0.00    +0.005 A 
ATOM     18  C   UNL     1      -8.767  -6.780   1.503  0.00  0.00    -0.033 A 
ATOM     28  C   UNL     1      -7.891  -6.021   2.381  0.00  0.00    +0.005 A 
ATOM     29  C   UNL     1      -6.511  -5.889   2.109  0.00  0.00    +0.013 A 
BRANCH  18  19
ATOM     19  C   UNL     1     -10.261  -6.850   1.870  0.00  0.00    +0.119 C 
BRANCH  19  20
ATOM     20  N   UNL     1     -11.072  -7.928   1.229  0.00  0.00    -0.302 NA
ATOM     21  C   UNL     1     -11.729  -7.457  -0.072  0.00  0.00    +0.066 C 
ATOM     22  C   UNL     1     -12.555  -8.604  -0.740  0.00  0.00    -0.064 C 
ATOM     23  N   UNL     1     -13.609  -9.111   0.246  0.00  0.00    +0.379 N 
ATOM     24  C   UNL     1     -14.425 -10.150  -0.399  0.00  0.00    -0.096 C 
ATOM     25  H   UNL     1     -14.281  -8.256   0.491  0.00  0.00    -0.082 HD
ATOM     26  C   UNL     1     -12.965  -9.579   1.544  0.00  0.00    -0.064 C 
ATOM     27  C   UNL     1     -12.122  -8.440   2.184  0.00  0.00    +0.066 C 
ENDBRANCH  19  20
ENDBRANCH  18  19
ENDBRANCH  14  15
ENDBRANCH  12  13
TORSDOF 6
ENDMDL
MODEL 3
REMARK VINA RESULT:      -7.9      6.374     17.876
REMARK  Name = C:\Users\Docking\Desktop\test protocol\1iep_ligandH.pdb
REMARK  8 active torsions:
REMARK  status: ('A' for Active; 'I' for Inactive)
REMARK    1  A    between atoms: _5  and  _11
REMARK    2  A    between atoms: _19  and  _21
REMARK    3  A    between atoms: _22  and  _66
REMARK    4  A    between atoms: _27  and  _30
REMARK    5  A    between atoms: _32  and  _33
REMARK    6  A    between atoms: _38  and  _43
REMARK    7  A    between atoms: _43  and  _46
REMARK    8  A    between atoms: _53  and  _55
REMARK                            x       y       z     vdW  Elec       q    Type
REMARK                         _______ _______ _______ _____ _____    ______ ____
ROOT
ATOM     10  C   UNL     1       4.935  -9.670   3.958  0.00  0.00    +0.038 A 
ATOM     11  C   UNL     1       3.906  -8.956   3.293  0.00  0.00    +0.047 A 
ATOM     12  C   UNL     1       2.530  -9.010   3.760  0.00  0.00    +0.035 A 
ATOM     32  C   UNL     1       2.237  -9.801   4.910  0.00  0.00    +0.024 A 
ATOM     33  C   UNL     1       3.271 -10.534   5.597  0.00  0.00    +0.007 A 
ATOM     34  C   UNL     1       4.630 -10.486   5.140  0.00  0.00    -0.029 A 
ATOM     35  C   UNL     1       5.697 -11.297   5.912  0.00  0.00    +0.045 C 
ENDROOT
BRANCH  10   9
ATOM      4  C   UNL     1       8.501 -11.179   1.122  0.00  0.00    +0.077 A 
ATOM      5  C   UNL     1       7.707 -12.251   0.594  0.00  0.00    +0.048 A 
ATOM      6  C   UNL     1       6.388 -12.383   1.084  0.00  0.00    +0.116 A 
ATOM      7  N   UNL     1       5.910 -11.504   2.031  0.00  0.00    -0.223 NA
ATOM      8  C   UNL     1       6.703 -10.482   2.520  0.00  0.00    +0.220 A 
ATOM      9  N   UNL     1       6.240  -9.581   3.467  0.00  0.00    -0.283 N 
ATOM     36  H   UNL     1       6.858  -8.846   3.808  0.00  0.00    +0.155 HD
ATOM     37  N   UNL     1       7.966 -10.335   2.069  0.00  0.00    -0.214 NA
BRANCH   4   3
ATOM      1  C   UNL     1      12.138  -9.748   0.959  0.00  0.00    +0.020 A 
ATOM      2  C   UNL     1      10.783  -9.975   1.407  0.00  0.00    +0.013 A 
ATOM      3  C   UNL     1       9.912 -10.906   0.701  0.00  0.00    +0.019 A 
ATOM     38  C   UNL     1      10.447 -11.598  -0.462  0.00  0.00    +0.120 A 
ATOM     39  N   UNL     1      11.755 -11.359  -0.870  0.00  0.00    -0.263 NA
ATOM     40  C   UNL     1      12.602 -10.463  -0.200  0.00  0.00    +0.111 A 
ENDBRANCH   4   3
ENDBRANCH  10   9
BRANCH  12  13
ATOM     13  N   UNL     1       1.441  -8.313   3.121  0.00  0.00    -0.281 N 
ATOM     14  C   UNL     1       0.555  -8.802   2.175  0.00  0.00    +0.248 C 
ATOM     30  O   UNL     1       0.698  -9.856   1.574  0.00  0.00    -0.270 OA
ATOM     31  H   UNL     1       1.308  -7.341   3.400  0.00  0.00    +0.155 HD
BRANCH  14  15
ATOM     15  C   UNL     1      -0.657  -7.996   1.837  0.00  0.00    +0.037 A 
ATOM     16  C   UNL     1      -0.551  -6.586   1.455  0.00  0.00    +0.013 A 
ATOM     17  C   UNL     1      -1.738  -5.827   1.151  0.00  0.00    +0.005 A 
ATOM     18  C   UNL     1      -3.043  -6.479   1.226  0.00  0.00    -0.033 A 
ATOM     28  C   UNL     1      -3.120  -7.881   1.602  0.00  0.00    +0.005 A 
ATOM     29  C   UNL     1      -1.958  -8.627   1.902  0.00  0.00    +0.013 A 
BRANCH  18  19
ATOM     19  C   UNL     1      -4.364  -5.741   0.939  0.00  0.00    +0.119 C 
BRANCH  19  20
ATOM     20  N   UNL     1      -5.631  -6.431   1.326  0.00  0.00    -0.302 NA
ATOM     21  C   UNL     1      -6.435  -6.884   0.104  0.00  0.00    +0.066 C 
ATOM     22  C   UNL     1      -7.746  -7.624   0.528  0.00  0.00    -0.064 C 
ATOM     23  N   UNL     1      -8.584  -6.703   1.416  0.00  0.00    +0.379 N 
ATOM     24  C   UNL     1      -9.843  -7.374   1.768  0.00  0.00    -0.096 C 
ATOM     25  H   UNL     1      -8.838  -5.797   0.818  0.00  0.00    -0.082 HD
ATOM     26  C   UNL     1      -7.791  -6.245   2.632  0.00  0.00    -0.064 C 
ATOM     27  C   UNL     1      -6.476  -5.537   2.200  0.00  0.00    +0.066 C 
ENDBRANCH  19  20
ENDBRANCH  18  19
ENDBRANCH  14  15
ENDBRANCH  12  13
TORSDOF 6
ENDMDL
MODEL 4
REMARK VINA RESULT:      -7.5      9.379     18.010
REMARK  Name = C:\Users\Docking\Desktop\test protocol\1iep_ligandH.pdb
REMARK  8 active torsions:
REMARK  status: ('A' for Active; 'I' for Inactive)
REMARK    1  A    between atoms: _5  and  _11
REMARK    2  A    between atoms: _19  and  _21
REMARK    3  A    between atoms: _22  and  _66
REMARK    4  A    between atoms: _27  and  _30
REMARK    5  A    between atoms: _32  and  _33
REMARK    6  A    between atoms: _38  and  _43
REMARK    7  A    between atoms: _43  and  _46
REMARK    8  A    between atoms: _53  and  _55
REMARK                            x       y       z     vdW  Elec       q    Type
REMARK                         _______ _______ _______ _____ _____    ______ ____
ROOT
ATOM     10  C   UNL     1       5.222  -9.703   4.008  0.00  0.00    +0.038 A 
ATOM     11  C   UNL     1       4.249  -8.974   3.278  0.00  0.00    +0.047 A 
ATOM     12  C   UNL     1       2.855  -8.955   3.693  0.00  0.00    +0.035 A 
ATOM     32  C   UNL     1       2.488  -9.689   4.859  0.00  0.00    +0.024 A 
ATOM     33  C   UNL     1       3.464 -10.436   5.612  0.00  0.00    +0.007 A 
ATOM     34  C   UNL     1       4.840 -10.461   5.206  0.00  0.00    -0.029 A 
ATOM     35  C   UNL     1       5.842 -11.284   6.047  0.00  0.00    +0.045 C 
ENDROOT
BRANCH  10   9
ATOM      4  C   UNL     1       8.713 -11.150   1.048  0.00  0.00    +0.077 A 
ATOM      5  C   UNL     1       7.831 -12.034   0.343  0.00  0.00    +0.048 A 
ATOM      6  C   UNL     1       6.488 -12.093   0.778  0.00  0.00    +0.116 A 
ATOM      7  N   UNL     1       6.070 -11.320   1.840  0.00  0.00    -0.223 NA
ATOM      8  C   UNL     1       6.947 -10.479   2.499  0.00  0.00    +0.220 A 
ATOM      9  N   UNL     1       6.547  -9.687   3.564  0.00  0.00    -0.283 N 
ATOM     36  H   UNL     1       7.226  -9.085   4.029  0.00  0.00    +0.155 HD
ATOM     37  N   UNL     1       8.235 -10.406   2.104  0.00  0.00    -0.214 NA
BRANCH   4   3
ATOM      1  C   UNL     1      12.355 -11.805  -0.222  0.00  0.00    +0.020 A 
ATOM      2  C   UNL     1      10.961 -12.026   0.089  0.00  0.00    +0.013 A 
ATOM      3  C   UNL     1      10.160 -10.975   0.705  0.00  0.00    +0.019 A 
ATOM     38  C   UNL     1      10.805  -9.703   0.995  0.00  0.00    +0.120 A 
ATOM     39  N   UNL     1      12.149  -9.520   0.685  0.00  0.00    -0.263 NA
ATOM     40  C   UNL     1      12.930 -10.524   0.094  0.00  0.00    +0.111 A 
ENDBRANCH   4   3
ENDBRANCH  10   9
BRANCH  12  13
ATOM     13  N   UNL     1       1.822  -8.240   2.987  0.00  0.00    -0.281 N 
ATOM     14  C   UNL     1       0.821  -8.761   2.184  0.00  0.00    +0.248 C 
ATOM     30  O   UNL     1       0.792  -9.913   1.776  0.00  0.00    -0.270 OA
ATOM     31  H   UNL     1       1.828  -7.225   3.093  0.00  0.00    +0.155 HD
BRANCH  14  15
ATOM     15  C   UNL     1      -0.303  -7.871   1.760  0.00  0.00    +0.037 A 
ATOM     16  C   UNL     1      -0.054  -6.509   1.283  0.00  0.00    +0.013 A 
ATOM     17  C   UNL     1      -1.157  -5.665   0.896  0.00  0.00    +0.005 A 
ATOM     18  C   UNL     1      -2.520  -6.184   0.984  0.00  0.00    -0.033 A 
ATOM     28  C   UNL     1      -2.738  -7.541   1.457  0.00  0.00    +0.005 A 
ATOM     29  C   UNL     1      -1.659  -8.370   1.837  0.00  0.00    +0.013 A 
BRANCH  18  19
ATOM     19  C   UNL     1      -3.759  -5.347   0.613  0.00  0.00    +0.119 C 
BRANCH  19  20
ATOM     20  N   UNL     1      -3.944  -5.001  -0.828  0.00  0.00    -0.302 NA
ATOM     21  C   UNL     1      -3.796  -6.225  -1.736  0.00  0.00    +0.066 C 
ATOM     22  C   UNL     1      -4.015  -5.850  -3.238  0.00  0.00    -0.064 C 
ATOM     23  N   UNL     1      -3.022  -4.756  -3.637  0.00  0.00    +0.379 N 
ATOM     24  C   UNL     1      -3.186  -4.442  -5.063  0.00  0.00    -0.096 C 
ATOM     25  H   UNL     1      -1.995  -5.165  -3.496  0.00  0.00    -0.082 HD
ATOM     26  C   UNL     1      -3.161  -3.536  -2.737  0.00  0.00    -0.064 C 
ATOM     27  C   UNL     1      -2.971  -3.926  -1.244  0.00  0.00    +0.066 C 
ENDBRANCH  19  20
ENDBRANCH  18  19
ENDBRANCH  14  15
ENDBRANCH  12  13
TORSDOF 6
ENDMDL
MODEL 5
REMARK VINA RESULT:      -7.4      1.621      2.173
REMARK  Name = C:\Users\Docking\Desktop\test protocol\1iep_ligandH.pdb
REMARK  8 active torsions:
REMARK  status: ('A' for Active; 'I' for Inactive)
REMARK    1  A    between atoms: _5  and  _11
REMARK    2  A    between atoms: _19  and  _21
REMARK    3  A    between atoms: _22  and  _66
REMARK    4  A    between atoms: _27  and  _30
REMARK    5  A    between atoms: _32  and  _33
REMARK    6  A    between atoms: _38  and  _43
REMARK    7  A    between atoms: _43  and  _46
REMARK    8  A    between atoms: _53  and  _55
REMARK                            x       y       z     vdW  Elec       q    Type
REMARK                         _______ _______ _______ _____ _____    ______ ____
ROOT
ATOM     10  C   UNL     1     -13.278  -9.428   0.516  0.00  0.00    +0.038 A 
ATOM     11  C   UNL     1     -12.087  -8.721   0.213  0.00  0.00    +0.047 A 
ATOM     12  C   UNL     1     -10.824  -9.068   0.845  0.00  0.00    +0.035 A 
ATOM     32  C   UNL     1     -10.809 -10.145   1.779  0.00  0.00    +0.024 A 
ATOM     33  C   UNL     1     -12.011 -10.874   2.100  0.00  0.00    +0.007 A 
ATOM     34  C   UNL     1     -13.260 -10.534   1.482  0.00  0.00    -0.029 A 
ATOM     35  C   UNL     1     -14.519 -11.346   1.868  0.00  0.00    +0.045 C 
ENDROOT
BRANCH  10   9
ATOM      4  C   UNL     1     -16.454  -9.776  -3.066  0.00  0.00    +0.077 A 
ATOM      5  C   UNL     1     -15.672 -10.772  -3.741  0.00  0.00    +0.048 A 
ATOM      6  C   UNL     1     -14.456 -11.162  -3.137  0.00  0.00    +0.116 A 
ATOM      7  N   UNL     1     -14.061 -10.592  -1.946  0.00  0.00    -0.223 NA
ATOM      8  C   UNL     1     -14.837  -9.633  -1.322  0.00  0.00    +0.220 A 
ATOM      9  N   UNL     1     -14.463  -9.052  -0.120  0.00  0.00    -0.283 N 
ATOM     36  H   UNL     1     -15.060  -8.343   0.304  0.00  0.00    +0.155 HD
ATOM     37  N   UNL     1     -16.002  -9.243  -1.880  0.00  0.00    -0.214 NA
BRANCH   4   3
ATOM      1  C   UNL     1     -20.262  -8.955  -3.414  0.00  0.00    +0.020 A 
ATOM      2  C   UNL     1     -19.025  -9.473  -2.877  0.00  0.00    +0.013 A 
ATOM      3  C   UNL     1     -17.764  -9.263  -3.577  0.00  0.00    +0.019 A 
ATOM     38  C   UNL     1     -17.790  -8.518  -4.827  0.00  0.00    +0.120 A 
ATOM     39  N   UNL     1     -18.997  -8.033  -5.321  0.00  0.00    -0.263 NA
ATOM     40  C   UNL     1     -20.217  -8.231  -4.657  0.00  0.00    +0.111 A 
ENDBRANCH   4   3
ENDBRANCH  10   9
BRANCH  12  13
ATOM     13  N   UNL     1      -9.584  -8.381   0.582  0.00  0.00    -0.281 N 
ATOM     14  C   UNL     1      -9.130  -7.198   1.144  0.00  0.00    +0.248 C 
ATOM     30  O   UNL     1      -9.822  -6.437   1.804  0.00  0.00    -0.270 OA
ATOM     31  H   UNL     1      -8.965  -8.819  -0.100  0.00  0.00    +0.155 HD
BRANCH  14  15
ATOM     15  C   UNL     1      -7.707  -6.797   0.930  0.00  0.00    +0.037 A 
ATOM     16  C   UNL     1      -6.984  -7.179  -0.286  0.00  0.00    +0.013 A 
ATOM     17  C   UNL     1      -5.606  -6.793  -0.459  0.00  0.00    +0.005 A 
ATOM     18  C   UNL     1      -4.942  -6.018   0.587  0.00  0.00    -0.033 A 
ATOM     28  C   UNL     1      -5.684  -5.648   1.780  0.00  0.00    +0.005 A 
ATOM     29  C   UNL     1      -7.035  -6.025   1.954  0.00  0.00    +0.013 A 
BRANCH  18  19
ATOM     19  C   UNL     1      -3.468  -5.581   0.495  0.00  0.00    +0.119 C 
BRANCH  19  20
ATOM     20  N   UNL     1      -2.440  -6.659   0.400  0.00  0.00    -0.302 NA
ATOM     21  C   UNL     1      -2.348  -7.481   1.689  0.00  0.00    +0.066 C 
ATOM     22  C   UNL     1      -1.284  -8.619   1.564  0.00  0.00    -0.064 C 
ATOM     23  N   UNL     1       0.074  -8.008   1.215  0.00  0.00    +0.379 N 
ATOM     24  C   UNL     1       1.089  -9.069   1.154  0.00  0.00    -0.096 C 
ATOM     25  H   UNL     1       0.356  -7.316   2.043  0.00  0.00    -0.082 HD
ATOM     26  C   UNL     1      -0.008  -7.186  -0.064  0.00  0.00    -0.064 C 
ATOM     27  C   UNL     1      -1.090  -6.077   0.060  0.00  0.00    +0.066 C 
ENDBRANCH  19  20
ENDBRANCH  18  19
ENDBRANCH  14  15
ENDBRANCH  12  13
TORSDOF 6
ENDMDL
