MODEL 1
REMARK VINA RESULT:      -9.0      0.000      0.000
REMARK  Name = C:\Users\Docking\Desktop\test protocol\1iep_ligandH.pdb
REMARK  8 active torsions:
REMARK  status: ('A' for Active; 'I' for Inactive)
REMARK    1  A    between atoms: _5  and  _11
REMARK    2  A    between atoms: _19  and  _21
REMARK    3  A    between atoms: _22  and  _66
REMARK    4  A    between atoms: _27  and  _30
REMARK    5  A    between atoms: _32  and  _33
REMARK    6  A    between atoms: _38  and  _43
REMARK    7  A    between atoms: _43  and  _46
REMARK    8  A    between atoms: _53  and  _55
REMARK                            x       y       z     vdW  Elec       q    Type
REMARK                         _______ _______ _______ _____ _____    ______ ____
ROOT
ATOM     10  C   UNL     1     -15.490  -8.943   0.376  0.00  0.00    +0.038 A 
ATOM     11  C   UNL     1     -14.273  -8.388   0.848  0.00  0.00    +0.047 A 
ATOM     12  C   UNL     1     -13.017  -8.630   0.155  0.00  0.00    +0.035 A 
ATOM     32  C   UNL     1     -13.037  -9.441  -1.017  0.00  0.00    +0.024 A 
ATOM     33  C   UNL     1     -14.264 -10.014  -1.510  0.00  0.00    +0.007 A 
ATOM     34  C   UNL     1     -15.506  -9.780  -0.830  0.00  0.00    -0.029 A 
ATOM     35  C   UNL     1     -16.791 -10.425  -1.400  0.00  0.00    +0.045 C 
ENDROOT
BRANCH  10   9
ATOM      4  C   UNL     1     -18.834 -10.099   3.619  0.00  0.00    +0.077 A 
ATOM      5  C   UNL     1     -18.197 -11.349   3.917  0.00  0.00    +0.048 A 
ATOM      6  C   UNL     1     -17.014 -11.660   3.209  0.00  0.00    +0.116 A 
ATOM      7  N   UNL     1     -16.515 -10.779   2.274  0.00  0.00    -0.223 NA
ATOM      8  C   UNL     1     -17.155  -9.582   2.009  0.00  0.00    +0.220 A 
ATOM      9  N   UNL     1     -16.667  -8.678   1.079  0.00  0.00    -0.283 N 
ATOM     36  H   UNL     1     -17.172  -7.809   0.907  0.00  0.00    +0.155 HD
ATOM     37  N   UNL     1     -18.287  -9.262   2.671  0.00  0.00    -0.214 NA
BRANCH   4   3
ATOM      1  C   UNL     1     -21.324  -8.373   6.093  0.00  0.00    +0.020 A 
ATOM      2  C   UNL     1     -20.084  -8.803   5.488  0.00  0.00    +0.013 A 
ATOM      3  C   UNL     1     -20.088  -9.626   4.286  0.00  0.00    +0.019 A 
ATOM     38  C   UNL     1     -21.373 -10.000   3.715  0.00  0.00    +0.120 A 
ATOM     39  N   UNL     1     -22.551  -9.573   4.321  0.00  0.00    -0.263 NA
ATOM     40  C   UNL     1     -22.560  -8.781   5.479  0.00  0.00    +0.111 A 
ENDBRANCH   4   3
ENDBRANCH  10   9
BRANCH  12  13
ATOM     13  N   UNL     1     -11.749  -8.099   0.592  0.00  0.00    -0.281 N 
ATOM     14  C   UNL     1     -10.720  -8.770   1.233  0.00  0.00    +0.248 C 
ATOM     30  O   UNL     1     -10.822  -9.886   1.722  0.00  0.00    -0.270 OA
ATOM     31  H   UNL     1     -11.591  -7.109   0.406  0.00  0.00    +0.155 HD
BRANCH  14  15
ATOM     15  C   UNL     1      -9.391  -8.100   1.363  0.00  0.00    +0.037 A 
ATOM     16  C   UNL     1      -9.139  -7.108   2.412  0.00  0.00    +0.013 A 
ATOM     17  C   UNL     1      -7.853  -6.464   2.504  0.00  0.00    +0.005 A 
ATOM     18  C   UNL     1      -6.808  -6.810   1.544  0.00  0.00    -0.033 A 
ATOM     28  C   UNL     1      -7.083  -7.801   0.516  0.00  0.00    +0.005 A 
ATOM     29  C   UNL     1      -8.343  -8.434   0.422  0.00  0.00    +0.013 A 
BRANCH  18  19
ATOM     19  C   UNL     1      -5.413  -6.157   1.554  0.00  0.00    +0.119 C 
BRANCH  19  20
ATOM     20  N   UNL     1      -4.314  -6.882   0.850  0.00  0.00    -0.302 NA
ATOM     21  C   UNL     1      -3.190  -7.291   1.807  0.00  0.00    +0.066 C 
ATOM     22  C   UNL     1      -2.059  -8.068   1.058  0.00  0.00    -0.064 C 
ATOM     23  N   UNL     1      -1.514  -7.201  -0.077  0.00  0.00    +0.379 N 
ATOM     24  C   UNL     1      -0.411  -7.905  -0.747  0.00  0.00    -0.096 C 
ATOM     25  H   UNL     1      -1.096  -6.273   0.377  0.00  0.00    -0.082 HD
ATOM     26  C   UNL     1      -2.625  -6.788  -1.032  0.00  0.00    -0.064 C 
ATOM     27  C   UNL     1      -3.758  -6.042  -0.273  0.00  0.00    +0.066 C 
ENDBRANCH  19  20
ENDBRANCH  18  19
ENDBRANCH  14  15
ENDBRANCH  12  13
TORSDOF 6
ENDMDL
MODEL 2
REMARK VINA RESULT:      -8.1      7.827     16.358
REMARK  Name = C:\Users\Docking\Desktop\test protocol\1iep_ligandH.pdb
REMARK  8 active torsions:
REMARK  status: ('A' for Active; 'I' for Inactive)
REMARK    1  A    between atoms: _5  and  _11
REMARK    2  A    between atoms: _19  and  _21
REMARK    3  A    between atoms: _22  and  _66
REMARK    4  A    between atoms: _27  and  _30
REMARK    5  A    between atoms: _32  and  _33
REMARK    6  A    between atoms: _38  and  _43
REMARK    7  A    between atoms: _43  and  _46
REMARK    8  A    between atoms: _53  and  _55
REMARK                            x       y       z     vdW  Elec       q    Type
REMARK                         _______ _______ _______ _____ _____    ______ ____
ROOT
ATOM     10  C   UNL     1       2.797 -11.272   5.581  0.00  0.00    +0.038 A 
ATOM     11  C   UNL     1       1.673 -10.570   5.076  0.00  0.00    +0.047 A 
ATOM     12  C   UNL     1       1.781  -9.722   3.900  0.00  0.00    +0.035 A 
ATOM     32  C   UNL     1       3.050  -9.614   3.260  0.00  0.00    +0.024 A 
ATOM     33  C   UNL     1       4.204 -10.319   3.760  0.00  0.00    +0.007 A 
ATOM     34  C   UNL     1       4.103 -11.156   4.921  0.00  0.00    -0.029 A 
ATOM     35  C   UNL     1       5.375 -11.884   5.417  0.00  0.00    +0.045 C 
ENDROOT
BRANCH  10   9
ATOM      4  C   UNL     1       1.544 -15.386   7.713  0.00  0.00    +0.077 A 
ATOM      5  C   UNL     1       1.153 -15.981   6.468  0.00  0.00    +0.048 A 
ATOM      6  C   UNL     1       1.282 -15.192   5.303  0.00  0.00    +0.116 A 
ATOM      7  N   UNL     1       1.769 -13.906   5.388  0.00  0.00    -0.223 NA
ATOM      8  C   UNL     1       2.137 -13.362   6.605  0.00  0.00    +0.220 A 
ATOM      9  N   UNL     1       2.636 -12.073   6.714  0.00  0.00    -0.283 N 
ATOM     36  H   UNL     1       2.889 -11.706   7.631  0.00  0.00    +0.155 HD
ATOM     37  N   UNL     1       2.021 -14.094   7.733  0.00  0.00    -0.214 NA
BRANCH   4   3
ATOM      1  C   UNL     1       0.503 -16.428  11.337  0.00  0.00    +0.020 A 
ATOM      2  C   UNL     1       0.535 -15.712  10.083  0.00  0.00    +0.013 A 
ATOM      3  C   UNL     1       1.469 -16.093   9.031  0.00  0.00    +0.019 A 
ATOM     38  C   UNL     1       2.364 -17.213   9.282  0.00  0.00    +0.120 A 
ATOM     39  N   UNL     1       2.311 -17.883  10.500  0.00  0.00    -0.263 NA
ATOM     40  C   UNL     1       1.417 -17.524  11.520  0.00  0.00    +0.111 A 
ENDBRANCH   4   3
ENDBRANCH  10   9
BRANCH  12  13
ATOM     13  N   UNL     1       0.677  -8.978   3.347  0.00  0.00    -0.281 N 
ATOM     14  C   UNL     1      -0.158  -9.344   2.303  0.00  0.00    +0.248 C 
ATOM     30  O   UNL     1       0.054 -10.277   1.543  0.00  0.00    -0.270 OA
ATOM     31  H   UNL     1       0.487  -8.073   3.776  0.00  0.00    +0.155 HD
BRANCH  14  15
ATOM     15  C   UNL     1      -1.401  -8.549   2.061  0.00  0.00    +0.037 A 
ATOM     16  C   UNL     1      -1.338  -7.124   1.726  0.00  0.00    +0.013 A 
ATOM     17  C   UNL     1      -2.552  -6.377   1.514  0.00  0.00    +0.005 A 
ATOM     18  C   UNL     1      -3.841  -7.055   1.634  0.00  0.00    -0.033 A 
ATOM     28  C   UNL     1      -3.874  -8.471   1.961  0.00  0.00    +0.005 A 
ATOM     29  C   UNL     1      -2.685  -9.206   2.171  0.00  0.00    +0.013 A 
BRANCH  18  19
ATOM     19  C   UNL     1      -5.187  -6.332   1.445  0.00  0.00    +0.119 C 
BRANCH  19  20
ATOM     20  N   UNL     1      -6.429  -7.131   1.666  0.00  0.00    -0.302 NA
ATOM     21  C   UNL     1      -7.027  -7.640   0.351  0.00  0.00    +0.066 C 
ATOM     22  C   UNL     1      -8.313  -8.493   0.602  0.00  0.00    -0.064 C 
ATOM     23  N   UNL     1      -9.335  -7.655   1.373  0.00  0.00    +0.379 N 
ATOM     24  C   UNL     1     -10.567  -8.434   1.560  0.00  0.00    -0.096 C 
ATOM     25  H   UNL     1      -9.587  -6.768   0.746  0.00  0.00    -0.082 HD
ATOM     26  C   UNL     1      -8.748  -7.142   2.681  0.00  0.00    -0.064 C 
ATOM     27  C   UNL     1      -7.454  -6.321   2.422  0.00  0.00    +0.066 C 
ENDBRANCH  19  20
ENDBRANCH  18  19
ENDBRANCH  14  15
ENDBRANCH  12  13
TORSDOF 6
ENDMDL
MODEL 3
REMARK VINA RESULT:      -8.0      2.795      4.329
REMARK  Name = C:\Users\Docking\Desktop\test protocol\1iep_ligandH.pdb
REMARK  8 active torsions:
REMARK  status: ('A' for Active; 'I' for Inactive)
REMARK    1  A    between atoms: _5  and  _11
REMARK    2  A    between atoms: _19  and  _21
REMARK    3  A    between atoms: _22  and  _66
REMARK    4  A    between atoms: _27  and  _30
REMARK    5  A    between atoms: _32  and  _33
REMARK    6  A    between atoms: _38  and  _43
REMARK    7  A    between atoms: _43  and  _46
REMARK    8  A    between atoms: _53  and  _55
REMARK                            x       y       z     vdW  Elec       q    Type
REMARK                         _______ _______ _______ _____ _____    ______ ____
ROOT
ATOM     10  C   UNL     1     -15.419 -10.138   2.930  0.00  0.00    +0.038 A 
ATOM     11  C   UNL     1     -14.017 -10.025   2.748  0.00  0.00    +0.047 A 
ATOM     12  C   UNL     1     -13.394  -8.736   2.492  0.00  0.00    +0.035 A 
ATOM     32  C   UNL     1     -14.228  -7.582   2.430  0.00  0.00    +0.024 A 
ATOM     33  C   UNL     1     -15.655  -7.679   2.611  0.00  0.00    +0.007 A 
ATOM     34  C   UNL     1     -16.276  -8.949   2.862  0.00  0.00    -0.029 A 
ATOM     35  C   UNL     1     -17.812  -8.995   3.042  0.00  0.00    +0.045 C 
ENDROOT
BRANCH  10   9
ATOM      4  C   UNL     1     -17.416 -14.243   1.446  0.00  0.00    +0.077 A 
ATOM      5  C   UNL     1     -17.395 -13.827   0.074  0.00  0.00    +0.048 A 
ATOM      6  C   UNL     1     -16.868 -12.546  -0.207  0.00  0.00    +0.116 A 
ATOM      7  N   UNL     1     -16.401 -11.750   0.816  0.00  0.00    -0.223 NA
ATOM      8  C   UNL     1     -16.437 -12.181   2.129  0.00  0.00    +0.220 A 
ATOM      9  N   UNL     1     -15.965 -11.401   3.173  0.00  0.00    -0.283 N 
ATOM     36  H   UNL     1     -16.017 -11.752   4.128  0.00  0.00    +0.155 HD
ATOM     37  N   UNL     1     -16.936 -13.400   2.424  0.00  0.00    -0.214 NA
BRANCH   4   3
ATOM      1  C   UNL     1     -17.665 -17.819   3.013  0.00  0.00    +0.020 A 
ATOM      2  C   UNL     1     -17.111 -16.552   2.593  0.00  0.00    +0.013 A 
ATOM      3  C   UNL     1     -17.938 -15.570   1.902  0.00  0.00    +0.019 A 
ATOM     38  C   UNL     1     -19.332 -15.903   1.652  0.00  0.00    +0.120 A 
ATOM     39  N   UNL     1     -19.837 -17.131   2.066  0.00  0.00    -0.263 NA
ATOM     40  C   UNL     1     -19.051 -18.085   2.730  0.00  0.00    +0.111 A 
ENDBRANCH   4   3
ENDBRANCH  10   9
BRANCH  12  13
ATOM     13  N   UNL     1     -11.977  -8.560   2.292  0.00  0.00    -0.281 N 
ATOM     14  C   UNL     1     -11.314  -8.259   1.113  0.00  0.00    +0.248 C 
ATOM     30  O   UNL     1     -11.823  -8.306   0.003  0.00  0.00    -0.270 OA
ATOM     31  H   UNL     1     -11.391  -8.671   3.120  0.00  0.00    +0.155 HD
BRANCH  14  15
ATOM     15  C   UNL     1      -9.874  -7.863   1.175  0.00  0.00    +0.037 A 
ATOM     16  C   UNL     1      -8.923  -8.292   0.147  0.00  0.00    +0.013 A 
ATOM     17  C   UNL     1      -7.536  -7.910   0.240  0.00  0.00    +0.005 A 
ATOM     18  C   UNL     1      -7.093  -7.092   1.366  0.00  0.00    -0.033 A 
ATOM     28  C   UNL     1      -8.059  -6.675   2.369  0.00  0.00    +0.005 A 
ATOM     29  C   UNL     1      -9.418  -7.049   2.282  0.00  0.00    +0.013 A 
BRANCH  18  19
ATOM     19  C   UNL     1      -5.628  -6.655   1.557  0.00  0.00    +0.119 C 
BRANCH  19  20
ATOM     20  N   UNL     1      -4.624  -7.188   0.589  0.00  0.00    -0.302 NA
ATOM     21  C   UNL     1      -3.465  -7.896   1.296  0.00  0.00    +0.066 C 
ATOM     22  C   UNL     1      -2.435  -8.468   0.268  0.00  0.00    -0.064 C 
ATOM     23  N   UNL     1      -1.917  -7.332  -0.617  0.00  0.00    +0.379 N 
ATOM     24  C   UNL     1      -0.906  -7.856  -1.546  0.00  0.00    -0.096 C 
ATOM     25  H   UNL     1      -1.415  -6.590   0.046  0.00  0.00    -0.082 HD
ATOM     26  C   UNL     1      -3.064  -6.621  -1.321  0.00  0.00    -0.064 C 
ATOM     27  C   UNL     1      -4.096  -6.083  -0.292  0.00  0.00    +0.066 C 
ENDBRANCH  19  20
ENDBRANCH  18  19
ENDBRANCH  14  15
ENDBRANCH  12  13
TORSDOF 6
ENDMDL
MODEL 4
REMARK VINA RESULT:      -7.9      1.875      3.295
REMARK  Name = C:\Users\Docking\Desktop\test protocol\1iep_ligandH.pdb
REMARK  8 active torsions:
REMARK  status: ('A' for Active; 'I' for Inactive)
REMARK    1  A    between atoms: _5  and  _11
REMARK    2  A    between atoms: _19  and  _21
REMARK    3  A    between atoms: _22  and  _66
REMARK    4  A    between atoms: _27  and  _30
REMARK    5  A    between atoms: _32  and  _33
REMARK    6  A    between atoms: _38  and  _43
REMARK    7  A    between atoms: _43  and  _46
REMARK    8  A    between atoms: _53  and  _55
REMARK                            x       y       z     vdW  Elec       q    Type
REMARK                         _______ _______ _______ _____ _____    ______ ____
ROOT
ATOM     10  C   UNL     1     -12.250  -8.943  -0.361  0.00  0.00    +0.038 A 
ATOM     11  C   UNL     1     -11.039  -8.431   0.171  0.00  0.00    +0.047 A 
ATOM     12  C   UNL     1      -9.759  -8.717  -0.459  0.00  0.00    +0.035 A 
ATOM     32  C   UNL     1      -9.750  -9.528  -1.632  0.00  0.00    +0.024 A 
ATOM     33  C   UNL     1     -10.971 -10.058  -2.185  0.00  0.00    +0.007 A 
ATOM     34  C   UNL     1     -12.236  -9.781  -1.567  0.00  0.00    -0.029 A 
ATOM     35  C   UNL     1     -13.513 -10.381  -2.200  0.00  0.00    +0.045 C 
ENDROOT
BRANCH  10   9
ATOM      4  C   UNL     1     -15.847 -10.028   2.626  0.00  0.00    +0.077 A 
ATOM      5  C   UNL     1     -15.303 -11.326   2.904  0.00  0.00    +0.048 A 
ATOM      6  C   UNL     1     -14.100 -11.679   2.252  0.00  0.00    +0.116 A 
ATOM      7  N   UNL     1     -13.494 -10.792   1.389  0.00  0.00    -0.223 NA
ATOM      8  C   UNL     1     -14.046  -9.548   1.142  0.00  0.00    +0.220 A 
ATOM      9  N   UNL     1     -13.450  -8.637   0.284  0.00  0.00    -0.283 N 
ATOM     36  H   UNL     1     -13.892  -7.732   0.123  0.00  0.00    +0.155 HD
ATOM     37  N   UNL     1     -15.195  -9.188   1.751  0.00  0.00    -0.214 NA
BRANCH   4   3
ATOM      1  C   UNL     1     -18.770  -7.672   3.723  0.00  0.00    +0.020 A 
ATOM      2  C   UNL     1     -17.541  -8.123   3.111  0.00  0.00    +0.013 A 
ATOM      3  C   UNL     1     -17.110  -9.509   3.240  0.00  0.00    +0.019 A 
ATOM     38  C   UNL     1     -17.952 -10.421   3.999  0.00  0.00    +0.120 A 
ATOM     39  N   UNL     1     -19.129  -9.959   4.578  0.00  0.00    -0.263 NA
ATOM     40  C   UNL     1     -19.554  -8.627   4.463  0.00  0.00    +0.111 A 
ENDBRANCH   4   3
ENDBRANCH  10   9
BRANCH  12  13
ATOM     13  N   UNL     1      -8.497  -8.231   0.040  0.00  0.00    -0.281 N 
ATOM     14  C   UNL     1      -7.890  -8.525   1.250  0.00  0.00    +0.248 C 
ATOM     30  O   UNL     1      -8.444  -9.086   2.184  0.00  0.00    -0.270 OA
ATOM     31  H   UNL     1      -7.989  -7.594  -0.573  0.00  0.00    +0.155 HD
BRANCH  14  15
ATOM     15  C   UNL     1      -6.465  -8.124   1.459  0.00  0.00    +0.037 A 
ATOM     16  C   UNL     1      -5.508  -9.028   2.102  0.00  0.00    +0.013 A 
ATOM     17  C   UNL     1      -4.144  -8.610   2.307  0.00  0.00    +0.005 A 
ATOM     18  C   UNL     1      -3.728  -7.281   1.866  0.00  0.00    -0.033 A 
ATOM     28  C   UNL     1      -4.697  -6.406   1.226  0.00  0.00    +0.005 A 
ATOM     29  C   UNL     1      -6.035  -6.812   1.024  0.00  0.00    +0.013 A 
BRANCH  18  19
ATOM     19  C   UNL     1      -2.298  -6.744   2.063  0.00  0.00    +0.119 C 
BRANCH  19  20
ATOM     20  N   UNL     1      -1.212  -7.380   1.259  0.00  0.00    -0.302 NA
ATOM     21  C   UNL     1      -1.583  -7.490  -0.223  0.00  0.00    +0.066 C 
ATOM     22  C   UNL     1      -0.426  -8.137  -1.052  0.00  0.00    -0.064 C 
ATOM     23  N   UNL     1      -0.096  -9.514  -0.473  0.00  0.00    +0.379 N 
ATOM     24  C   UNL     1       0.951 -10.150  -1.286  0.00  0.00    -0.096 C 
ATOM     25  H   UNL     1      -1.013 -10.142  -0.551  0.00  0.00    -0.082 HD
ATOM     26  C   UNL     1       0.271  -9.414   1.001  0.00  0.00    -0.064 C 
ATOM     27  C   UNL     1      -0.873  -8.743   1.811  0.00  0.00    +0.066 C 
ENDBRANCH  19  20
ENDBRANCH  18  19
ENDBRANCH  14  15
ENDBRANCH  12  13
TORSDOF 6
ENDMDL
MODEL 5
REMARK VINA RESULT:      -7.5      7.324     19.322
REMARK  Name = C:\Users\Docking\Desktop\test protocol\1iep_ligandH.pdb
REMARK  8 active torsions:
REMARK  status: ('A' for Active; 'I' for Inactive)
REMARK    1  A    between atoms: _5  and  _11
REMARK    2  A    between atoms: _19  and  _21
REMARK    3  A    between atoms: _22  and  _66
REMARK    4  A    between atoms: _27  and  _30
REMARK    5  A    between atoms: _32  and  _33
REMARK    6  A    between atoms: _38  and  _43
REMARK    7  A    between atoms: _43  and  _46
REMARK    8  A    between atoms: _53  and  _55
REMARK                            x       y       z     vdW  Elec       q    Type
REMARK                         _______ _______ _______ _____ _____    ______ ____
ROOT
ATOM     10  C   UNL     1       4.520 -10.474   4.196  0.00  0.00    +0.038 A 
ATOM     11  C   UNL     1       3.416  -9.866   3.545  0.00  0.00    +0.047 A 
ATOM     12  C   UNL     1       2.112  -9.791   4.187  0.00  0.00    +0.035 A 
ATOM     32  C   UNL     1       1.970 -10.343   5.493  0.00  0.00    +0.024 A 
ATOM     33  C   UNL     1       3.081 -10.965   6.169  0.00  0.00    +0.007 A 
ATOM     34  C   UNL     1       4.369 -11.044   5.540  0.00  0.00    -0.029 A 
ATOM     35  C   UNL     1       5.523 -11.729   6.308  0.00  0.00    +0.045 C 
ENDROOT
BRANCH  10   9
ATOM      4  C   UNL     1       7.584 -12.473   1.090  0.00  0.00    +0.077 A 
ATOM      5  C   UNL     1       6.670 -13.535   0.780  0.00  0.00    +0.048 A 
ATOM      6  C   UNL     1       5.425 -13.534   1.448  0.00  0.00    +0.116 A 
ATOM      7  N   UNL     1       5.126 -12.540   2.354  0.00  0.00    -0.223 NA
ATOM      8  C   UNL     1       6.031 -11.532   2.631  0.00  0.00    +0.220 A 
ATOM      9  N   UNL     1       5.749 -10.518   3.533  0.00  0.00    -0.283 N 
ATOM     36  H   UNL     1       6.446  -9.796   3.715  0.00  0.00    +0.155 HD
ATOM     37  N   UNL     1       7.228 -11.511   2.008  0.00  0.00    -0.214 NA
BRANCH   4   3
ATOM      1  C   UNL     1      10.510 -11.425  -1.286  0.00  0.00    +0.020 A 
ATOM      2  C   UNL     1       9.184 -11.525  -0.722  0.00  0.00    +0.013 A 
ATOM      3  C   UNL     1       8.938 -12.335   0.465  0.00  0.00    +0.019 A 
ATOM     38  C   UNL     1      10.065 -13.036   1.061  0.00  0.00    +0.120 A 
ATOM     39  N   UNL     1      11.331 -12.922   0.495  0.00  0.00    -0.263 NA
ATOM     40  C   UNL     1      11.579 -12.147  -0.647  0.00  0.00    +0.111 A 
ENDBRANCH   4   3
ENDBRANCH  10   9
BRANCH  12  13
ATOM     13  N   UNL     1       0.953  -9.194   3.572  0.00  0.00    -0.281 N 
ATOM     14  C   UNL     1      -0.027  -9.817   2.817  0.00  0.00    +0.248 C 
ATOM     30  O   UNL     1       0.060 -10.953   2.374  0.00  0.00    -0.270 OA
ATOM     31  H   UNL     1       0.841  -8.189   3.711  0.00  0.00    +0.155 HD
BRANCH  14  15
ATOM     15  C   UNL     1      -1.278  -9.065   2.495  0.00  0.00    +0.037 A 
ATOM     16  C   UNL     1      -2.591  -9.555   2.923  0.00  0.00    +0.013 A 
ATOM     17  C   UNL     1      -3.783  -8.819   2.584  0.00  0.00    +0.005 A 
ATOM     18  C   UNL     1      -3.667  -7.583   1.814  0.00  0.00    -0.033 A 
ATOM     28  C   UNL     1      -2.352  -7.117   1.408  0.00  0.00    +0.005 A 
ATOM     29  C   UNL     1      -1.181  -7.836   1.737  0.00  0.00    +0.013 A 
BRANCH  18  19
ATOM     19  C   UNL     1      -4.887  -6.744   1.390  0.00  0.00    +0.119 C 
BRANCH  19  20
ATOM     20  N   UNL     1      -6.238  -7.334   1.628  0.00  0.00    -0.302 NA
ATOM     21  C   UNL     1      -6.884  -7.831   0.331  0.00  0.00    +0.066 C 
ATOM     22  C   UNL     1      -8.287  -8.466   0.601  0.00  0.00    -0.064 C 
ATOM     23  N   UNL     1      -9.184  -7.439   1.293  0.00  0.00    +0.379 N 
ATOM     24  C   UNL     1     -10.522  -8.013   1.495  0.00  0.00    -0.096 C 
ATOM     25  H   UNL     1      -9.290  -6.566   0.607  0.00  0.00    -0.082 HD
ATOM     26  C   UNL     1      -8.548  -6.937   2.582  0.00  0.00    -0.064 C 
ATOM     27  C   UNL     1      -7.142  -6.335   2.307  0.00  0.00    +0.066 C 
ENDBRANCH  19  20
ENDBRANCH  18  19
ENDBRANCH  14  15
ENDBRANCH  12  13
TORSDOF 6
ENDMDL
