MODEL 1
REMARK VINA RESULT:      -7.5      0.000      0.000
REMARK  Name = C:\Users\Docking\Desktop\test protocol\1iep_ligandH.pdb
REMARK  8 active torsions:
REMARK  status: ('A' for Active; 'I' for Inactive)
REMARK    1  A    between atoms: _5  and  _11
REMARK    2  A    between atoms: _19  and  _21
REMARK    3  A    between atoms: _22  and  _66
REMARK    4  A    between atoms: _27  and  _30
REMARK    5  A    between atoms: _32  and  _33
REMARK    6  A    between atoms: _38  and  _43
REMARK    7  A    between atoms: _43  and  _46
REMARK    8  A    between atoms: _53  and  _55
REMARK                            x       y       z     vdW  Elec       q    Type
REMARK                         _______ _______ _______ _____ _____    ______ ____
ROOT
ATOM     10  C   UNL     1       4.348 -10.097   4.061  0.00  0.00    +0.038 A 
ATOM     11  C   UNL     1       3.442  -9.418   3.207  0.00  0.00    +0.047 A 
ATOM     12  C   UNL     1       2.004  -9.531   3.393  0.00  0.00    +0.035 A 
ATOM     32  C   UNL     1       1.523 -10.344   4.460  0.00  0.00    +0.024 A 
ATOM     33  C   UNL     1       2.429 -11.042   5.337  0.00  0.00    +0.007 A 
ATOM     34  C   UNL     1       3.849 -10.936   5.157  0.00  0.00    -0.029 A 
ATOM     35  C   UNL     1       4.774 -11.712   6.123  0.00  0.00    +0.045 C 
ENDROOT
BRANCH  10   9
ATOM      4  C   UNL     1       8.417 -11.281   1.806  0.00  0.00    +0.077 A 
ATOM      5  C   UNL     1       7.760 -12.291   1.027  0.00  0.00    +0.048 A 
ATOM      6  C   UNL     1       6.377 -12.480   1.242  0.00  0.00    +0.116 A 
ATOM      7  N   UNL     1       5.709 -11.709   2.169  0.00  0.00    -0.223 NA
ATOM      8  C   UNL     1       6.372 -10.745   2.905  0.00  0.00    +0.220 A 
ATOM      9  N   UNL     1       5.719  -9.953   3.837  0.00  0.00    -0.283 N 
ATOM     36  H   UNL     1       6.245  -9.257   4.365  0.00  0.00    +0.155 HD
ATOM     37  N   UNL     1       7.694 -10.546   2.719  0.00  0.00    -0.214 NA
BRANCH   4   3
ATOM      1  C   UNL     1      11.866 -10.012   0.467  0.00  0.00    +0.020 A 
ATOM      2  C   UNL     1      10.451 -10.299   0.528  0.00  0.00    +0.013 A 
ATOM      3  C   UNL     1       9.875 -10.961   1.691  0.00  0.00    +0.019 A 
ATOM     38  C   UNL     1      10.764 -11.322   2.785  0.00  0.00    +0.120 A 
ATOM     39  N   UNL     1      12.123 -11.035   2.697  0.00  0.00    -0.263 NA
ATOM     40  C   UNL     1      12.689 -10.399   1.582  0.00  0.00    +0.111 A 
ENDBRANCH   4   3
ENDBRANCH  10   9
BRANCH  12  13
ATOM     13  N   UNL     1       1.036  -8.871   2.552  0.00  0.00    -0.281 N 
ATOM     14  C   UNL     1       0.126  -9.451   1.683  0.00  0.00    +0.248 C 
ATOM     30  O   UNL     1       0.152 -10.623   1.336  0.00  0.00    -0.270 OA
ATOM     31  H   UNL     1       1.019  -7.853   2.604  0.00  0.00    +0.155 HD
BRANCH  14  15
ATOM     15  C   UNL     1      -0.961  -8.605   1.105  0.00  0.00    +0.037 A 
ATOM     16  C   UNL     1      -1.041  -7.170   1.391  0.00  0.00    +0.013 A 
ATOM     17  C   UNL     1      -2.110  -6.379   0.835  0.00  0.00    +0.005 A 
ATOM     18  C   UNL     1      -3.108  -7.023  -0.016  0.00  0.00    -0.033 A 
ATOM     28  C   UNL     1      -3.003  -8.447  -0.288  0.00  0.00    +0.005 A 
ATOM     29  C   UNL     1      -1.957  -9.225   0.257  0.00  0.00    +0.013 A 
BRANCH  18  19
ATOM     19  C   UNL     1      -4.295  -6.261  -0.635  0.00  0.00    +0.119 C 
BRANCH  19  20
ATOM     20  N   UNL     1      -4.177  -5.859  -2.069  0.00  0.00    -0.302 NA
ATOM     21  C   UNL     1      -3.850  -4.371  -2.223  0.00  0.00    +0.066 C 
ATOM     22  C   UNL     1      -3.707  -3.972  -3.728  0.00  0.00    -0.064 C 
ATOM     23  N   UNL     1      -4.998  -4.323  -4.470  0.00  0.00    +0.379 N 
ATOM     24  C   UNL     1      -4.888  -3.897  -5.873  0.00  0.00    -0.096 C 
ATOM     25  H   UNL     1      -5.825  -3.740  -4.002  0.00  0.00    -0.082 HD
ATOM     26  C   UNL     1      -5.332  -5.800  -4.320  0.00  0.00    -0.064 C 
ATOM     27  C   UNL     1      -5.442  -6.193  -2.820  0.00  0.00    +0.066 C 
ENDBRANCH  19  20
ENDBRANCH  18  19
ENDBRANCH  14  15
ENDBRANCH  12  13
TORSDOF 6
ENDMDL
MODEL 2
REMARK VINA RESULT:      -7.4     10.239     19.471
REMARK  Name = C:\Users\Docking\Desktop\test protocol\1iep_ligandH.pdb
REMARK  8 active torsions:
REMARK  status: ('A' for Active; 'I' for Inactive)
REMARK    1  A    between atoms: _5  and  _11
REMARK    2  A    between atoms: _19  and  _21
REMARK    3  A    between atoms: _22  and  _66
REMARK    4  A    between atoms: _27  and  _30
REMARK    5  A    between atoms: _32  and  _33
REMARK    6  A    between atoms: _38  and  _43
REMARK    7  A    between atoms: _43  and  _46
REMARK    8  A    between atoms: _53  and  _55
REMARK                            x       y       z     vdW  Elec       q    Type
REMARK                         _______ _______ _______ _____ _____    ______ ____
ROOT
ATOM     10  C   UNL     1     -15.421 -10.375  -1.219  0.00  0.00    +0.038 A 
ATOM     11  C   UNL     1     -14.238  -9.596  -1.144  0.00  0.00    +0.047 A 
ATOM     12  C   UNL     1     -13.098 -10.033  -0.353  0.00  0.00    +0.035 A 
ATOM     32  C   UNL     1     -13.197 -11.270   0.348  0.00  0.00    +0.024 A 
ATOM     33  C   UNL     1     -14.393 -12.074   0.284  0.00  0.00    +0.007 A 
ATOM     34  C   UNL     1     -15.521 -11.647  -0.493  0.00  0.00    -0.029 A 
ATOM     35  C   UNL     1     -16.779 -12.545  -0.520  0.00  0.00    +0.045 C 
ENDROOT
BRANCH  10   9
ATOM      4  C   UNL     1     -17.823 -10.064  -5.363  0.00  0.00    +0.077 A 
ATOM      5  C   UNL     1     -16.862 -10.880  -6.049  0.00  0.00    +0.048 A 
ATOM      6  C   UNL     1     -15.761 -11.353  -5.301  0.00  0.00    +0.116 A 
ATOM      7  N   UNL     1     -15.640 -11.030  -3.967  0.00  0.00    -0.223 NA
ATOM      8  C   UNL     1     -16.583 -10.239  -3.337  0.00  0.00    +0.220 A 
ATOM      9  N   UNL     1     -16.485  -9.907  -1.994  0.00  0.00    -0.283 N 
ATOM     36  H   UNL     1     -17.198  -9.316  -1.567  0.00  0.00    +0.155 HD
ATOM     37  N   UNL     1     -17.643  -9.773  -4.029  0.00  0.00    -0.214 NA
BRANCH   4   3
ATOM      1  C   UNL     1     -20.702  -9.340  -7.909  0.00  0.00    +0.020 A 
ATOM      2  C   UNL     1     -19.519  -9.925  -7.323  0.00  0.00    +0.013 A 
ATOM      3  C   UNL     1     -19.042  -9.491  -6.016  0.00  0.00    +0.019 A 
ATOM     38  C   UNL     1     -19.792  -8.454  -5.323  0.00  0.00    +0.120 A 
ATOM     39  N   UNL     1     -20.927  -7.908  -5.913  0.00  0.00    -0.263 NA
ATOM     40  C   UNL     1     -21.395  -8.317  -7.171  0.00  0.00    +0.111 A 
ENDBRANCH   4   3
ENDBRANCH  10   9
BRANCH  12  13
ATOM     13  N   UNL     1     -11.874  -9.281  -0.233  0.00  0.00    -0.281 N 
ATOM     14  C   UNL     1     -11.508  -8.405   0.776  0.00  0.00    +0.248 C 
ATOM     30  O   UNL     1     -12.272  -7.971   1.625  0.00  0.00    -0.270 OA
ATOM     31  H   UNL     1     -11.195  -9.410  -0.983  0.00  0.00    +0.155 HD
BRANCH  14  15
ATOM     15  C   UNL     1     -10.091  -7.933   0.843  0.00  0.00    +0.037 A 
ATOM     16  C   UNL     1      -9.141  -8.226  -0.233  0.00  0.00    +0.013 A 
ATOM     17  C   UNL     1      -7.776  -7.773  -0.135  0.00  0.00    +0.005 A 
ATOM     18  C   UNL     1      -7.354  -7.021   1.044  0.00  0.00    -0.033 A 
ATOM     28  C   UNL     1      -8.319  -6.740   2.094  0.00  0.00    +0.005 A 
ATOM     29  C   UNL     1      -9.657  -7.183   2.002  0.00  0.00    +0.013 A 
BRANCH  18  19
ATOM     19  C   UNL     1      -5.912  -6.517   1.243  0.00  0.00    +0.119 C 
BRANCH  19  20
ATOM     20  N   UNL     1      -4.905  -6.900   0.208  0.00  0.00    -0.302 NA
ATOM     21  C   UNL     1      -4.026  -8.066   0.667  0.00  0.00    +0.066 C 
ATOM     22  C   UNL     1      -2.993  -8.469  -0.436  0.00  0.00    -0.064 C 
ATOM     23  N   UNL     1      -2.136  -7.254  -0.796  0.00  0.00    +0.379 N 
ATOM     24  C   UNL     1      -1.126  -7.643  -1.791  0.00  0.00    -0.096 C 
ATOM     25  H   UNL     1      -1.598  -6.935   0.126  0.00  0.00    -0.082 HD
ATOM     26  C   UNL     1      -3.003  -6.088  -1.251  0.00  0.00    -0.064 C 
ATOM     27  C   UNL     1      -4.045  -5.715  -0.159  0.00  0.00    +0.066 C 
ENDBRANCH  19  20
ENDBRANCH  18  19
ENDBRANCH  14  15
ENDBRANCH  12  13
TORSDOF 6
ENDMDL
MODEL 3
REMARK VINA RESULT:      -6.8     36.809     39.697
REMARK  Name = C:\Users\Docking\Desktop\test protocol\1iep_ligandH.pdb
REMARK  8 active torsions:
REMARK  status: ('A' for Active; 'I' for Inactive)
REMARK    1  A    between atoms: _5  and  _11
REMARK    2  A    between atoms: _19  and  _21
REMARK    3  A    between atoms: _22  and  _66
REMARK    4  A    between atoms: _27  and  _30
REMARK    5  A    between atoms: _32  and  _33
REMARK    6  A    between atoms: _38  and  _43
REMARK    7  A    between atoms: _43  and  _46
REMARK    8  A    between atoms: _53  and  _55
REMARK                            x       y       z     vdW  Elec       q    Type
REMARK                         _______ _______ _______ _____ _____    ______ ____
ROOT
ATOM     10  C   UNL     1     -12.492   4.286  36.695  0.00  0.00    +0.038 A 
ATOM     11  C   UNL     1     -12.104   5.464  36.007  0.00  0.00    +0.047 A 
ATOM     12  C   UNL     1     -11.268   6.468  36.646  0.00  0.00    +0.035 A 
ATOM     32  C   UNL     1     -10.842   6.239  37.987  0.00  0.00    +0.024 A 
ATOM     33  C   UNL     1     -11.228   5.047  38.702  0.00  0.00    +0.007 A 
ATOM     34  C   UNL     1     -12.055   4.054  38.077  0.00  0.00    -0.029 A 
ATOM     35  C   UNL     1     -12.443   2.799  38.893  0.00  0.00    +0.045 C 
ENDROOT
BRANCH  10   9
ATOM      4  C   UNL     1     -13.090   0.572  33.713  0.00  0.00    +0.077 A 
ATOM      5  C   UNL     1     -11.685   0.497  33.431  0.00  0.00    +0.048 A 
ATOM      6  C   UNL     1     -10.844   1.437  34.067  0.00  0.00    +0.116 A 
ATOM      7  N   UNL     1     -11.378   2.377  34.921  0.00  0.00    -0.223 NA
ATOM      8  C   UNL     1     -12.737   2.423  35.171  0.00  0.00    +0.220 A 
ATOM      9  N   UNL     1     -13.295   3.355  36.032  0.00  0.00    -0.283 N 
ATOM     36  H   UNL     1     -14.304   3.361  36.184  0.00  0.00    +0.155 HD
ATOM     37  N   UNL     1     -13.562   1.538  34.574  0.00  0.00    -0.214 NA
BRANCH   4   3
ATOM      1  C   UNL     1     -16.428  -1.327  32.977  0.00  0.00    +0.020 A 
ATOM      2  C   UNL     1     -15.486  -0.416  33.584  0.00  0.00    +0.013 A 
ATOM      3  C   UNL     1     -14.106  -0.353  33.120  0.00  0.00    +0.019 A 
ATOM     38  C   UNL     1     -13.708  -1.232  32.030  0.00  0.00    +0.120 A 
ATOM     39  N   UNL     1     -14.637  -2.100  31.466  0.00  0.00    -0.263 NA
ATOM     40  C   UNL     1     -15.968  -2.171  31.905  0.00  0.00    +0.111 A 
ENDBRANCH   4   3
ENDBRANCH  10   9
BRANCH  12  13
ATOM     13  N   UNL     1     -10.849   7.687  36.001  0.00  0.00    -0.281 N 
ATOM     14  C   UNL     1      -9.742   7.886  35.191  0.00  0.00    +0.248 C 
ATOM     30  O   UNL     1      -8.822   7.091  35.072  0.00  0.00    -0.270 OA
ATOM     31  H   UNL     1     -11.440   8.504  36.160  0.00  0.00    +0.155 HD
BRANCH  14  15
ATOM     15  C   UNL     1      -9.635   9.157  34.413  0.00  0.00    +0.037 A 
ATOM     16  C   UNL     1      -9.494  10.451  35.086  0.00  0.00    +0.013 A 
ATOM     17  C   UNL     1      -9.411  11.664  34.312  0.00  0.00    +0.005 A 
ATOM     18  C   UNL     1      -9.466  11.588  32.854  0.00  0.00    -0.033 A 
ATOM     28  C   UNL     1      -9.602  10.291  32.212  0.00  0.00    +0.005 A 
ATOM     29  C   UNL     1      -9.685   9.100  32.967  0.00  0.00    +0.013 A 
BRANCH  18  19
ATOM     19  C   UNL     1      -9.406  12.832  31.948  0.00  0.00    +0.119 C 
BRANCH  19  20
ATOM     20  N   UNL     1      -8.054  13.385  31.635  0.00  0.00    -0.302 NA
ATOM     21  C   UNL     1      -8.018  14.912  31.743  0.00  0.00    +0.066 C 
ATOM     22  C   UNL     1      -6.591  15.471  31.434  0.00  0.00    -0.064 C 
ATOM     23  N   UNL     1      -6.159  15.016  30.039  0.00  0.00    +0.379 N 
ATOM     24  C   UNL     1      -4.843  15.588  29.722  0.00  0.00    -0.096 C 
ATOM     25  H   UNL     1      -6.893  15.429  29.307  0.00  0.00    -0.082 HD
ATOM     26  C   UNL     1      -6.195  13.499  29.922  0.00  0.00    -0.064 C 
ATOM     27  C   UNL     1      -7.610  12.951  30.260  0.00  0.00    +0.066 C 
ENDBRANCH  19  20
ENDBRANCH  18  19
ENDBRANCH  14  15
ENDBRANCH  12  13
TORSDOF 6
ENDMDL
MODEL 4
REMARK VINA RESULT:      -6.8     14.284     20.604
REMARK  Name = C:\Users\Docking\Desktop\test protocol\1iep_ligandH.pdb
REMARK  8 active torsions:
REMARK  status: ('A' for Active; 'I' for Inactive)
REMARK    1  A    between atoms: _5  and  _11
REMARK    2  A    between atoms: _19  and  _21
REMARK    3  A    between atoms: _22  and  _66
REMARK    4  A    between atoms: _27  and  _30
REMARK    5  A    between atoms: _32  and  _33
REMARK    6  A    between atoms: _38  and  _43
REMARK    7  A    between atoms: _43  and  _46
REMARK    8  A    between atoms: _53  and  _55
REMARK                            x       y       z     vdW  Elec       q    Type
REMARK                         _______ _______ _______ _____ _____    ______ ____
ROOT
ATOM     10  C   UNL     1     -14.729 -10.802  -2.709  0.00  0.00    +0.038 A 
ATOM     11  C   UNL     1     -15.865  -9.963  -2.584  0.00  0.00    +0.047 A 
ATOM     12  C   UNL     1     -17.190 -10.428  -2.965  0.00  0.00    +0.035 A 
ATOM     32  C   UNL     1     -17.321 -11.756  -3.466  0.00  0.00    +0.024 A 
ATOM     33  C   UNL     1     -16.176 -12.622  -3.600  0.00  0.00    +0.007 A 
ATOM     34  C   UNL     1     -14.867 -12.168  -3.229  0.00  0.00    -0.029 A 
ATOM     35  C   UNL     1     -13.674 -13.137  -3.400  0.00  0.00    +0.045 C 
ENDROOT
BRANCH  10   9
ATOM      4  C   UNL     1     -11.871  -8.401   0.309  0.00  0.00    +0.077 A 
ATOM      5  C   UNL     1     -12.961  -8.091   1.188  0.00  0.00    +0.048 A 
ATOM      6  C   UNL     1     -14.242  -8.562   0.824  0.00  0.00    +0.116 A 
ATOM      7  N   UNL     1     -14.409  -9.288  -0.335  0.00  0.00    -0.223 NA
ATOM      8  C   UNL     1     -13.337  -9.568  -1.162  0.00  0.00    +0.220 A 
ATOM      9  N   UNL     1     -13.481 -10.303  -2.328  0.00  0.00    -0.283 N 
ATOM     36  H   UNL     1     -12.666 -10.482  -2.915  0.00  0.00    +0.155 HD
ATOM     37  N   UNL     1     -12.103  -9.129  -0.837  0.00  0.00    -0.214 NA
BRANCH   4   3
ATOM      1  C   UNL     1      -8.658  -6.909   1.969  0.00  0.00    +0.020 A 
ATOM      2  C   UNL     1     -10.037  -7.298   1.778  0.00  0.00    +0.013 A 
ATOM      3  C   UNL     1     -10.457  -7.977   0.558  0.00  0.00    +0.019 A 
ATOM     38  C   UNL     1      -9.449  -8.251  -0.455  0.00  0.00    +0.120 A 
ATOM     39  N   UNL     1      -8.130  -7.864  -0.244  0.00  0.00    -0.263 NA
ATOM     40  C   UNL     1      -7.714  -7.208   0.925  0.00  0.00    +0.111 A 
ENDBRANCH   4   3
ENDBRANCH  10   9
BRANCH  12  13
ATOM     13  N   UNL     1     -18.379  -9.619  -2.868  0.00  0.00    -0.281 N 
ATOM     14  C   UNL     1     -19.029  -8.935  -3.883  0.00  0.00    +0.248 C 
ATOM     30  O   UNL     1     -18.561  -8.742  -4.996  0.00  0.00    -0.270 OA
ATOM     31  H   UNL     1     -18.792  -9.540  -1.939  0.00  0.00    +0.155 HD
BRANCH  14  15
ATOM     15  C   UNL     1     -20.388  -8.373  -3.620  0.00  0.00    +0.037 A 
ATOM     16  C   UNL     1     -21.563  -9.242  -3.519  0.00  0.00    +0.013 A 
ATOM     17  C   UNL     1     -22.866  -8.672  -3.281  0.00  0.00    +0.005 A 
ATOM     18  C   UNL     1     -22.999  -7.224  -3.142  0.00  0.00    -0.033 A 
ATOM     28  C   UNL     1     -21.816  -6.385  -3.241  0.00  0.00    +0.005 A 
ATOM     29  C   UNL     1     -20.538  -6.940  -3.475  0.00  0.00    +0.013 A 
BRANCH  18  19
ATOM     19  C   UNL     1     -24.353  -6.527  -2.908  0.00  0.00    +0.119 C 
BRANCH  19  20
ATOM     20  N   UNL     1     -24.848  -5.616  -3.982  0.00  0.00    -0.302 NA
ATOM     21  C   UNL     1     -24.838  -4.150  -3.542  0.00  0.00    +0.066 C 
ATOM     22  C   UNL     1     -25.337  -3.208  -4.686  0.00  0.00    -0.064 C 
ATOM     23  N   UNL     1     -26.742  -3.635  -5.117  0.00  0.00    +0.379 N 
ATOM     24  C   UNL     1     -27.237  -2.716  -6.152  0.00  0.00    -0.096 C 
ATOM     25  H   UNL     1     -27.411  -3.538  -4.231  0.00  0.00    -0.082 HD
ATOM     26  C   UNL     1     -26.762  -5.093  -5.554  0.00  0.00    -0.064 C 
ATOM     27  C   UNL     1     -26.236  -6.017  -4.420  0.00  0.00    +0.066 C 
ENDBRANCH  19  20
ENDBRANCH  18  19
ENDBRANCH  14  15
ENDBRANCH  12  13
TORSDOF 6
ENDMDL
MODEL 5
REMARK VINA RESULT:      -6.7     14.171     20.397
REMARK  Name = C:\Users\Docking\Desktop\test protocol\1iep_ligandH.pdb
REMARK  8 active torsions:
REMARK  status: ('A' for Active; 'I' for Inactive)
REMARK    1  A    between atoms: _5  and  _11
REMARK    2  A    between atoms: _19  and  _21
REMARK    3  A    between atoms: _22  and  _66
REMARK    4  A    between atoms: _27  and  _30
REMARK    5  A    between atoms: _32  and  _33
REMARK    6  A    between atoms: _38  and  _43
REMARK    7  A    between atoms: _43  and  _46
REMARK    8  A    between atoms: _53  and  _55
REMARK                            x       y       z     vdW  Elec       q    Type
REMARK                         _______ _______ _______ _____ _____    ______ ____
ROOT
ATOM     10  C   UNL     1     -14.427 -10.834  -2.259  0.00  0.00    +0.038 A 
ATOM     11  C   UNL     1     -15.519  -9.968  -2.521  0.00  0.00    +0.047 A 
ATOM     12  C   UNL     1     -16.837 -10.495  -2.841  0.00  0.00    +0.035 A 
ATOM     32  C   UNL     1     -17.007 -11.909  -2.883  0.00  0.00    +0.024 A 
ATOM     33  C   UNL     1     -15.907 -12.804  -2.621  0.00  0.00    +0.007 A 
ATOM     34  C   UNL     1     -14.605 -12.290  -2.307  0.00  0.00    -0.029 A 
ATOM     35  C   UNL     1     -13.461 -13.297  -2.041  0.00  0.00    +0.045 C 
ENDROOT
BRANCH  10   9
ATOM      4  C   UNL     1     -11.442  -8.491   0.680  0.00  0.00    +0.077 A 
ATOM      5  C   UNL     1     -12.453  -8.346   1.687  0.00  0.00    +0.048 A 
ATOM      6  C   UNL     1     -13.730  -8.882   1.407  0.00  0.00    +0.116 A 
ATOM      7  N   UNL     1     -13.967  -9.514   0.206  0.00  0.00    -0.223 NA
ATOM      8  C   UNL     1     -12.970  -9.636  -0.745  0.00  0.00    +0.220 A 
ATOM      9  N   UNL     1     -13.183 -10.275  -1.956  0.00  0.00    -0.283 N 
ATOM     36  H   UNL     1     -12.424 -10.337  -2.634  0.00  0.00    +0.155 HD
ATOM     37  N   UNL     1     -11.742  -9.131  -0.502  0.00  0.00    -0.214 NA
BRANCH   4   3
ATOM      1  C   UNL     1      -8.263  -6.651   2.026  0.00  0.00    +0.020 A 
ATOM      2  C   UNL     1      -9.628  -7.116   1.927  0.00  0.00    +0.013 A 
ATOM      3  C   UNL     1     -10.043  -7.980   0.830  0.00  0.00    +0.019 A 
ATOM     38  C   UNL     1      -9.045  -8.359  -0.159  0.00  0.00    +0.120 A 
ATOM     39  N   UNL     1      -7.738  -7.895  -0.039  0.00  0.00    -0.263 NA
ATOM     40  C   UNL     1      -7.328  -7.061   1.012  0.00  0.00    +0.111 A 
ENDBRANCH   4   3
ENDBRANCH  10   9
BRANCH  12  13
ATOM     13  N   UNL     1     -17.981  -9.664  -3.124  0.00  0.00    -0.281 N 
ATOM     14  C   UNL     1     -18.491  -9.310  -4.362  0.00  0.00    +0.248 C 
ATOM     30  O   UNL     1     -17.910  -9.481  -5.423  0.00  0.00    -0.270 OA
ATOM     31  H   UNL     1     -18.475  -9.292  -2.312  0.00  0.00    +0.155 HD
BRANCH  14  15
ATOM     15  C   UNL     1     -19.835  -8.659  -4.430  0.00  0.00    +0.037 A 
ATOM     16  C   UNL     1     -20.190  -7.763  -5.533  0.00  0.00    +0.013 A 
ATOM     17  C   UNL     1     -21.487  -7.134  -5.566  0.00  0.00    +0.005 A 
ATOM     18  C   UNL     1     -22.439  -7.402  -4.491  0.00  0.00    -0.033 A 
ATOM     28  C   UNL     1     -22.063  -8.300  -3.411  0.00  0.00    +0.005 A 
ATOM     29  C   UNL     1     -20.792  -8.916  -3.376  0.00  0.00    +0.013 A 
BRANCH  18  19
ATOM     19  C   UNL     1     -23.838  -6.759  -4.433  0.00  0.00    +0.119 C 
BRANCH  19  20
ATOM     20  N   UNL     1     -24.749  -7.202  -3.336  0.00  0.00    -0.302 NA
ATOM     21  C   UNL     1     -25.953  -7.984  -3.870  0.00  0.00    +0.066 C 
ATOM     22  C   UNL     1     -26.884  -8.458  -2.708  0.00  0.00    -0.064 C 
ATOM     23  N   UNL     1     -27.343  -7.245  -1.897  0.00  0.00    +0.379 N 
ATOM     24  C   UNL     1     -28.265  -7.682  -0.839  0.00  0.00    -0.096 C 
ATOM     25  H   UNL     1     -27.910  -6.575  -2.584  0.00  0.00    -0.082 HD
ATOM     26  C   UNL     1     -26.152  -6.460  -1.365  0.00  0.00    -0.064 C 
ATOM     27  C   UNL     1     -25.218  -6.018  -2.526  0.00  0.00    +0.066 C 
ENDBRANCH  19  20
ENDBRANCH  18  19
ENDBRANCH  14  15
ENDBRANCH  12  13
TORSDOF 6
ENDMDL
