MODEL 1
REMARK VINA RESULT:      -9.9      0.000      0.000
REMARK  Name = C:\Users\Docking\Desktop\test protocol\1iep_ligandH.pdb
REMARK  8 active torsions:
REMARK  status: ('A' for Active; 'I' for Inactive)
REMARK    1  A    between atoms: _5  and  _11
REMARK    2  A    between atoms: _19  and  _21
REMARK    3  A    between atoms: _22  and  _66
REMARK    4  A    between atoms: _27  and  _30
REMARK    5  A    between atoms: _32  and  _33
REMARK    6  A    between atoms: _38  and  _43
REMARK    7  A    between atoms: _43  and  _46
REMARK    8  A    between atoms: _53  and  _55
REMARK                            x       y       z     vdW  Elec       q    Type
REMARK                         _______ _______ _______ _____ _____    ______ ____
ROOT
ATOM     10  C   UNL     1      12.697  16.905  32.200  0.00  0.00    +0.038 A 
ATOM     11  C   UNL     1      12.696  18.127  32.920  0.00  0.00    +0.047 A 
ATOM     12  C   UNL     1      13.363  18.243  34.207  0.00  0.00    +0.035 A 
ATOM     32  C   UNL     1      14.026  17.095  34.730  0.00  0.00    +0.024 A 
ATOM     33  C   UNL     1      14.037  15.845  34.012  0.00  0.00    +0.007 A 
ATOM     34  C   UNL     1      13.378  15.723  32.744  0.00  0.00    -0.029 A 
ATOM     35  C   UNL     1      13.416  14.356  32.021  0.00  0.00    +0.045 C 
ENDROOT
BRANCH  10   9
ATOM      4  C   UNL     1      12.587  17.455  27.433  0.00  0.00    +0.077 A 
ATOM      5  C   UNL     1      13.944  17.917  27.396  0.00  0.00    +0.048 A 
ATOM      6  C   UNL     1      14.634  18.006  28.626  0.00  0.00    +0.116 A 
ATOM      7  N   UNL     1      14.003  17.655  29.800  0.00  0.00    -0.223 NA
ATOM      8  C   UNL     1      12.692  17.215  29.801  0.00  0.00    +0.220 A 
ATOM      9  N   UNL     1      12.041  16.850  30.969  0.00  0.00    -0.283 N 
ATOM     36  H   UNL     1      11.071  16.537  30.928  0.00  0.00    +0.155 HD
ATOM     37  N   UNL     1      12.012  17.123  28.639  0.00  0.00    -0.214 NA
BRANCH   4   3
ATOM      1  C   UNL     1      11.051  17.923  23.866  0.00  0.00    +0.020 A 
ATOM      2  C   UNL     1      11.908  18.109  25.015  0.00  0.00    +0.013 A 
ATOM      3  C   UNL     1      11.728  17.304  26.216  0.00  0.00    +0.019 A 
ATOM     38  C   UNL     1      10.664  16.311  26.223  0.00  0.00    +0.120 A 
ATOM     39  N   UNL     1       9.854  16.155  25.103  0.00  0.00    -0.263 NA
ATOM     40  C   UNL     1      10.016  16.926  23.941  0.00  0.00    +0.111 A 
ENDBRANCH   4   3
ENDBRANCH  10   9
BRANCH  12  13
ATOM     13  N   UNL     1      13.388  19.456  34.987  0.00  0.00    -0.281 N 
ATOM     14  C   UNL     1      12.788  19.692  36.213  0.00  0.00    +0.248 C 
ATOM     30  O   UNL     1      11.956  18.959  36.728  0.00  0.00    -0.270 OA
ATOM     31  H   UNL     1      13.911  20.235  34.587  0.00  0.00    +0.155 HD
BRANCH  14  15
ATOM     15  C   UNL     1      13.155  20.927  36.970  0.00  0.00    +0.037 A 
ATOM     16  C   UNL     1      13.081  22.251  36.347  0.00  0.00    +0.013 A 
ATOM     17  C   UNL     1      13.457  23.425  37.094  0.00  0.00    +0.005 A 
ATOM     18  C   UNL     1      13.908  23.279  38.476  0.00  0.00    -0.033 A 
ATOM     28  C   UNL     1      13.967  21.955  39.072  0.00  0.00    +0.005 A 
ATOM     29  C   UNL     1      13.601  20.802  38.342  0.00  0.00    +0.013 A 
BRANCH  18  19
ATOM     19  C   UNL     1      14.349  24.475  39.342  0.00  0.00    +0.119 C 
BRANCH  19  20
ATOM     20  N   UNL     1      15.805  24.597  39.648  0.00  0.00    -0.302 NA
ATOM     21  C   UNL     1      16.096  24.410  41.140  0.00  0.00    +0.066 C 
ATOM     22  C   UNL     1      17.626  24.519  41.440  0.00  0.00    -0.064 C 
ATOM     23  N   UNL     1      18.144  25.873  40.953  0.00  0.00    +0.379 N 
ATOM     24  C   UNL     1      19.570  26.002  41.285  0.00  0.00    -0.096 C 
ATOM     25  H   UNL     1      17.593  26.666  41.511  0.00  0.00    -0.082 HD
ATOM     26  C   UNL     1      17.856  26.068  39.471  0.00  0.00    -0.064 C 
ATOM     27  C   UNL     1      16.336  25.929  39.180  0.00  0.00    +0.066 C 
ENDBRANCH  19  20
ENDBRANCH  18  19
ENDBRANCH  14  15
ENDBRANCH  12  13
TORSDOF 6
ENDMDL
MODEL 2
REMARK VINA RESULT:      -9.6      3.364     13.301
REMARK  Name = C:\Users\Docking\Desktop\test protocol\1iep_ligandH.pdb
REMARK  8 active torsions:
REMARK  status: ('A' for Active; 'I' for Inactive)
REMARK    1  A    between atoms: _5  and  _11
REMARK    2  A    between atoms: _19  and  _21
REMARK    3  A    between atoms: _22  and  _66
REMARK    4  A    between atoms: _27  and  _30
REMARK    5  A    between atoms: _32  and  _33
REMARK    6  A    between atoms: _38  and  _43
REMARK    7  A    between atoms: _43  and  _46
REMARK    8  A    between atoms: _53  and  _55
REMARK                            x       y       z     vdW  Elec       q    Type
REMARK                         _______ _______ _______ _____ _____    ______ ____
ROOT
ATOM     10  C   UNL     1      14.879  17.910  31.896  0.00  0.00    +0.038 A 
ATOM     11  C   UNL     1      14.469  18.203  30.571  0.00  0.00    +0.047 A 
ATOM     12  C   UNL     1      14.602  17.220  29.507  0.00  0.00    +0.035 A 
ATOM     32  C   UNL     1      15.154  15.946  29.829  0.00  0.00    +0.024 A 
ATOM     33  C   UNL     1      15.577  15.631  31.171  0.00  0.00    +0.007 A 
ATOM     34  C   UNL     1      15.451  16.598  32.224  0.00  0.00    -0.029 A 
ATOM     35  C   UNL     1      15.927  16.209  33.643  0.00  0.00    +0.045 C 
ENDROOT
BRANCH  10   9
ATOM      4  C   UNL     1      12.594  19.812  35.664  0.00  0.00    +0.077 A 
ATOM      5  C   UNL     1      11.600  18.778  35.659  0.00  0.00    +0.048 A 
ATOM      6  C   UNL     1      11.709  17.779  34.665  0.00  0.00    +0.116 A 
ATOM      7  N   UNL     1      12.739  17.821  33.751  0.00  0.00    -0.223 NA
ATOM      8  C   UNL     1      13.680  18.834  33.783  0.00  0.00    +0.220 A 
ATOM      9  N   UNL     1      14.729  18.891  32.879  0.00  0.00    -0.283 N 
ATOM     36  H   UNL     1      15.398  19.659  32.931  0.00  0.00    +0.155 HD
ATOM     37  N   UNL     1      13.598  19.800  34.721  0.00  0.00    -0.214 NA
BRANCH   4   3
ATOM      1  C   UNL     1      12.227  21.899  38.952  0.00  0.00    +0.020 A 
ATOM      2  C   UNL     1      12.185  20.782  38.037  0.00  0.00    +0.013 A 
ATOM      3  C   UNL     1      12.617  20.936  36.653  0.00  0.00    +0.019 A 
ATOM     38  C   UNL     1      13.090  22.243  36.224  0.00  0.00    +0.120 A 
ATOM     39  N   UNL     1      13.118  23.301  37.128  0.00  0.00    -0.263 NA
ATOM     40  C   UNL     1      12.704  23.166  38.461  0.00  0.00    +0.111 A 
ENDBRANCH   4   3
ENDBRANCH  10   9
BRANCH  12  13
ATOM     13  N   UNL     1      14.210  17.464  28.141  0.00  0.00    -0.281 N 
ATOM     14  C   UNL     1      12.939  17.716  27.651  0.00  0.00    +0.248 C 
ATOM     30  O   UNL     1      11.909  17.558  28.289  0.00  0.00    -0.270 OA
ATOM     31  H   UNL     1      14.961  17.449  27.451  0.00  0.00    +0.155 HD
BRANCH  14  15
ATOM     15  C   UNL     1      12.789  18.200  26.245  0.00  0.00    +0.037 A 
ATOM     16  C   UNL     1      11.549  17.986  25.495  0.00  0.00    +0.013 A 
ATOM     17  C   UNL     1      11.437  18.447  24.135  0.00  0.00    +0.005 A 
ATOM     18  C   UNL     1      12.570  19.130  23.515  0.00  0.00    -0.033 A 
ATOM     28  C   UNL     1      13.787  19.334  24.283  0.00  0.00    +0.005 A 
ATOM     29  C   UNL     1      13.901  18.882  25.617  0.00  0.00    +0.013 A 
BRANCH  18  19
ATOM     19  C   UNL     1      12.548  19.638  22.061  0.00  0.00    +0.119 C 
BRANCH  19  20
ATOM     20  N   UNL     1      13.115  18.738  21.013  0.00  0.00    -0.302 NA
ATOM     21  C   UNL     1      12.587  17.306  21.139  0.00  0.00    +0.066 C 
ATOM     22  C   UNL     1      13.173  16.383  20.022  0.00  0.00    -0.064 C 
ATOM     23  N   UNL     1      14.701  16.405  20.095  0.00  0.00    +0.379 N 
ATOM     24  C   UNL     1      15.254  15.493  19.083  0.00  0.00    -0.096 C 
ATOM     25  H   UNL     1      14.997  16.017  21.098  0.00  0.00    -0.082 HD
ATOM     26  C   UNL     1      15.234  17.825  19.973  0.00  0.00    -0.064 C 
ATOM     27  C   UNL     1      14.623  18.741  21.070  0.00  0.00    +0.066 C 
ENDBRANCH  19  20
ENDBRANCH  18  19
ENDBRANCH  14  15
ENDBRANCH  12  13
TORSDOF 6
ENDMDL
MODEL 3
REMARK VINA RESULT:      -9.2      2.978      5.730
REMARK  Name = C:\Users\Docking\Desktop\test protocol\1iep_ligandH.pdb
REMARK  8 active torsions:
REMARK  status: ('A' for Active; 'I' for Inactive)
REMARK    1  A    between atoms: _5  and  _11
REMARK    2  A    between atoms: _19  and  _21
REMARK    3  A    between atoms: _22  and  _66
REMARK    4  A    between atoms: _27  and  _30
REMARK    5  A    between atoms: _32  and  _33
REMARK    6  A    between atoms: _38  and  _43
REMARK    7  A    between atoms: _43  and  _46
REMARK    8  A    between atoms: _53  and  _55
REMARK                            x       y       z     vdW  Elec       q    Type
REMARK                         _______ _______ _______ _____ _____    ______ ____
ROOT
ATOM     10  C   UNL     1      12.829  16.653  32.581  0.00  0.00    +0.038 A 
ATOM     11  C   UNL     1      12.826  17.608  33.630  0.00  0.00    +0.047 A 
ATOM     12  C   UNL     1      13.394  18.934  33.442  0.00  0.00    +0.035 A 
ATOM     32  C   UNL     1      13.954  19.255  32.172  0.00  0.00    +0.024 A 
ATOM     33  C   UNL     1      13.966  18.297  31.095  0.00  0.00    +0.007 A 
ATOM     34  C   UNL     1      13.410  16.986  31.275  0.00  0.00    -0.029 A 
ATOM     35  C   UNL     1      13.456  15.997  30.087  0.00  0.00    +0.045 C 
ENDROOT
BRANCH  10   9
ATOM      4  C   UNL     1      13.196  12.010  33.740  0.00  0.00    +0.077 A 
ATOM      5  C   UNL     1      14.623  12.092  33.861  0.00  0.00    +0.048 A 
ATOM      6  C   UNL     1      15.225  13.345  33.609  0.00  0.00    +0.116 A 
ATOM      7  N   UNL     1      14.447  14.429  33.264  0.00  0.00    -0.223 NA
ATOM      8  C   UNL     1      13.073  14.316  33.155  0.00  0.00    +0.220 A 
ATOM      9  N   UNL     1      12.271  15.395  32.817  0.00  0.00    -0.283 N 
ATOM     36  H   UNL     1      11.262  15.268  32.740  0.00  0.00    +0.155 HD
ATOM     37  N   UNL     1      12.475  13.129  33.389  0.00  0.00    -0.214 NA
BRANCH   4   3
ATOM      1  C   UNL     1      12.180   8.395  34.838  0.00  0.00    +0.020 A 
ATOM      2  C   UNL     1      12.978   9.582  34.632  0.00  0.00    +0.013 A 
ATOM      3  C   UNL     1      12.414  10.755  33.978  0.00  0.00    +0.019 A 
ATOM     38  C   UNL     1      11.027  10.696  33.541  0.00  0.00    +0.120 A 
ATOM     39  N   UNL     1      10.283   9.539  33.751  0.00  0.00    -0.263 NA
ATOM     40  C   UNL     1      10.816   8.403  34.378  0.00  0.00    +0.111 A 
ENDBRANCH   4   3
ENDBRANCH  10   9
BRANCH  12  13
ATOM     13  N   UNL     1      13.426  19.942  34.473  0.00  0.00    -0.281 N 
ATOM     14  C   UNL     1      12.894  19.872  35.750  0.00  0.00    +0.248 C 
ATOM     30  O   UNL     1      12.119  19.007  36.129  0.00  0.00    -0.270 OA
ATOM     31  H   UNL     1      13.900  20.813  34.232  0.00  0.00    +0.155 HD
BRANCH  14  15
ATOM     15  C   UNL     1      13.266  20.922  36.746  0.00  0.00    +0.037 A 
ATOM     16  C   UNL     1      13.541  20.581  38.144  0.00  0.00    +0.013 A 
ATOM     17  C   UNL     1      13.881  21.616  39.088  0.00  0.00    +0.005 A 
ATOM     18  C   UNL     1      13.949  23.003  38.636  0.00  0.00    -0.033 A 
ATOM     28  C   UNL     1      13.676  23.313  37.242  0.00  0.00    +0.005 A 
ATOM     29  C   UNL     1      13.342  22.302  36.314  0.00  0.00    +0.013 A 
BRANCH  18  19
ATOM     19  C   UNL     1      14.283  24.174  39.578  0.00  0.00    +0.119 C 
BRANCH  19  20
ATOM     20  N   UNL     1      15.716  24.581  39.683  0.00  0.00    -0.302 NA
ATOM     21  C   UNL     1      16.240  24.474  41.118  0.00  0.00    +0.066 C 
ATOM     22  C   UNL     1      17.747  24.881  41.205  0.00  0.00    -0.064 C 
ATOM     23  N   UNL     1      17.921  26.303  40.669  0.00  0.00    +0.379 N 
ATOM     24  C   UNL     1      19.327  26.710  40.803  0.00  0.00    -0.096 C 
ATOM     25  H   UNL     1      17.309  26.982  41.309  0.00  0.00    -0.082 HD
ATOM     26  C   UNL     1      17.399  26.419  39.244  0.00  0.00    -0.064 C 
ATOM     27  C   UNL     1      15.909  25.984  39.163  0.00  0.00    +0.066 C 
ENDBRANCH  19  20
ENDBRANCH  18  19
ENDBRANCH  14  15
ENDBRANCH  12  13
TORSDOF 6
ENDMDL
MODEL 4
REMARK VINA RESULT:      -9.1     20.262     26.764
REMARK  Name = C:\Users\Docking\Desktop\test protocol\1iep_ligandH.pdb
REMARK  8 active torsions:
REMARK  status: ('A' for Active; 'I' for Inactive)
REMARK    1  A    between atoms: _5  and  _11
REMARK    2  A    between atoms: _19  and  _21
REMARK    3  A    between atoms: _22  and  _66
REMARK    4  A    between atoms: _27  and  _30
REMARK    5  A    between atoms: _32  and  _33
REMARK    6  A    between atoms: _38  and  _43
REMARK    7  A    between atoms: _43  and  _46
REMARK    8  A    between atoms: _53  and  _55
REMARK                            x       y       z     vdW  Elec       q    Type
REMARK                         _______ _______ _______ _____ _____    ______ ____
ROOT
ATOM     10  C   UNL     1      33.971  32.802  33.059  0.00  0.00    +0.038 A 
ATOM     11  C   UNL     1      33.886  33.920  33.928  0.00  0.00    +0.047 A 
ATOM     12  C   UNL     1      34.547  35.175  33.606  0.00  0.00    +0.035 A 
ATOM     32  C   UNL     1      35.283  35.258  32.388  0.00  0.00    +0.024 A 
ATOM     33  C   UNL     1      35.381  34.132  31.493  0.00  0.00    +0.007 A 
ATOM     34  C   UNL     1      34.733  32.890  31.807  0.00  0.00    -0.029 A 
ATOM     35  C   UNL     1      34.877  31.713  30.814  0.00  0.00    +0.045 C 
ENDROOT
BRANCH  10   9
ATOM      4  C   UNL     1      33.711  28.687  35.516  0.00  0.00    +0.077 A 
ATOM      5  C   UNL     1      34.998  28.895  36.115  0.00  0.00    +0.048 A 
ATOM      6  C   UNL     1      35.697  30.070  35.759  0.00  0.00    +0.116 A 
ATOM      7  N   UNL     1      35.142  30.963  34.869  0.00  0.00    -0.223 NA
ATOM      8  C   UNL     1      33.899  30.732  34.308  0.00  0.00    +0.220 A 
ATOM      9  N   UNL     1      33.318  31.621  33.417  0.00  0.00    -0.283 N 
ATOM     36  H   UNL     1      32.402  31.411  33.020  0.00  0.00    +0.155 HD
ATOM     37  N   UNL     1      33.211  29.617  34.631  0.00  0.00    -0.214 NA
BRANCH   4   3
ATOM      1  C   UNL     1      31.080  25.816  35.151  0.00  0.00    +0.020 A 
ATOM      2  C   UNL     1      31.888  26.970  34.832  0.00  0.00    +0.013 A 
ATOM      3  C   UNL     1      32.848  27.496  35.794  0.00  0.00    +0.019 A 
ATOM     38  C   UNL     1      32.967  26.825  37.080  0.00  0.00    +0.120 A 
ATOM     39  N   UNL     1      32.174  25.716  37.359  0.00  0.00    -0.263 NA
ATOM     40  C   UNL     1      31.246  25.202  36.442  0.00  0.00    +0.111 A 
ENDBRANCH   4   3
ENDBRANCH  10   9
BRANCH  12  13
ATOM     13  N   UNL     1      34.503  36.341  34.453  0.00  0.00    -0.281 N 
ATOM     14  C   UNL     1      35.342  37.443  34.430  0.00  0.00    +0.248 C 
ATOM     30  O   UNL     1      36.396  37.496  33.814  0.00  0.00    -0.270 OA
ATOM     31  H   UNL     1      33.762  36.356  35.155  0.00  0.00    +0.155 HD
BRANCH  14  15
ATOM     15  C   UNL     1      34.963  38.656  35.217  0.00  0.00    +0.037 A 
ATOM     16  C   UNL     1      33.688  39.340  34.991  0.00  0.00    +0.013 A 
ATOM     17  C   UNL     1      33.355  40.518  35.752  0.00  0.00    +0.005 A 
ATOM     18  C   UNL     1      34.299  41.018  36.748  0.00  0.00    -0.033 A 
ATOM     28  C   UNL     1      35.555  40.317  36.956  0.00  0.00    +0.005 A 
ATOM     29  C   UNL     1      35.886  39.162  36.211  0.00  0.00    +0.013 A 
BRANCH  18  19
ATOM     19  C   UNL     1      34.036  42.280  37.591  0.00  0.00    +0.119 C 
BRANCH  19  20
ATOM     20  N   UNL     1      35.225  42.989  38.151  0.00  0.00    -0.302 NA
ATOM     21  C   UNL     1      35.375  42.757  39.657  0.00  0.00    +0.066 C 
ATOM     22  C   UNL     1      36.637  43.487  40.223  0.00  0.00    -0.064 C 
ATOM     23  N   UNL     1      36.540  44.982  39.912  0.00  0.00    +0.379 N 
ATOM     24  C   UNL     1      37.696  45.679  40.492  0.00  0.00    -0.096 C 
ATOM     25  H   UNL     1      35.623  45.372  40.411  0.00  0.00    -0.082 HD
ATOM     26  C   UNL     1      36.388  45.221  38.416  0.00  0.00    -0.064 C 
ATOM     27  C   UNL     1      35.148  44.467  37.859  0.00  0.00    +0.066 C 
ENDBRANCH  19  20
ENDBRANCH  18  19
ENDBRANCH  14  15
ENDBRANCH  12  13
TORSDOF 6
ENDMDL
MODEL 5
REMARK VINA RESULT:      -9.0     19.272     26.770
REMARK  Name = C:\Users\Docking\Desktop\test protocol\1iep_ligandH.pdb
REMARK  8 active torsions:
REMARK  status: ('A' for Active; 'I' for Inactive)
REMARK    1  A    between atoms: _5  and  _11
REMARK    2  A    between atoms: _19  and  _21
REMARK    3  A    between atoms: _22  and  _66
REMARK    4  A    between atoms: _27  and  _30
REMARK    5  A    between atoms: _32  and  _33
REMARK    6  A    between atoms: _38  and  _43
REMARK    7  A    between atoms: _43  and  _46
REMARK    8  A    between atoms: _53  and  _55
REMARK                            x       y       z     vdW  Elec       q    Type
REMARK                         _______ _______ _______ _____ _____    ______ ____
ROOT
ATOM     10  C   UNL     1      34.414  35.746  33.014  0.00  0.00    +0.038 A 
ATOM     11  C   UNL     1      34.095  34.459  33.517  0.00  0.00    +0.047 A 
ATOM     12  C   UNL     1      34.524  33.253  32.826  0.00  0.00    +0.035 A 
ATOM     32  C   UNL     1      35.280  33.395  31.626  0.00  0.00    +0.024 A 
ATOM     33  C   UNL     1      35.612  34.696  31.100  0.00  0.00    +0.007 A 
ATOM     34  C   UNL     1      35.189  35.889  31.776  0.00  0.00    -0.029 A 
ATOM     35  C   UNL     1      35.569  37.257  31.162  0.00  0.00    +0.045 C 
ENDROOT
BRANCH  10   9
ATOM      4  C   UNL     1      35.156  39.405  36.031  0.00  0.00    +0.077 A 
ATOM      5  C   UNL     1      36.524  39.029  36.244  0.00  0.00    +0.048 A 
ATOM      6  C   UNL     1      36.996  37.884  35.563  0.00  0.00    +0.116 A 
ATOM      7  N   UNL     1      36.154  37.175  34.734  0.00  0.00    -0.223 NA
ATOM      8  C   UNL     1      34.839  37.564  34.553  0.00  0.00    +0.220 A 
ATOM      9  N   UNL     1      33.976  36.870  33.718  0.00  0.00    -0.283 N 
ATOM     36  H   UNL     1      33.011  37.184  33.617  0.00  0.00    +0.155 HD
ATOM     37  N   UNL     1      34.364  38.653  35.193  0.00  0.00    -0.214 NA
BRANCH   4   3
ATOM      1  C   UNL     1      32.495  41.922  37.403  0.00  0.00    +0.020 A 
ATOM      2  C   UNL     1      33.066  40.756  36.769  0.00  0.00    +0.013 A 
ATOM      3  C   UNL     1      34.512  40.592  36.677  0.00  0.00    +0.019 A 
ATOM     38  C   UNL     1      35.357  41.633  37.241  0.00  0.00    +0.120 A 
ATOM     39  N   UNL     1      34.779  42.745  37.845  0.00  0.00    -0.263 NA
ATOM     40  C   UNL     1      33.389  42.915  37.938  0.00  0.00    +0.111 A 
ENDBRANCH   4   3
ENDBRANCH  10   9
BRANCH  12  13
ATOM     13  N   UNL     1      34.223  31.920  33.285  0.00  0.00    -0.281 N 
ATOM     14  C   UNL     1      34.679  31.290  34.431  0.00  0.00    +0.248 C 
ATOM     30  O   UNL     1      35.591  31.705  35.131  0.00  0.00    -0.270 OA
ATOM     31  H   UNL     1      33.597  31.374  32.693  0.00  0.00    +0.155 HD
BRANCH  14  15
ATOM     15  C   UNL     1      34.040  30.007  34.853  0.00  0.00    +0.037 A 
ATOM     16  C   UNL     1      34.359  29.387  36.142  0.00  0.00    +0.013 A 
ATOM     17  C   UNL     1      33.741  28.140  36.518  0.00  0.00    +0.005 A 
ATOM     18  C   UNL     1      32.796  27.505  35.602  0.00  0.00    -0.033 A 
ATOM     28  C   UNL     1      32.494  28.144  34.332  0.00  0.00    +0.005 A 
ATOM     29  C   UNL     1      33.099  29.366  33.960  0.00  0.00    +0.013 A 
BRANCH  18  19
ATOM     19  C   UNL     1      32.106  26.163  35.911  0.00  0.00    +0.119 C 
BRANCH  19  20
ATOM     20  N   UNL     1      31.633  25.944  37.310  0.00  0.00    -0.302 NA
ATOM     21  C   UNL     1      32.202  24.657  37.914  0.00  0.00    +0.066 C 
ATOM     22  C   UNL     1      31.715  24.455  39.386  0.00  0.00    -0.064 C 
ATOM     23  N   UNL     1      30.185  24.437  39.416  0.00  0.00    +0.379 N 
ATOM     24  C   UNL     1      29.724  24.189  40.790  0.00  0.00    -0.096 C 
ATOM     25  H   UNL     1      29.845  23.583  38.786  0.00  0.00    -0.082 HD
ATOM     26  C   UNL     1      29.611  25.712  38.815  0.00  0.00    -0.064 C 
ATOM     27  C   UNL     1      30.125  25.918  37.362  0.00  0.00    +0.066 C 
ENDBRANCH  19  20
ENDBRANCH  18  19
ENDBRANCH  14  15
ENDBRANCH  12  13
TORSDOF 6
ENDMDL
