MODEL 1
REMARK VINA RESULT:     -10.7      0.000      0.000
REMARK  Name = C:\Users\Docking\Desktop\test protocol\1iep_ligandH.pdb
REMARK  8 active torsions:
REMARK  status: ('A' for Active; 'I' for Inactive)
REMARK    1  A    between atoms: _5  and  _11
REMARK    2  A    between atoms: _19  and  _21
REMARK    3  A    between atoms: _22  and  _66
REMARK    4  A    between atoms: _27  and  _30
REMARK    5  A    between atoms: _32  and  _33
REMARK    6  A    between atoms: _38  and  _43
REMARK    7  A    between atoms: _43  and  _46
REMARK    8  A    between atoms: _53  and  _55
REMARK                            x       y       z     vdW  Elec       q    Type
REMARK                         _______ _______ _______ _____ _____    ______ ____
ROOT
ATOM     10  C   UNL     1      27.810  48.417  25.122  0.00  0.00    +0.038 A 
ATOM     11  C   UNL     1      26.710  47.599  24.760  0.00  0.00    +0.047 A 
ATOM     12  C   UNL     1      25.437  48.181  24.366  0.00  0.00    +0.035 A 
ATOM     32  C   UNL     1      25.320  49.601  24.348  0.00  0.00    +0.024 A 
ATOM     33  C   UNL     1      26.428  50.448  24.713  0.00  0.00    +0.007 A 
ATOM     34  C   UNL     1      27.686  49.879  25.106  0.00  0.00    -0.029 A 
ATOM     35  C   UNL     1      28.838  50.836  25.493  0.00  0.00    +0.045 C 
ENDROOT
BRANCH  10   9
ATOM      4  C   UNL     1      31.498  45.467  24.264  0.00  0.00    +0.077 A 
ATOM      5  C   UNL     1      30.978  45.094  22.980  0.00  0.00    +0.048 A 
ATOM      6  C   UNL     1      29.755  45.679  22.581  0.00  0.00    +0.116 A 
ATOM      7  N   UNL     1      29.110  46.569  23.411  0.00  0.00    -0.223 NA
ATOM      8  C   UNL     1      29.638  46.906  24.644  0.00  0.00    +0.220 A 
ATOM      9  N   UNL     1      29.010  47.805  25.492  0.00  0.00    -0.283 N 
ATOM     36  H   UNL     1      29.428  48.021  26.397  0.00  0.00    +0.155 HD
ATOM     37  N   UNL     1      30.804  46.360  25.049  0.00  0.00    -0.214 NA
BRANCH   4   3
ATOM      1  C   UNL     1      34.687  43.285  24.875  0.00  0.00    +0.020 A 
ATOM      2  C   UNL     1      33.449  43.755  24.297  0.00  0.00    +0.013 A 
ATOM      3  C   UNL     1      32.782  44.938  24.825  0.00  0.00    +0.019 A 
ATOM     38  C   UNL     1      33.399  45.629  25.947  0.00  0.00    +0.120 A 
ATOM     39  N   UNL     1      34.591  45.153  26.484  0.00  0.00    -0.263 NA
ATOM     40  C   UNL     1      35.241  44.014  25.985  0.00  0.00    +0.111 A 
ENDBRANCH   4   3
ENDBRANCH  10   9
BRANCH  12  13
ATOM     13  N   UNL     1      24.282  47.400  23.996  0.00  0.00    -0.281 N 
ATOM     14  C   UNL     1      24.248  46.093  23.538  0.00  0.00    +0.248 C 
ATOM     30  O   UNL     1      25.230  45.464  23.172  0.00  0.00    -0.270 OA
ATOM     31  H   UNL     1      23.380  47.868  24.082  0.00  0.00    +0.155 HD
BRANCH  14  15
ATOM     15  C   UNL     1      22.933  45.388  23.463  0.00  0.00    +0.037 A 
ATOM     16  C   UNL     1      22.218  44.982  24.675  0.00  0.00    +0.013 A 
ATOM     17  C   UNL     1      20.958  44.288  24.573  0.00  0.00    +0.005 A 
ATOM     18  C   UNL     1      20.405  43.997  23.253  0.00  0.00    -0.033 A 
ATOM     28  C   UNL     1      21.133  44.416  22.067  0.00  0.00    +0.005 A 
ATOM     29  C   UNL     1      22.368  45.096  22.162  0.00  0.00    +0.013 A 
BRANCH  18  19
ATOM     19  C   UNL     1      19.078  43.243  23.050  0.00  0.00    +0.119 C 
BRANCH  19  20
ATOM     20  N   UNL     1      18.091  43.280  24.170  0.00  0.00    -0.302 NA
ATOM     21  C   UNL     1      17.938  41.915  24.846  0.00  0.00    +0.066 C 
ATOM     22  C   UNL     1      16.919  41.978  26.030  0.00  0.00    -0.064 C 
ATOM     23  N   UNL     1      15.570  42.481  25.513  0.00  0.00    +0.379 N 
ATOM     24  C   UNL     1      14.594  42.486  26.612  0.00  0.00    -0.096 C 
ATOM     25  H   UNL     1      15.211  41.757  24.745  0.00  0.00    -0.082 HD
ATOM     26  C   UNL     1      15.714  43.837  24.837  0.00  0.00    -0.064 C 
ATOM     27  C   UNL     1      16.751  43.770  23.680  0.00  0.00    +0.066 C 
ENDBRANCH  19  20
ENDBRANCH  18  19
ENDBRANCH  14  15
ENDBRANCH  12  13
TORSDOF 6
ENDMDL
MODEL 2
REMARK VINA RESULT:     -10.5      1.684      2.023
REMARK  Name = C:\Users\Docking\Desktop\test protocol\1iep_ligandH.pdb
REMARK  8 active torsions:
REMARK  status: ('A' for Active; 'I' for Inactive)
REMARK    1  A    between atoms: _5  and  _11
REMARK    2  A    between atoms: _19  and  _21
REMARK    3  A    between atoms: _22  and  _66
REMARK    4  A    between atoms: _27  and  _30
REMARK    5  A    between atoms: _32  and  _33
REMARK    6  A    between atoms: _38  and  _43
REMARK    7  A    between atoms: _43  and  _46
REMARK    8  A    between atoms: _53  and  _55
REMARK                            x       y       z     vdW  Elec       q    Type
REMARK                         _______ _______ _______ _____ _____    ______ ____
ROOT
ATOM     10  C   UNL     1      28.926  47.549  24.353  0.00  0.00    +0.038 A 
ATOM     11  C   UNL     1      27.649  46.948  24.211  0.00  0.00    +0.047 A 
ATOM     12  C   UNL     1      26.476  47.743  23.882  0.00  0.00    +0.035 A 
ATOM     32  C   UNL     1      26.640  49.147  23.701  0.00  0.00    +0.024 A 
ATOM     33  C   UNL     1      27.931  49.774  23.842  0.00  0.00    +0.007 A 
ATOM     34  C   UNL     1      29.091  48.996  24.169  0.00  0.00    -0.029 A 
ATOM     35  C   UNL     1      30.448  49.722  24.315  0.00  0.00    +0.045 C 
ENDROOT
BRANCH  10   9
ATOM      4  C   UNL     1      31.401  43.452  23.995  0.00  0.00    +0.077 A 
ATOM      5  C   UNL     1      30.422  42.868  23.124  0.00  0.00    +0.048 A 
ATOM      6  C   UNL     1      29.293  43.652  22.798  0.00  0.00    +0.116 A 
ATOM      7  N   UNL     1      29.163  44.925  23.310  0.00  0.00    -0.223 NA
ATOM      8  C   UNL     1      30.124  45.458  24.149  0.00  0.00    +0.220 A 
ATOM      9  N   UNL     1      30.018  46.738  24.670  0.00  0.00    -0.283 N 
ATOM     36  H   UNL     1      30.745  47.092  25.291  0.00  0.00    +0.155 HD
ATOM     37  N   UNL     1      31.211  44.728  24.477  0.00  0.00    -0.214 NA
BRANCH   4   3
ATOM      1  C   UNL     1      33.882  40.782  25.415  0.00  0.00    +0.020 A 
ATOM      2  C   UNL     1      32.647  41.416  25.013  0.00  0.00    +0.013 A 
ATOM      3  C   UNL     1      32.650  42.750  24.428  0.00  0.00    +0.019 A 
ATOM     38  C   UNL     1      33.931  43.422  24.261  0.00  0.00    +0.120 A 
ATOM     39  N   UNL     1      35.103  42.788  24.659  0.00  0.00    -0.263 NA
ATOM     40  C   UNL     1      35.112  41.504  25.224  0.00  0.00    +0.111 A 
ENDBRANCH   4   3
ENDBRANCH  10   9
BRANCH  12  13
ATOM     13  N   UNL     1      25.152  47.190  23.733  0.00  0.00    -0.281 N 
ATOM     14  C   UNL     1      24.804  45.917  23.313  0.00  0.00    +0.248 C 
ATOM     30  O   UNL     1      25.576  45.125  22.794  0.00  0.00    -0.270 OA
ATOM     31  H   UNL     1      24.379  47.813  23.966  0.00  0.00    +0.155 HD
BRANCH  14  15
ATOM     15  C   UNL     1      23.389  45.463  23.480  0.00  0.00    +0.037 A 
ATOM     16  C   UNL     1      22.737  45.478  24.792  0.00  0.00    +0.013 A 
ATOM     17  C   UNL     1      21.377  45.019  24.928  0.00  0.00    +0.005 A 
ATOM     18  C   UNL     1      20.660  44.542  23.748  0.00  0.00    -0.033 A 
ATOM     28  C   UNL     1      21.330  44.544  22.458  0.00  0.00    +0.005 A 
ATOM     29  C   UNL     1      22.663  44.992  22.321  0.00  0.00    +0.013 A 
BRANCH  18  19
ATOM     19  C   UNL     1      19.214  44.015  23.804  0.00  0.00    +0.119 C 
BRANCH  19  20
ATOM     20  N   UNL     1      18.996  42.685  24.447  0.00  0.00    -0.302 NA
ATOM     21  C   UNL     1      17.768  41.967  23.881  0.00  0.00    +0.066 C 
ATOM     22  C   UNL     1      17.568  40.568  24.549  0.00  0.00    -0.064 C 
ATOM     23  N   UNL     1      17.443  40.742  26.064  0.00  0.00    +0.379 N 
ATOM     24  C   UNL     1      17.197  39.435  26.689  0.00  0.00    -0.096 C 
ATOM     25  H   UNL     1      16.552  41.383  26.258  0.00  0.00    -0.082 HD
ATOM     26  C   UNL     1      18.659  41.457  26.635  0.00  0.00    -0.064 C 
ATOM     27  C   UNL     1      18.866  42.834  25.943  0.00  0.00    +0.066 C 
ENDBRANCH  19  20
ENDBRANCH  18  19
ENDBRANCH  14  15
ENDBRANCH  12  13
TORSDOF 6
ENDMDL
MODEL 3
REMARK VINA RESULT:     -10.3     11.333     17.101
REMARK  Name = C:\Users\Docking\Desktop\test protocol\1iep_ligandH.pdb
REMARK  8 active torsions:
REMARK  status: ('A' for Active; 'I' for Inactive)
REMARK    1  A    between atoms: _5  and  _11
REMARK    2  A    between atoms: _19  and  _21
REMARK    3  A    between atoms: _22  and  _66
REMARK    4  A    between atoms: _27  and  _30
REMARK    5  A    between atoms: _32  and  _33
REMARK    6  A    between atoms: _38  and  _43
REMARK    7  A    between atoms: _43  and  _46
REMARK    8  A    between atoms: _53  and  _55
REMARK                            x       y       z     vdW  Elec       q    Type
REMARK                         _______ _______ _______ _____ _____    ______ ____
ROOT
ATOM     10  C   UNL     1      14.555  50.059  35.441  0.00  0.00    +0.038 A 
ATOM     11  C   UNL     1      14.369  49.010  34.505  0.00  0.00    +0.047 A 
ATOM     12  C   UNL     1      13.898  49.280  33.156  0.00  0.00    +0.035 A 
ATOM     32  C   UNL     1      13.629  50.632  32.792  0.00  0.00    +0.024 A 
ATOM     33  C   UNL     1      13.811  51.711  33.731  0.00  0.00    +0.007 A 
ATOM     34  C   UNL     1      14.273  51.450  35.065  0.00  0.00    -0.029 A 
ATOM     35  C   UNL     1      14.444  52.645  36.032  0.00  0.00    +0.045 C 
ENDROOT
BRANCH  10   9
ATOM      4  C   UNL     1      13.810  49.221  40.108  0.00  0.00    +0.077 A 
ATOM      5  C   UNL     1      12.401  49.460  39.987  0.00  0.00    +0.048 A 
ATOM      6  C   UNL     1      11.909  49.803  38.708  0.00  0.00    +0.116 A 
ATOM      7  N   UNL     1      12.771  49.897  37.637  0.00  0.00    -0.223 NA
ATOM      8  C   UNL     1      14.125  49.662  37.789  0.00  0.00    +0.220 A 
ATOM      9  N   UNL     1      15.009  49.743  36.724  0.00  0.00    -0.283 N 
ATOM     36  H   UNL     1      16.002  49.569  36.878  0.00  0.00    +0.155 HD
ATOM     37  N   UNL     1      14.620  49.334  39.000  0.00  0.00    -0.214 NA
BRANCH   4   3
ATOM      1  C   UNL     1      15.691  47.217  42.892  0.00  0.00    +0.020 A 
ATOM      2  C   UNL     1      15.054  47.528  41.633  0.00  0.00    +0.013 A 
ATOM      3  C   UNL     1      14.481  48.846  41.393  0.00  0.00    +0.019 A 
ATOM     38  C   UNL     1      14.570  49.835  42.457  0.00  0.00    +0.120 A 
ATOM     39  N   UNL     1      15.188  49.507  43.659  0.00  0.00    -0.263 NA
ATOM     40  C   UNL     1      15.742  48.241  43.902  0.00  0.00    +0.111 A 
ENDBRANCH   4   3
ENDBRANCH  10   9
BRANCH  12  13
ATOM     13  N   UNL     1      13.683  48.255  32.165  0.00  0.00    -0.281 N 
ATOM     14  C   UNL     1      12.692  48.200  31.198  0.00  0.00    +0.248 C 
ATOM     30  O   UNL     1      11.707  48.922  31.176  0.00  0.00    -0.270 OA
ATOM     31  H   UNL     1      14.341  47.476  32.178  0.00  0.00    +0.155 HD
BRANCH  14  15
ATOM     15  C   UNL     1      12.805  47.185  30.106  0.00  0.00    +0.037 A 
ATOM     16  C   UNL     1      12.836  47.586  28.697  0.00  0.00    +0.013 A 
ATOM     17  C   UNL     1      12.929  46.586  27.663  0.00  0.00    +0.005 A 
ATOM     18  C   UNL     1      12.992  45.175  28.035  0.00  0.00    -0.033 A 
ATOM     28  C   UNL     1      12.964  44.806  29.440  0.00  0.00    +0.005 A 
ATOM     29  C   UNL     1      12.873  45.783  30.457  0.00  0.00    +0.013 A 
BRANCH  18  19
ATOM     19  C   UNL     1      13.070  44.040  26.997  0.00  0.00    +0.119 C 
BRANCH  19  20
ATOM     20  N   UNL     1      14.414  43.729  26.423  0.00  0.00    -0.302 NA
ATOM     21  C   UNL     1      14.464  43.974  24.913  0.00  0.00    +0.066 C 
ATOM     22  C   UNL     1      15.883  43.666  24.333  0.00  0.00    -0.064 C 
ATOM     23  N   UNL     1      16.261  42.220  24.660  0.00  0.00    +0.379 N 
ATOM     24  C   UNL     1      17.570  41.909  24.067  0.00  0.00    -0.096 C 
ATOM     25  H   UNL     1      15.505  41.556  24.180  0.00  0.00    -0.082 HD
ATOM     26  C   UNL     1      16.211  41.967  26.160  0.00  0.00    -0.064 C 
ATOM     27  C   UNL     1      14.805  42.305  26.731  0.00  0.00    +0.066 C 
ENDBRANCH  19  20
ENDBRANCH  18  19
ENDBRANCH  14  15
ENDBRANCH  12  13
TORSDOF 6
ENDMDL
MODEL 4
REMARK VINA RESULT:     -10.1     11.054     17.239
REMARK  Name = C:\Users\Docking\Desktop\test protocol\1iep_ligandH.pdb
REMARK  8 active torsions:
REMARK  status: ('A' for Active; 'I' for Inactive)
REMARK    1  A    between atoms: _5  and  _11
REMARK    2  A    between atoms: _19  and  _21
REMARK    3  A    between atoms: _22  and  _66
REMARK    4  A    between atoms: _27  and  _30
REMARK    5  A    between atoms: _32  and  _33
REMARK    6  A    between atoms: _38  and  _43
REMARK    7  A    between atoms: _43  and  _46
REMARK    8  A    between atoms: _53  and  _55
REMARK                            x       y       z     vdW  Elec       q    Type
REMARK                         _______ _______ _______ _____ _____    ______ ____
ROOT
ATOM     10  C   UNL     1      13.209  50.801  34.499  0.00  0.00    +0.038 A 
ATOM     11  C   UNL     1      13.029  49.634  33.714  0.00  0.00    +0.047 A 
ATOM     12  C   UNL     1      13.490  49.576  32.335  0.00  0.00    +0.035 A 
ATOM     32  C   UNL     1      14.132  50.726  31.789  0.00  0.00    +0.024 A 
ATOM     33  C   UNL     1      14.322  51.921  32.573  0.00  0.00    +0.007 A 
ATOM     34  C   UNL     1      13.867  51.984  33.933  0.00  0.00    -0.029 A 
ATOM     35  C   UNL     1      14.092  53.293  34.724  0.00  0.00    +0.045 C 
ENDROOT
BRANCH  10   9
ATOM      4  C   UNL     1      13.721  49.786  39.163  0.00  0.00    +0.077 A 
ATOM      5  C   UNL     1      15.004  49.181  38.951  0.00  0.00    +0.048 A 
ATOM      6  C   UNL     1      15.493  49.144  37.626  0.00  0.00    +0.116 A 
ATOM      7  N   UNL     1      14.747  49.677  36.597  0.00  0.00    -0.223 NA
ATOM      8  C   UNL     1      13.512  50.252  36.836  0.00  0.00    +0.220 A 
ATOM      9  N   UNL     1      12.748  50.801  35.818  0.00  0.00    -0.283 N 
ATOM     36  H   UNL     1      11.839  51.209  36.034  0.00  0.00    +0.155 HD
ATOM     37  N   UNL     1      13.022  50.298  38.092  0.00  0.00    -0.214 NA
BRANCH   4   3
ATOM      1  C   UNL     1      12.663  49.120  42.869  0.00  0.00    +0.020 A 
ATOM      2  C   UNL     1      13.316  48.961  41.590  0.00  0.00    +0.013 A 
ATOM      3  C   UNL     1      13.070  49.903  40.506  0.00  0.00    +0.019 A 
ATOM     38  C   UNL     1      12.151  51.005  40.751  0.00  0.00    +0.120 A 
ATOM     39  N   UNL     1      11.536  51.132  41.992  0.00  0.00    -0.263 NA
ATOM     40  C   UNL     1      11.763  50.230  43.042  0.00  0.00    +0.111 A 
ENDBRANCH   4   3
ENDBRANCH  10   9
BRANCH  12  13
ATOM     13  N   UNL     1      13.328  48.422  31.486  0.00  0.00    -0.281 N 
ATOM     14  C   UNL     1      12.471  48.271  30.409  0.00  0.00    +0.248 C 
ATOM     30  O   UNL     1      11.555  49.035  30.141  0.00  0.00    -0.270 OA
ATOM     31  H   UNL     1      13.916  47.618  31.707  0.00  0.00    +0.155 HD
BRANCH  14  15
ATOM     15  C   UNL     1      12.647  47.093  29.506  0.00  0.00    +0.037 A 
ATOM     16  C   UNL     1      12.691  45.728  30.037  0.00  0.00    +0.013 A 
ATOM     17  C   UNL     1      12.879  44.611  29.146  0.00  0.00    +0.005 A 
ATOM     18  C   UNL     1      13.023  44.854  27.712  0.00  0.00    -0.033 A 
ATOM     28  C   UNL     1      12.970  46.218  27.212  0.00  0.00    +0.005 A 
ATOM     29  C   UNL     1      12.787  47.316  28.082  0.00  0.00    +0.013 A 
BRANCH  18  19
ATOM     19  C   UNL     1      13.249  43.724  26.690  0.00  0.00    +0.119 C 
BRANCH  19  20
ATOM     20  N   UNL     1      14.613  43.603  26.095  0.00  0.00    -0.302 NA
ATOM     21  C   UNL     1      14.618  43.933  24.599  0.00  0.00    +0.066 C 
ATOM     22  C   UNL     1      16.057  43.823  23.997  0.00  0.00    -0.064 C 
ATOM     23  N   UNL     1      16.604  42.416  24.244  0.00  0.00    +0.379 N 
ATOM     24  C   UNL     1      17.933  42.291  23.629  0.00  0.00    -0.096 C 
ATOM     25  H   UNL     1      15.925  41.695  23.732  0.00  0.00    -0.082 HD
ATOM     26  C   UNL     1      16.600  42.079  25.728  0.00  0.00    -0.064 C 
ATOM     27  C   UNL     1      15.171  42.220  26.323  0.00  0.00    +0.066 C 
ENDBRANCH  19  20
ENDBRANCH  18  19
ENDBRANCH  14  15
ENDBRANCH  12  13
TORSDOF 6
ENDMDL
MODEL 5
REMARK VINA RESULT:      -9.6     15.782     20.271
REMARK  Name = C:\Users\Docking\Desktop\test protocol\1iep_ligandH.pdb
REMARK  8 active torsions:
REMARK  status: ('A' for Active; 'I' for Inactive)
REMARK    1  A    between atoms: _5  and  _11
REMARK    2  A    between atoms: _19  and  _21
REMARK    3  A    between atoms: _22  and  _66
REMARK    4  A    between atoms: _27  and  _30
REMARK    5  A    between atoms: _32  and  _33
REMARK    6  A    between atoms: _38  and  _43
REMARK    7  A    between atoms: _43  and  _46
REMARK    8  A    between atoms: _53  and  _55
REMARK                            x       y       z     vdW  Elec       q    Type
REMARK                         _______ _______ _______ _____ _____    ______ ____
ROOT
ATOM     10  C   UNL     1      15.259  51.491  34.105  0.00  0.00    +0.038 A 
ATOM     11  C   UNL     1      15.291  51.281  35.507  0.00  0.00    +0.047 A 
ATOM     12  C   UNL     1      14.929  49.995  36.084  0.00  0.00    +0.035 A 
ATOM     32  C   UNL     1      14.542  48.945  35.202  0.00  0.00    +0.024 A 
ATOM     33  C   UNL     1      14.503  49.141  33.774  0.00  0.00    +0.007 A 
ATOM     34  C   UNL     1      14.857  50.408  33.200  0.00  0.00    -0.029 A 
ATOM     35  C   UNL     1      14.791  50.564  31.663  0.00  0.00    +0.045 C 
ENDROOT
BRANCH  10   9
ATOM      4  C   UNL     1      14.190  55.969  32.748  0.00  0.00    +0.077 A 
ATOM      5  C   UNL     1      12.796  55.785  33.032  0.00  0.00    +0.048 A 
ATOM      6  C   UNL     1      12.394  54.521  33.519  0.00  0.00    +0.116 A 
ATOM      7  N   UNL     1      13.325  53.523  33.705  0.00  0.00    -0.223 NA
ATOM      8  C   UNL     1      14.662  53.733  33.419  0.00  0.00    +0.220 A 
ATOM      9  N   UNL     1      15.617  52.746  33.606  0.00  0.00    -0.283 N 
ATOM     36  H   UNL     1      16.592  52.937  33.376  0.00  0.00    +0.155 HD
ATOM     37  N   UNL     1      15.071  54.930  32.951  0.00  0.00    -0.214 NA
BRANCH   4   3
ATOM      1  C   UNL     1      16.352  58.554  30.763  0.00  0.00    +0.020 A 
ATOM      2  C   UNL     1      15.828  57.291  31.229  0.00  0.00    +0.013 A 
ATOM      3  C   UNL     1      14.769  57.249  32.230  0.00  0.00    +0.019 A 
ATOM     38  C   UNL     1      14.259  58.512  32.742  0.00  0.00    +0.120 A 
ATOM     39  N   UNL     1      14.784  59.712  32.275  0.00  0.00    -0.263 NA
ATOM     40  C   UNL     1      15.804  59.766  31.313  0.00  0.00    +0.111 A 
ENDBRANCH   4   3
ENDBRANCH  10   9
BRANCH  12  13
ATOM     13  N   UNL     1      14.934  49.726  37.500  0.00  0.00    -0.281 N 
ATOM     14  C   UNL     1      13.864  49.364  38.302  0.00  0.00    +0.248 C 
ATOM     30  O   UNL     1      12.692  49.426  37.961  0.00  0.00    -0.270 OA
ATOM     31  H   UNL     1      15.836  49.812  37.968  0.00  0.00    +0.155 HD
BRANCH  14  15
ATOM     15  C   UNL     1      14.134  48.877  39.689  0.00  0.00    +0.037 A 
ATOM     16  C   UNL     1      13.048  48.702  40.658  0.00  0.00    +0.013 A 
ATOM     17  C   UNL     1      13.338  48.247  41.995  0.00  0.00    +0.005 A 
ATOM     18  C   UNL     1      14.721  47.962  42.370  0.00  0.00    -0.033 A 
ATOM     28  C   UNL     1      15.777  48.139  41.388  0.00  0.00    +0.005 A 
ATOM     29  C   UNL     1      15.497  48.586  40.077  0.00  0.00    +0.013 A 
BRANCH  18  19
ATOM     19  C   UNL     1      15.124  47.492  43.780  0.00  0.00    +0.119 C 
BRANCH  19  20
ATOM     20  N   UNL     1      15.600  48.535  44.738  0.00  0.00    -0.302 NA
ATOM     21  C   UNL     1      15.225  49.948  44.282  0.00  0.00    +0.066 C 
ATOM     22  C   UNL     1      15.711  51.024  45.307  0.00  0.00    -0.064 C 
ATOM     23  N   UNL     1      17.224  50.899  45.494  0.00  0.00    +0.379 N 
ATOM     24  C   UNL     1      17.693  51.947  46.413  0.00  0.00    -0.096 C 
ATOM     25  H   UNL     1      17.703  51.078  44.504  0.00  0.00    -0.082 HD
ATOM     26  C   UNL     1      17.606  49.496  45.945  0.00  0.00    -0.064 C 
ATOM     27  C   UNL     1      17.093  48.433  44.935  0.00  0.00    +0.066 C 
ENDBRANCH  19  20
ENDBRANCH  18  19
ENDBRANCH  14  15
ENDBRANCH  12  13
TORSDOF 6
ENDMDL
