MODEL 1
REMARK VINA RESULT:      -7.9      0.000      0.000
REMARK  Name = C:\Users\Docking\Desktop\test protocol\1iep_ligandH.pdb
REMARK  8 active torsions:
REMARK  status: ('A' for Active; 'I' for Inactive)
REMARK    1  A    between atoms: _5  and  _11
REMARK    2  A    between atoms: _19  and  _21
REMARK    3  A    between atoms: _22  and  _66
REMARK    4  A    between atoms: _27  and  _30
REMARK    5  A    between atoms: _32  and  _33
REMARK    6  A    between atoms: _38  and  _43
REMARK    7  A    between atoms: _43  and  _46
REMARK    8  A    between atoms: _53  and  _55
REMARK                            x       y       z     vdW  Elec       q    Type
REMARK                         _______ _______ _______ _____ _____    ______ ____
ROOT
ATOM     10  C   UNL     1     -13.010   9.603  26.984  0.00  0.00    +0.038 A 
ATOM     11  C   UNL     1     -13.110   9.366  25.590  0.00  0.00    +0.047 A 
ATOM     12  C   UNL     1     -14.208   9.915  24.810  0.00  0.00    +0.035 A 
ATOM     32  C   UNL     1     -15.186  10.704  25.483  0.00  0.00    +0.024 A 
ATOM     33  C   UNL     1     -15.100  10.954  26.900  0.00  0.00    +0.007 A 
ATOM     34  C   UNL     1     -14.020  10.413  27.675  0.00  0.00    -0.029 A 
ATOM     35  C   UNL     1     -13.982  10.708  29.192  0.00  0.00    +0.045 C 
ENDROOT
BRANCH  10   9
ATOM      4  C   UNL     1      -8.380   9.517  28.250  0.00  0.00    +0.077 A 
ATOM      5  C   UNL     1      -8.073  10.651  27.427  0.00  0.00    +0.048 A 
ATOM      6  C   UNL     1      -9.133  11.223  26.688  0.00  0.00    +0.116 A 
ATOM      7  N   UNL     1     -10.402  10.692  26.774  0.00  0.00    -0.223 NA
ATOM      8  C   UNL     1     -10.664   9.596  27.576  0.00  0.00    +0.220 A 
ATOM      9  N   UNL     1     -11.934   9.051  27.684  0.00  0.00    -0.283 N 
ATOM     36  H   UNL     1     -12.085   8.238  28.281  0.00  0.00    +0.155 HD
ATOM     37  N   UNL     1      -9.668   9.031  28.291  0.00  0.00    -0.214 NA
BRANCH   4   3
ATOM      1  C   UNL     1      -6.694   7.039  30.764  0.00  0.00    +0.020 A 
ATOM      2  C   UNL     1      -7.710   7.693  29.972  0.00  0.00    +0.013 A 
ATOM      3  C   UNL     1      -7.368   8.805  29.093  0.00  0.00    +0.019 A 
ATOM     38  C   UNL     1      -5.979   9.232  29.037  0.00  0.00    +0.120 A 
ATOM     39  N   UNL     1      -5.022   8.585  29.813  0.00  0.00    -0.263 NA
ATOM     40  C   UNL     1      -5.340   7.515  30.664  0.00  0.00    +0.111 A 
ENDBRANCH   4   3
ENDBRANCH  10   9
BRANCH  12  13
ATOM     13  N   UNL     1     -14.366   9.701  23.393  0.00  0.00    -0.281 N 
ATOM     14  C   UNL     1     -13.382   9.691  22.418  0.00  0.00    +0.248 C 
ATOM     30  O   UNL     1     -12.236  10.079  22.589  0.00  0.00    -0.270 OA
ATOM     31  H   UNL     1     -15.320   9.537  23.069  0.00  0.00    +0.155 HD
BRANCH  14  15
ATOM     15  C   UNL     1     -13.725   9.192  21.051  0.00  0.00    +0.037 A 
ATOM     16  C   UNL     1     -14.646   8.069  20.861  0.00  0.00    +0.013 A 
ATOM     17  C   UNL     1     -14.946   7.596  19.533  0.00  0.00    +0.005 A 
ATOM     18  C   UNL     1     -14.325   8.248  18.383  0.00  0.00    -0.033 A 
ATOM     28  C   UNL     1     -13.418   9.364  18.600  0.00  0.00    +0.005 A 
ATOM     29  C   UNL     1     -13.121   9.829  19.901  0.00  0.00    +0.013 A 
BRANCH  18  19
ATOM     19  C   UNL     1     -14.571   7.797  16.931  0.00  0.00    +0.119 C 
BRANCH  19  20
ATOM     20  N   UNL     1     -13.372   7.610  16.061  0.00  0.00    -0.302 NA
ATOM     21  C   UNL     1     -13.640   8.034  14.614  0.00  0.00    +0.066 C 
ATOM     22  C   UNL     1     -12.369   7.853  13.723  0.00  0.00    -0.064 C 
ATOM     23  N   UNL     1     -11.911   6.395  13.783  0.00  0.00    +0.379 N 
ATOM     24  C   UNL     1     -10.750   6.208  12.901  0.00  0.00    -0.096 C 
ATOM     25  H   UNL     1     -12.740   5.763  13.389  0.00  0.00    -0.082 HD
ATOM     26  C   UNL     1     -11.644   5.963  15.219  0.00  0.00    -0.064 C 
ATOM     27  C   UNL     1     -12.905   6.175  16.103  0.00  0.00    +0.066 C 
ENDBRANCH  19  20
ENDBRANCH  18  19
ENDBRANCH  14  15
ENDBRANCH  12  13
TORSDOF 6
ENDMDL
MODEL 2
REMARK VINA RESULT:      -7.5      8.000     10.334
REMARK  Name = C:\Users\Docking\Desktop\test protocol\1iep_ligandH.pdb
REMARK  8 active torsions:
REMARK  status: ('A' for Active; 'I' for Inactive)
REMARK    1  A    between atoms: _5  and  _11
REMARK    2  A    between atoms: _19  and  _21
REMARK    3  A    between atoms: _22  and  _66
REMARK    4  A    between atoms: _27  and  _30
REMARK    5  A    between atoms: _32  and  _33
REMARK    6  A    between atoms: _38  and  _43
REMARK    7  A    between atoms: _43  and  _46
REMARK    8  A    between atoms: _53  and  _55
REMARK                            x       y       z     vdW  Elec       q    Type
REMARK                         _______ _______ _______ _____ _____    ______ ____
ROOT
ATOM     10  C   UNL     1      -9.791   6.640  15.124  0.00  0.00    +0.038 A 
ATOM     11  C   UNL     1     -10.844   6.258  15.994  0.00  0.00    +0.047 A 
ATOM     12  C   UNL     1     -12.236   6.489  15.637  0.00  0.00    +0.035 A 
ATOM     32  C   UNL     1     -12.519   7.109  14.386  0.00  0.00    +0.024 A 
ATOM     33  C   UNL     1     -11.460   7.505  13.490  0.00  0.00    +0.007 A 
ATOM     34  C   UNL     1     -10.086   7.282  13.837  0.00  0.00    -0.029 A 
ATOM     35  C   UNL     1      -8.992   7.733  12.841  0.00  0.00    +0.045 C 
ENDROOT
BRANCH  10   9
ATOM      4  C   UNL     1      -5.839   7.751  17.610  0.00  0.00    +0.077 A 
ATOM      5  C   UNL     1      -6.441   8.935  18.152  0.00  0.00    +0.048 A 
ATOM      6  C   UNL     1      -7.767   9.226  17.761  0.00  0.00    +0.116 A 
ATOM      7  N   UNL     1      -8.432   8.388  16.891  0.00  0.00    -0.223 NA
ATOM      8  C   UNL     1      -7.821   7.255  16.386  0.00  0.00    +0.220 A 
ATOM      9  N   UNL     1      -8.473   6.395  15.516  0.00  0.00    -0.283 N 
ATOM     36  H   UNL     1      -7.986   5.573  15.160  0.00  0.00    +0.155 HD
ATOM     37  N   UNL     1      -6.555   6.956  16.743  0.00  0.00    -0.214 NA
BRANCH   4   3
ATOM      1  C   UNL     1      -1.954   7.299  17.537  0.00  0.00    +0.020 A 
ATOM      2  C   UNL     1      -3.278   7.758  17.185  0.00  0.00    +0.013 A 
ATOM      3  C   UNL     1      -4.446   7.307  17.932  0.00  0.00    +0.019 A 
ATOM     38  C   UNL     1      -4.237   6.385  19.038  0.00  0.00    +0.120 A 
ATOM     39  N   UNL     1      -2.950   5.959  19.353  0.00  0.00    -0.263 NA
ATOM     40  C   UNL     1      -1.820   6.385  18.640  0.00  0.00    +0.111 A 
ENDBRANCH   4   3
ENDBRANCH  10   9
BRANCH  12  13
ATOM     13  N   UNL     1     -13.347   6.129  16.483  0.00  0.00    -0.281 N 
ATOM     14  C   UNL     1     -14.112   6.962  17.283  0.00  0.00    +0.248 C 
ATOM     30  O   UNL     1     -13.820   8.116  17.558  0.00  0.00    -0.270 OA
ATOM     31  H   UNL     1     -13.600   5.141  16.493  0.00  0.00    +0.155 HD
BRANCH  14  15
ATOM     15  C   UNL     1     -15.378   6.431  17.875  0.00  0.00    +0.037 A 
ATOM     16  C   UNL     1     -15.500   5.026  18.273  0.00  0.00    +0.013 A 
ATOM     17  C   UNL     1     -16.738   4.536  18.825  0.00  0.00    +0.005 A 
ATOM     18  C   UNL     1     -17.864   5.453  18.984  0.00  0.00    -0.033 A 
ATOM     28  C   UNL     1     -17.714   6.843  18.586  0.00  0.00    +0.005 A 
ATOM     29  C   UNL     1     -16.502   7.327  18.043  0.00  0.00    +0.013 A 
BRANCH  18  19
ATOM     19  C   UNL     1     -19.229   5.012  19.545  0.00  0.00    +0.119 C 
BRANCH  19  20
ATOM     20  N   UNL     1     -20.296   4.671  18.558  0.00  0.00    -0.302 NA
ATOM     21  C   UNL     1     -19.722   4.383  17.168  0.00  0.00    +0.066 C 
ATOM     22  C   UNL     1     -20.850   4.006  16.153  0.00  0.00    -0.064 C 
ATOM     23  N   UNL     1     -21.876   5.139  16.091  0.00  0.00    +0.379 N 
ATOM     24  C   UNL     1     -22.907   4.813  15.095  0.00  0.00    -0.096 C 
ATOM     25  H   UNL     1     -21.346   6.056  15.742  0.00  0.00    -0.082 HD
ATOM     26  C   UNL     1     -22.450   5.433  17.470  0.00  0.00    -0.064 C 
ATOM     27  C   UNL     1     -21.318   5.778  18.478  0.00  0.00    +0.066 C 
ENDBRANCH  19  20
ENDBRANCH  18  19
ENDBRANCH  14  15
ENDBRANCH  12  13
TORSDOF 6
ENDMDL
MODEL 3
REMARK VINA RESULT:      -7.4     22.111     26.443
REMARK  Name = C:\Users\Docking\Desktop\test protocol\1iep_ligandH.pdb
REMARK  8 active torsions:
REMARK  status: ('A' for Active; 'I' for Inactive)
REMARK    1  A    between atoms: _5  and  _11
REMARK    2  A    between atoms: _19  and  _21
REMARK    3  A    between atoms: _22  and  _66
REMARK    4  A    between atoms: _27  and  _30
REMARK    5  A    between atoms: _32  and  _33
REMARK    6  A    between atoms: _38  and  _43
REMARK    7  A    between atoms: _43  and  _46
REMARK    8  A    between atoms: _53  and  _55
REMARK                            x       y       z     vdW  Elec       q    Type
REMARK                         _______ _______ _______ _____ _____    ______ ____
ROOT
ATOM     10  C   UNL     1     -10.217 -15.467  11.416  0.00  0.00    +0.038 A 
ATOM     11  C   UNL     1      -9.384 -14.469  10.849  0.00  0.00    +0.047 A 
ATOM     12  C   UNL     1      -7.937 -14.614  10.839  0.00  0.00    +0.035 A 
ATOM     32  C   UNL     1      -7.371 -15.789  11.413  0.00  0.00    +0.024 A 
ATOM     33  C   UNL     1      -8.203 -16.813  11.995  0.00  0.00    +0.007 A 
ATOM     34  C   UNL     1      -9.632 -16.675  12.010  0.00  0.00    -0.029 A 
ATOM     35  C   UNL     1     -10.474 -17.801  12.653  0.00  0.00    +0.045 C 
ENDROOT
BRANCH  10   9
ATOM      4  C   UNL     1     -14.209 -13.279  12.939  0.00  0.00    +0.077 A 
ATOM      5  C   UNL     1     -13.479 -12.464  13.867  0.00  0.00    +0.048 A 
ATOM      6  C   UNL     1     -12.079 -12.644  13.927  0.00  0.00    +0.116 A 
ATOM      7  N   UNL     1     -11.465 -13.573  13.114  0.00  0.00    -0.223 NA
ATOM      8  C   UNL     1     -12.198 -14.343  12.231  0.00  0.00    +0.220 A 
ATOM      9  N   UNL     1     -11.601 -15.277  11.398  0.00  0.00    -0.283 N 
ATOM     36  H   UNL     1     -12.178 -15.831  10.766  0.00  0.00    +0.155 HD
ATOM     37  N   UNL     1     -13.537 -14.191  12.156  0.00  0.00    -0.214 NA
BRANCH   4   3
ATOM      1  C   UNL     1     -17.786 -12.087  11.897  0.00  0.00    +0.020 A 
ATOM      2  C   UNL     1     -16.349 -12.113  12.045  0.00  0.00    +0.013 A 
ATOM      3  C   UNL     1     -15.693 -13.203  12.757  0.00  0.00    +0.019 A 
ATOM     38  C   UNL     1     -16.526 -14.260  13.310  0.00  0.00    +0.120 A 
ATOM     39  N   UNL     1     -17.907 -14.208  13.153  0.00  0.00    -0.263 NA
ATOM     40  C   UNL     1     -18.550 -13.163  12.472  0.00  0.00    +0.111 A 
ENDBRANCH   4   3
ENDBRANCH  10   9
BRANCH  12  13
ATOM     13  N   UNL     1      -7.040 -13.630  10.284  0.00  0.00    -0.281 N 
ATOM     14  C   UNL     1      -6.416 -12.581  10.940  0.00  0.00    +0.248 C 
ATOM     30  O   UNL     1      -6.704 -12.200  12.065  0.00  0.00    -0.270 OA
ATOM     31  H   UNL     1      -6.841 -13.718   9.288  0.00  0.00    +0.155 HD
BRANCH  14  15
ATOM     15  C   UNL     1      -5.324 -11.839  10.239  0.00  0.00    +0.037 A 
ATOM     16  C   UNL     1      -4.096 -11.456  10.939  0.00  0.00    +0.013 A 
ATOM     17  C   UNL     1      -3.065 -10.726  10.244  0.00  0.00    +0.005 A 
ATOM     18  C   UNL     1      -3.259 -10.376   8.838  0.00  0.00    -0.033 A 
ATOM     28  C   UNL     1      -4.486 -10.773   8.167  0.00  0.00    +0.005 A 
ATOM     29  C   UNL     1      -5.498 -11.488   8.845  0.00  0.00    +0.013 A 
BRANCH  18  19
ATOM     19  C   UNL     1      -2.222  -9.580   8.024  0.00  0.00    +0.119 C 
BRANCH  19  20
ATOM     20  N   UNL     1      -2.033  -8.141   8.377  0.00  0.00    -0.302 NA
ATOM     21  C   UNL     1      -0.973  -7.951   9.466  0.00  0.00    +0.066 C 
ATOM     22  C   UNL     1      -0.772  -6.439   9.807  0.00  0.00    -0.064 C 
ATOM     23  N   UNL     1      -2.109  -5.835  10.242  0.00  0.00    +0.379 N 
ATOM     24  C   UNL     1      -1.912  -4.428  10.619  0.00  0.00    -0.096 C 
ATOM     25  H   UNL     1      -2.448  -6.385  11.151  0.00  0.00    -0.082 HD
ATOM     26  C   UNL     1      -3.169  -6.022   9.167  0.00  0.00    -0.064 C 
ATOM     27  C   UNL     1      -3.340  -7.526   8.814  0.00  0.00    +0.066 C 
ENDBRANCH  19  20
ENDBRANCH  18  19
ENDBRANCH  14  15
ENDBRANCH  12  13
TORSDOF 6
ENDMDL
MODEL 4
REMARK VINA RESULT:      -7.3      3.089     11.889
REMARK  Name = C:\Users\Docking\Desktop\test protocol\1iep_ligandH.pdb
REMARK  8 active torsions:
REMARK  status: ('A' for Active; 'I' for Inactive)
REMARK    1  A    between atoms: _5  and  _11
REMARK    2  A    between atoms: _19  and  _21
REMARK    3  A    between atoms: _22  and  _66
REMARK    4  A    between atoms: _27  and  _30
REMARK    5  A    between atoms: _32  and  _33
REMARK    6  A    between atoms: _38  and  _43
REMARK    7  A    between atoms: _43  and  _46
REMARK    8  A    between atoms: _53  and  _55
REMARK                            x       y       z     vdW  Elec       q    Type
REMARK                         _______ _______ _______ _____ _____    ______ ____
ROOT
ATOM     10  C   UNL     1     -14.269   9.845  26.017  0.00  0.00    +0.038 A 
ATOM     11  C   UNL     1     -13.030   9.269  26.400  0.00  0.00    +0.047 A 
ATOM     12  C   UNL     1     -12.240   9.836  27.482  0.00  0.00    +0.035 A 
ATOM     32  C   UNL     1     -12.742  10.988  28.153  0.00  0.00    +0.024 A 
ATOM     33  C   UNL     1     -13.998  11.587  27.776  0.00  0.00    +0.007 A 
ATOM     34  C   UNL     1     -14.781  11.034  26.709  0.00  0.00    -0.029 A 
ATOM     35  C   UNL     1     -16.117  11.722  26.343  0.00  0.00    +0.045 C 
ENDROOT
BRANCH  10   9
ATOM      4  C   UNL     1     -14.787   8.614  21.407  0.00  0.00    +0.077 A 
ATOM      5  C   UNL     1     -13.534   9.211  21.045  0.00  0.00    +0.048 A 
ATOM      6  C   UNL     1     -12.789   9.831  22.074  0.00  0.00    +0.116 A 
ATOM      7  N   UNL     1     -13.272   9.846  23.364  0.00  0.00    -0.223 NA
ATOM      8  C   UNL     1     -14.486   9.263  23.679  0.00  0.00    +0.220 A 
ATOM      9  N   UNL     1     -14.987   9.260  24.972  0.00  0.00    -0.283 N 
ATOM     36  H   UNL     1     -15.889   8.825  25.162  0.00  0.00    +0.155 HD
ATOM     37  N   UNL     1     -15.216   8.666  22.714  0.00  0.00    -0.214 NA
BRANCH   4   3
ATOM      1  C   UNL     1     -16.098   6.410  18.453  0.00  0.00    +0.020 A 
ATOM      2  C   UNL     1     -15.187   7.059  19.367  0.00  0.00    +0.013 A 
ATOM      3  C   UNL     1     -15.687   7.918  20.433  0.00  0.00    +0.019 A 
ATOM     38  C   UNL     1     -17.126   8.101  20.548  0.00  0.00    +0.120 A 
ATOM     39  N   UNL     1     -17.979   7.464  19.652  0.00  0.00    -0.263 NA
ATOM     40  C   UNL     1     -17.510   6.637  18.622  0.00  0.00    +0.111 A 
ENDBRANCH   4   3
ENDBRANCH  10   9
BRANCH  12  13
ATOM     13  N   UNL     1     -10.971   9.299  27.909  0.00  0.00    -0.281 N 
ATOM     14  C   UNL     1      -9.706   9.811  27.671  0.00  0.00    +0.248 C 
ATOM     30  O   UNL     1      -9.460  10.697  26.867  0.00  0.00    -0.270 OA
ATOM     31  H   UNL     1     -11.011   8.438  28.454  0.00  0.00    +0.155 HD
BRANCH  14  15
ATOM     15  C   UNL     1      -8.545   9.246  28.423  0.00  0.00    +0.037 A 
ATOM     16  C   UNL     1      -7.191   9.774  28.240  0.00  0.00    +0.013 A 
ATOM     17  C   UNL     1      -6.086   9.199  28.966  0.00  0.00    +0.005 A 
ATOM     18  C   UNL     1      -6.332   8.090  29.884  0.00  0.00    -0.033 A 
ATOM     28  C   UNL     1      -7.686   7.589  30.051  0.00  0.00    +0.005 A 
ATOM     29  C   UNL     1      -8.771   8.149  29.340  0.00  0.00    +0.013 A 
BRANCH  18  19
ATOM     19  C   UNL     1      -5.210   7.402  30.684  0.00  0.00    +0.119 C 
BRANCH  19  20
ATOM     20  N   UNL     1      -4.851   6.005  30.296  0.00  0.00    -0.302 NA
ATOM     21  C   UNL     1      -5.444   4.972  31.257  0.00  0.00    +0.066 C 
ATOM     22  C   UNL     1      -5.078   3.515  30.823  0.00  0.00    -0.064 C 
ATOM     23  N   UNL     1      -3.557   3.375  30.750  0.00  0.00    +0.379 N 
ATOM     24  C   UNL     1      -3.207   1.991  30.398  0.00  0.00    -0.096 C 
ATOM     25  H   UNL     1      -3.149   3.579  31.767  0.00  0.00    -0.082 HD
ATOM     26  C   UNL     1      -2.958   4.401  29.798  0.00  0.00    -0.064 C 
ATOM     27  C   UNL     1      -3.353   5.844  30.221  0.00  0.00    +0.066 C 
ENDBRANCH  19  20
ENDBRANCH  18  19
ENDBRANCH  14  15
ENDBRANCH  12  13
TORSDOF 6
ENDMDL
MODEL 5
REMARK VINA RESULT:      -7.3      9.079     13.750
REMARK  Name = C:\Users\Docking\Desktop\test protocol\1iep_ligandH.pdb
REMARK  8 active torsions:
REMARK  status: ('A' for Active; 'I' for Inactive)
REMARK    1  A    between atoms: _5  and  _11
REMARK    2  A    between atoms: _19  and  _21
REMARK    3  A    between atoms: _22  and  _66
REMARK    4  A    between atoms: _27  and  _30
REMARK    5  A    between atoms: _32  and  _33
REMARK    6  A    between atoms: _38  and  _43
REMARK    7  A    between atoms: _43  and  _46
REMARK    8  A    between atoms: _53  and  _55
REMARK                            x       y       z     vdW  Elec       q    Type
REMARK                         _______ _______ _______ _____ _____    ______ ____
ROOT
ATOM     10  C   UNL     1     -19.328   8.309  17.087  0.00  0.00    +0.038 A 
ATOM     11  C   UNL     1     -17.998   8.041  16.673  0.00  0.00    +0.047 A 
ATOM     12  C   UNL     1     -16.870   8.298  17.555  0.00  0.00    +0.035 A 
ATOM     32  C   UNL     1     -17.133   8.825  18.853  0.00  0.00    +0.024 A 
ATOM     33  C   UNL     1     -18.478   9.105  19.289  0.00  0.00    +0.007 A 
ATOM     34  C   UNL     1     -19.595   8.856  18.423  0.00  0.00    -0.029 A 
ATOM     35  C   UNL     1     -21.015   9.180  18.941  0.00  0.00    +0.045 C 
ENDROOT
BRANCH  10   9
ATOM      4  C   UNL     1     -22.251   5.286  14.772  0.00  0.00    +0.077 A 
ATOM      5  C   UNL     1     -21.624   4.137  15.359  0.00  0.00    +0.048 A 
ATOM      6  C   UNL     1     -20.548   4.367  16.246  0.00  0.00    +0.116 A 
ATOM      7  N   UNL     1     -20.138   5.654  16.518  0.00  0.00    -0.223 NA
ATOM      8  C   UNL     1     -20.764   6.740  15.934  0.00  0.00    +0.220 A 
ATOM      9  N   UNL     1     -20.374   8.044  16.200  0.00  0.00    -0.283 N 
ATOM     36  H   UNL     1     -20.856   8.817  15.743  0.00  0.00    +0.155 HD
ATOM     37  N   UNL     1     -21.793   6.547  15.083  0.00  0.00    -0.214 NA
BRANCH   4   3
ATOM      1  C   UNL     1     -25.303   3.977  12.705  0.00  0.00    +0.020 A 
ATOM      2  C   UNL     1     -24.201   4.001  13.639  0.00  0.00    +0.013 A 
ATOM      3  C   UNL     1     -23.402   5.207  13.818  0.00  0.00    +0.019 A 
ATOM     38  C   UNL     1     -23.748   6.381  13.031  0.00  0.00    +0.120 A 
ATOM     39  N   UNL     1     -24.813   6.328  12.138  0.00  0.00    -0.263 NA
ATOM     40  C   UNL     1     -25.588   5.172  11.956  0.00  0.00    +0.111 A 
ENDBRANCH   4   3
ENDBRANCH  10   9
BRANCH  12  13
ATOM     13  N   UNL     1     -15.497   8.053  17.187  0.00  0.00    -0.281 N 
ATOM     14  C   UNL     1     -14.734   6.926  17.446  0.00  0.00    +0.248 C 
ATOM     30  O   UNL     1     -15.052   6.040  18.225  0.00  0.00    -0.270 OA
ATOM     31  H   UNL     1     -15.032   8.801  16.672  0.00  0.00    +0.155 HD
BRANCH  14  15
ATOM     15  C   UNL     1     -13.420   6.769  16.751  0.00  0.00    +0.037 A 
ATOM     16  C   UNL     1     -12.589   7.930  16.424  0.00  0.00    +0.013 A 
ATOM     17  C   UNL     1     -11.334   7.751  15.738  0.00  0.00    +0.005 A 
ATOM     18  C   UNL     1     -10.902   6.403  15.376  0.00  0.00    -0.033 A 
ATOM     28  C   UNL     1     -11.743   5.268  15.718  0.00  0.00    +0.005 A 
ATOM     29  C   UNL     1     -12.974   5.440  16.389  0.00  0.00    +0.013 A 
BRANCH  18  19
ATOM     19  C   UNL     1      -9.588   6.121  14.624  0.00  0.00    +0.119 C 
BRANCH  19  20
ATOM     20  N   UNL     1      -9.511   6.549  13.196  0.00  0.00    -0.302 NA
ATOM     21  C   UNL     1      -9.201   8.042  13.060  0.00  0.00    +0.066 C 
ATOM     22  C   UNL     1      -9.102   8.469  11.559  0.00  0.00    -0.064 C 
ATOM     23  N   UNL     1     -10.410   8.120  10.845  0.00  0.00    +0.379 N 
ATOM     24  C   UNL     1     -10.342   8.573   9.448  0.00  0.00    -0.096 C 
ATOM     25  H   UNL     1     -11.229   8.687  11.345  0.00  0.00    -0.082 HD
ATOM     26  C   UNL     1     -10.727   6.638  10.978  0.00  0.00    -0.064 C 
ATOM     27  C   UNL     1     -10.794   6.218  12.473  0.00  0.00    +0.066 C 
ENDBRANCH  19  20
ENDBRANCH  18  19
ENDBRANCH  14  15
ENDBRANCH  12  13
TORSDOF 6
ENDMDL
