MODEL 1
REMARK VINA RESULT:      -6.8      0.000      0.000
REMARK  Name = C:\Users\Docking\Desktop\test protocol\1iep_ligandH.pdb
REMARK  8 active torsions:
REMARK  status: ('A' for Active; 'I' for Inactive)
REMARK    1  A    between atoms: _5  and  _11
REMARK    2  A    between atoms: _19  and  _21
REMARK    3  A    between atoms: _22  and  _66
REMARK    4  A    between atoms: _27  and  _30
REMARK    5  A    between atoms: _32  and  _33
REMARK    6  A    between atoms: _38  and  _43
REMARK    7  A    between atoms: _43  and  _46
REMARK    8  A    between atoms: _53  and  _55
REMARK                            x       y       z     vdW  Elec       q    Type
REMARK                         _______ _______ _______ _____ _____    ______ ____
ROOT
ATOM     10  C   UNL     1      -3.804  -6.021   0.156  0.00  0.00    +0.038 A 
ATOM     11  C   UNL     1      -3.928  -6.819   1.321  0.00  0.00    +0.047 A 
ATOM     12  C   UNL     1      -4.939  -6.532   2.326  0.00  0.00    +0.035 A 
ATOM     32  C   UNL     1      -5.810  -5.424   2.111  0.00  0.00    +0.024 A 
ATOM     33  C   UNL     1      -5.698  -4.601   0.932  0.00  0.00    +0.007 A 
ATOM     34  C   UNL     1      -4.700  -4.879  -0.062  0.00  0.00    -0.029 A 
ATOM     35  C   UNL     1      -4.621  -3.959  -1.302  0.00  0.00    +0.045 C 
ENDROOT
BRANCH  10   9
ATOM      4  C   UNL     1       0.583  -5.483  -1.717  0.00  0.00    +0.077 A 
ATOM      5  C   UNL     1       0.923  -4.456  -0.775  0.00  0.00    +0.048 A 
ATOM      6  C   UNL     1      -0.061  -4.090   0.170  0.00  0.00    +0.116 A 
ATOM      7  N   UNL     1      -1.291  -4.712   0.165  0.00  0.00    -0.223 NA
ATOM      8  C   UNL     1      -1.587  -5.698  -0.758  0.00  0.00    +0.220 A 
ATOM      9  N   UNL     1      -2.815  -6.342  -0.777  0.00  0.00    -0.283 N 
ATOM     36  H   UNL     1      -2.998  -7.059  -1.479  0.00  0.00    +0.155 HD
ATOM     37  N   UNL     1      -0.665  -6.064  -1.672  0.00  0.00    -0.214 NA
BRANCH   4   3
ATOM      1  C   UNL     1       2.003  -7.124  -4.972  0.00  0.00    +0.020 A 
ATOM      2  C   UNL     1       1.059  -6.663  -3.980  0.00  0.00    +0.013 A 
ATOM      3  C   UNL     1       1.517  -5.981  -2.776  0.00  0.00    +0.019 A 
ATOM     38  C   UNL     1       2.948  -5.780  -2.604  0.00  0.00    +0.120 A 
ATOM     39  N   UNL     1       3.833  -6.237  -3.576  0.00  0.00    -0.263 NA
ATOM     40  C   UNL     1       3.404  -6.895  -4.738  0.00  0.00    +0.111 A 
ENDBRANCH   4   3
ENDBRANCH  10   9
BRANCH  12  13
ATOM     13  N   UNL     1      -5.107  -7.302   3.534  0.00  0.00    -0.281 N 
ATOM     14  C   UNL     1      -6.080  -8.249   3.811  0.00  0.00    +0.248 C 
ATOM     30  O   UNL     1      -7.086  -8.423   3.140  0.00  0.00    -0.270 OA
ATOM     31  H   UNL     1      -4.426  -7.129   4.273  0.00  0.00    +0.155 HD
BRANCH  14  15
ATOM     15  C   UNL     1      -5.918  -9.117   5.017  0.00  0.00    +0.037 A 
ATOM     16  C   UNL     1      -6.249 -10.544   4.975  0.00  0.00    +0.013 A 
ATOM     17  C   UNL     1      -6.100 -11.356   6.157  0.00  0.00    +0.005 A 
ATOM     18  C   UNL     1      -5.617 -10.742   7.392  0.00  0.00    -0.033 A 
ATOM     28  C   UNL     1      -5.291  -9.325   7.403  0.00  0.00    +0.005 A 
ATOM     29  C   UNL     1      -5.437  -8.526   6.247  0.00  0.00    +0.013 A 
BRANCH  18  19
ATOM     19  C   UNL     1      -5.448 -11.527   8.706  0.00  0.00    +0.119 C 
BRANCH  19  20
ATOM     20  N   UNL     1      -6.578 -12.407   9.127  0.00  0.00    -0.302 NA
ATOM     21  C   UNL     1      -7.868 -11.614   9.358  0.00  0.00    +0.066 C 
ATOM     22  C   UNL     1      -9.046 -12.553   9.776  0.00  0.00    -0.064 C 
ATOM     23  N   UNL     1      -8.654 -13.328  11.035  0.00  0.00    +0.379 N 
ATOM     24  C   UNL     1      -9.781 -14.169  11.464  0.00  0.00    -0.096 C 
ATOM     25  H   UNL     1      -8.459 -12.585  11.843  0.00  0.00    -0.082 HD
ATOM     26  C   UNL     1      -7.371 -14.118  10.815  0.00  0.00    -0.064 C 
ATOM     27  C   UNL     1      -6.214 -13.179  10.371  0.00  0.00    +0.066 C 
ENDBRANCH  19  20
ENDBRANCH  18  19
ENDBRANCH  14  15
ENDBRANCH  12  13
TORSDOF 6
ENDMDL
MODEL 2
REMARK VINA RESULT:      -6.5     10.043     15.440
REMARK  Name = C:\Users\Docking\Desktop\test protocol\1iep_ligandH.pdb
REMARK  8 active torsions:
REMARK  status: ('A' for Active; 'I' for Inactive)
REMARK    1  A    between atoms: _5  and  _11
REMARK    2  A    between atoms: _19  and  _21
REMARK    3  A    between atoms: _22  and  _66
REMARK    4  A    between atoms: _27  and  _30
REMARK    5  A    between atoms: _32  and  _33
REMARK    6  A    between atoms: _38  and  _43
REMARK    7  A    between atoms: _43  and  _46
REMARK    8  A    between atoms: _53  and  _55
REMARK                            x       y       z     vdW  Elec       q    Type
REMARK                         _______ _______ _______ _____ _____    ______ ____
ROOT
ATOM     10  C   UNL     1      -8.959 -17.474   5.595  0.00  0.00    +0.038 A 
ATOM     11  C   UNL     1      -8.452 -17.273   4.286  0.00  0.00    +0.047 A 
ATOM     12  C   UNL     1      -9.054 -17.929   3.136  0.00  0.00    +0.035 A 
ATOM     32  C   UNL     1     -10.175 -18.782   3.356  0.00  0.00    +0.024 A 
ATOM     33  C   UNL     1     -10.703 -18.999   4.680  0.00  0.00    +0.007 A 
ATOM     34  C   UNL     1     -10.110 -18.356   5.818  0.00  0.00    -0.029 A 
ATOM     35  C   UNL     1     -10.714 -18.630   7.216  0.00  0.00    +0.045 C 
ENDROOT
BRANCH  10   9
ATOM      4  C   UNL     1      -8.300 -13.628   8.390  0.00  0.00    +0.077 A 
ATOM      5  C   UNL     1      -9.247 -12.850   7.644  0.00  0.00    +0.048 A 
ATOM      6  C   UNL     1      -9.876 -13.475   6.544  0.00  0.00    +0.116 A 
ATOM      7  N   UNL     1      -9.574 -14.780   6.223  0.00  0.00    -0.223 NA
ATOM      8  C   UNL     1      -8.655 -15.502   6.962  0.00  0.00    +0.220 A 
ATOM      9  N   UNL     1      -8.341 -16.818   6.663  0.00  0.00    -0.283 N 
ATOM     36  H   UNL     1      -7.652 -17.314   7.228  0.00  0.00    +0.155 HD
ATOM     37  N   UNL     1      -8.039 -14.928   8.017  0.00  0.00    -0.214 NA
BRANCH   4   3
ATOM      1  C   UNL     1      -6.073 -13.417  11.599  0.00  0.00    +0.020 A 
ATOM      2  C   UNL     1      -6.774 -13.968  10.462  0.00  0.00    +0.013 A 
ATOM      3  C   UNL     1      -7.556 -13.110   9.581  0.00  0.00    +0.019 A 
ATOM     38  C   UNL     1      -7.608 -11.687   9.880  0.00  0.00    +0.120 A 
ATOM     39  N   UNL     1      -6.924 -11.184  10.983  0.00  0.00    -0.263 NA
ATOM     40  C   UNL     1      -6.169 -12.001  11.839  0.00  0.00    +0.111 A 
ENDBRANCH   4   3
ENDBRANCH  10   9
BRANCH  12  13
ATOM     13  N   UNL     1      -8.578 -17.769   1.785  0.00  0.00    -0.281 N 
ATOM     14  C   UNL     1      -7.275 -17.862   1.325  0.00  0.00    +0.248 C 
ATOM     30  O   UNL     1      -6.288 -17.886   2.045  0.00  0.00    -0.270 OA
ATOM     31  H   UNL     1      -9.288 -17.562   1.082  0.00  0.00    +0.155 HD
BRANCH  14  15
ATOM     15  C   UNL     1      -7.032 -17.923  -0.149  0.00  0.00    +0.037 A 
ATOM     16  C   UNL     1      -5.804 -17.384  -0.739  0.00  0.00    +0.013 A 
ATOM     17  C   UNL     1      -5.602 -17.439  -2.166  0.00  0.00    +0.005 A 
ATOM     18  C   UNL     1      -6.632 -18.039  -3.012  0.00  0.00    -0.033 A 
ATOM     28  C   UNL     1      -7.838 -18.570  -2.399  0.00  0.00    +0.005 A 
ATOM     29  C   UNL     1      -8.039 -18.516  -1.002  0.00  0.00    +0.013 A 
BRANCH  18  19
ATOM     19  C   UNL     1      -6.511 -18.122  -4.545  0.00  0.00    +0.119 C 
BRANCH  19  20
ATOM     20  N   UNL     1      -5.452 -19.017  -5.099  0.00  0.00    -0.302 NA
ATOM     21  C   UNL     1      -5.034 -18.605  -6.514  0.00  0.00    +0.066 C 
ATOM     22  C   UNL     1      -3.910 -19.538  -7.070  0.00  0.00    -0.064 C 
ATOM     23  N   UNL     1      -4.398 -20.988  -7.050  0.00  0.00    +0.379 N 
ATOM     24  C   UNL     1      -3.365 -21.861  -7.626  0.00  0.00    -0.096 C 
ATOM     25  H   UNL     1      -5.298 -21.050  -7.705  0.00  0.00    -0.082 HD
ATOM     26  C   UNL     1      -4.817 -21.405  -5.647  0.00  0.00    -0.064 C 
ATOM     27  C   UNL     1      -5.914 -20.453  -5.093  0.00  0.00    +0.066 C 
ENDBRANCH  19  20
ENDBRANCH  18  19
ENDBRANCH  14  15
ENDBRANCH  12  13
TORSDOF 6
ENDMDL
MODEL 3
REMARK VINA RESULT:      -6.5     19.412     22.132
REMARK  Name = C:\Users\Docking\Desktop\test protocol\1iep_ligandH.pdb
REMARK  8 active torsions:
REMARK  status: ('A' for Active; 'I' for Inactive)
REMARK    1  A    between atoms: _5  and  _11
REMARK    2  A    between atoms: _19  and  _21
REMARK    3  A    between atoms: _22  and  _66
REMARK    4  A    between atoms: _27  and  _30
REMARK    5  A    between atoms: _32  and  _33
REMARK    6  A    between atoms: _38  and  _43
REMARK    7  A    between atoms: _43  and  _46
REMARK    8  A    between atoms: _53  and  _55
REMARK                            x       y       z     vdW  Elec       q    Type
REMARK                         _______ _______ _______ _____ _____    ______ ____
ROOT
ATOM     10  C   UNL     1      14.815 -17.694   9.787  0.00  0.00    +0.038 A 
ATOM     11  C   UNL     1      14.605 -16.296   9.903  0.00  0.00    +0.047 A 
ATOM     12  C   UNL     1      15.247 -15.523  10.954  0.00  0.00    +0.035 A 
ATOM     32  C   UNL     1      16.101 -16.206  11.869  0.00  0.00    +0.024 A 
ATOM     33  C   UNL     1      16.325 -17.627  11.767  0.00  0.00    +0.007 A 
ATOM     34  C   UNL     1      15.692 -18.395  10.733  0.00  0.00    -0.029 A 
ATOM     35  C   UNL     1      15.963 -19.916  10.674  0.00  0.00    +0.045 C 
ENDROOT
BRANCH  10   9
ATOM      4  C   UNL     1      14.712 -19.577   5.373  0.00  0.00    +0.077 A 
ATOM      5  C   UNL     1      16.040 -19.118   5.082  0.00  0.00    +0.048 A 
ATOM      6  C   UNL     1      16.712 -18.396   6.093  0.00  0.00    +0.116 A 
ATOM      7  N   UNL     1      16.094 -18.155   7.300  0.00  0.00    -0.223 NA
ATOM      8  C   UNL     1      14.812 -18.610   7.548  0.00  0.00    +0.220 A 
ATOM      9  N   UNL     1      14.173 -18.387   8.758  0.00  0.00    -0.283 N 
ATOM     36  H   UNL     1      13.224 -18.732   8.898  0.00  0.00    +0.155 HD
ATOM     37  N   UNL     1      14.147 -19.301   6.598  0.00  0.00    -0.214 NA
BRANCH   4   3
ATOM      1  C   UNL     1      12.183 -20.525   2.543  0.00  0.00    +0.020 A 
ATOM      2  C   UNL     1      12.971 -19.726   3.453  0.00  0.00    +0.013 A 
ATOM      3  C   UNL     1      13.873 -20.356   4.408  0.00  0.00    +0.019 A 
ATOM     38  C   UNL     1      13.957 -21.809   4.415  0.00  0.00    +0.120 A 
ATOM     39  N   UNL     1      13.186 -22.553   3.528  0.00  0.00    -0.263 NA
ATOM     40  C   UNL     1      12.312 -21.957   2.606  0.00  0.00    +0.111 A 
ENDBRANCH   4   3
ENDBRANCH  10   9
BRANCH  12  13
ATOM     13  N   UNL     1      15.065 -14.103  11.127  0.00  0.00    -0.281 N 
ATOM     14  C   UNL     1      15.984 -13.093  10.895  0.00  0.00    +0.248 C 
ATOM     30  O   UNL     1      17.177 -13.273  10.707  0.00  0.00    -0.270 OA
ATOM     31  H   UNL     1      14.148 -13.808  11.460  0.00  0.00    +0.155 HD
BRANCH  14  15
ATOM     15  C   UNL     1      15.510 -11.675  10.886  0.00  0.00    +0.037 A 
ATOM     16  C   UNL     1      15.382 -10.908  12.128  0.00  0.00    +0.013 A 
ATOM     17  C   UNL     1      14.907  -9.548  12.092  0.00  0.00    +0.005 A 
ATOM     18  C   UNL     1      14.557  -8.945  10.808  0.00  0.00    -0.033 A 
ATOM     28  C   UNL     1      14.698  -9.727   9.591  0.00  0.00    +0.005 A 
ATOM     29  C   UNL     1      15.163 -11.061   9.622  0.00  0.00    +0.013 A 
BRANCH  18  19
ATOM     19  C   UNL     1      14.021  -7.507  10.678  0.00  0.00    +0.119 C 
BRANCH  19  20
ATOM     20  N   UNL     1      12.541  -7.334  10.583  0.00  0.00    -0.302 NA
ATOM     21  C   UNL     1      12.157  -5.969  10.006  0.00  0.00    +0.066 C 
ATOM     22  C   UNL     1      10.606  -5.814   9.893  0.00  0.00    -0.064 C 
ATOM     23  N   UNL     1       9.974  -6.016  11.271  0.00  0.00    +0.379 N 
ATOM     24  C   UNL     1       8.521  -5.814  11.179  0.00  0.00    -0.096 C 
ATOM     25  H   UNL     1      10.383  -5.231  11.949  0.00  0.00    -0.082 HD
ATOM     26  C   UNL     1      10.352  -7.371  11.853  0.00  0.00    -0.064 C 
ATOM     27  C   UNL     1      11.897  -7.526  11.934  0.00  0.00    +0.066 C 
ENDBRANCH  19  20
ENDBRANCH  18  19
ENDBRANCH  14  15
ENDBRANCH  12  13
TORSDOF 6
ENDMDL
MODEL 4
REMARK VINA RESULT:      -6.5     20.538     23.768
REMARK  Name = C:\Users\Docking\Desktop\test protocol\1iep_ligandH.pdb
REMARK  8 active torsions:
REMARK  status: ('A' for Active; 'I' for Inactive)
REMARK    1  A    between atoms: _5  and  _11
REMARK    2  A    between atoms: _19  and  _21
REMARK    3  A    between atoms: _22  and  _66
REMARK    4  A    between atoms: _27  and  _30
REMARK    5  A    between atoms: _32  and  _33
REMARK    6  A    between atoms: _38  and  _43
REMARK    7  A    between atoms: _43  and  _46
REMARK    8  A    between atoms: _53  and  _55
REMARK                            x       y       z     vdW  Elec       q    Type
REMARK                         _______ _______ _______ _____ _____    ______ ____
ROOT
ATOM     10  C   UNL     1      15.270 -17.029  11.250  0.00  0.00    +0.038 A 
ATOM     11  C   UNL     1      14.724 -17.135   9.945  0.00  0.00    +0.047 A 
ATOM     12  C   UNL     1      14.865 -18.356   9.168  0.00  0.00    +0.035 A 
ATOM     32  C   UNL     1      15.565 -19.452   9.752  0.00  0.00    +0.024 A 
ATOM     33  C   UNL     1      16.127 -19.361  11.076  0.00  0.00    +0.007 A 
ATOM     34  C   UNL     1      15.993 -18.158  11.847  0.00  0.00    -0.029 A 
ATOM     35  C   UNL     1      16.622 -18.114  13.259  0.00  0.00    +0.045 C 
ENDROOT
BRANCH  10   9
ATOM      4  C   UNL     1      12.782 -14.141  14.168  0.00  0.00    +0.077 A 
ATOM      5  C   UNL     1      11.708 -15.085  14.283  0.00  0.00    +0.048 A 
ATOM      6  C   UNL     1      11.831 -16.298  13.569  0.00  0.00    +0.116 A 
ATOM      7  N   UNL     1      12.950 -16.540  12.802  0.00  0.00    -0.223 NA
ATOM      8  C   UNL     1      13.967 -15.607  12.711  0.00  0.00    +0.220 A 
ATOM      9  N   UNL     1      15.105 -15.832  11.952  0.00  0.00    -0.283 N 
ATOM     36  H   UNL     1      15.830 -15.117  11.905  0.00  0.00    +0.155 HD
ATOM     37  N   UNL     1      13.873 -14.440  13.382  0.00  0.00    -0.214 NA
BRANCH   4   3
ATOM      1  C   UNL     1      12.074 -11.243  16.698  0.00  0.00    +0.020 A 
ATOM      2  C   UNL     1      12.020 -12.541  16.064  0.00  0.00    +0.013 A 
ATOM      3  C   UNL     1      12.801 -12.816  14.864  0.00  0.00    +0.019 A 
ATOM     38  C   UNL     1      13.632 -11.749  14.328  0.00  0.00    +0.120 A 
ATOM     39  N   UNL     1      13.663 -10.510  14.959  0.00  0.00    -0.263 NA
ATOM     40  C   UNL     1      12.915 -10.232  16.113  0.00  0.00    +0.111 A 
ENDBRANCH   4   3
ENDBRANCH  10   9
BRANCH  12  13
ATOM     13  N   UNL     1      14.339 -18.519   7.835  0.00  0.00    -0.281 N 
ATOM     14  C   UNL     1      15.043 -18.586   6.644  0.00  0.00    +0.248 C 
ATOM     30  O   UNL     1      16.225 -18.300   6.523  0.00  0.00    -0.270 OA
ATOM     31  H   UNL     1      13.325 -18.595   7.761  0.00  0.00    +0.155 HD
BRANCH  14  15
ATOM     15  C   UNL     1      14.328 -19.019   5.405  0.00  0.00    +0.037 A 
ATOM     16  C   UNL     1      13.803 -18.041   4.449  0.00  0.00    +0.013 A 
ATOM     17  C   UNL     1      13.102 -18.486   3.271  0.00  0.00    +0.005 A 
ATOM     18  C   UNL     1      12.923 -19.918   3.042  0.00  0.00    -0.033 A 
ATOM     28  C   UNL     1      13.459 -20.866   4.004  0.00  0.00    +0.005 A 
ATOM     29  C   UNL     1      14.146 -20.434   5.160  0.00  0.00    +0.013 A 
BRANCH  18  19
ATOM     19  C   UNL     1      12.170 -20.482   1.822  0.00  0.00    +0.119 C 
BRANCH  19  20
ATOM     20  N   UNL     1      12.642 -21.786   1.270  0.00  0.00    -0.302 NA
ATOM     21  C   UNL     1      13.152 -21.651  -0.168  0.00  0.00    +0.066 C 
ATOM     22  C   UNL     1      13.663 -23.020  -0.722  0.00  0.00    -0.064 C 
ATOM     23  N   UNL     1      12.537 -24.052  -0.641  0.00  0.00    +0.379 N 
ATOM     24  C   UNL     1      12.996 -25.326  -1.215  0.00  0.00    -0.096 C 
ATOM     25  H   UNL     1      11.694 -23.682  -1.270  0.00  0.00    -0.082 HD
ATOM     26  C   UNL     1      12.023 -24.191   0.785  0.00  0.00    -0.064 C 
ATOM     27  C   UNL     1      11.544 -22.819   1.336  0.00  0.00    +0.066 C 
ENDBRANCH  19  20
ENDBRANCH  18  19
ENDBRANCH  14  15
ENDBRANCH  12  13
TORSDOF 6
ENDMDL
MODEL 5
REMARK VINA RESULT:      -6.3      3.866      7.460
REMARK  Name = C:\Users\Docking\Desktop\test protocol\1iep_ligandH.pdb
REMARK  8 active torsions:
REMARK  status: ('A' for Active; 'I' for Inactive)
REMARK    1  A    between atoms: _5  and  _11
REMARK    2  A    between atoms: _19  and  _21
REMARK    3  A    between atoms: _22  and  _66
REMARK    4  A    between atoms: _27  and  _30
REMARK    5  A    between atoms: _32  and  _33
REMARK    6  A    between atoms: _38  and  _43
REMARK    7  A    between atoms: _43  and  _46
REMARK    8  A    between atoms: _53  and  _55
REMARK                            x       y       z     vdW  Elec       q    Type
REMARK                         _______ _______ _______ _____ _____    ______ ____
ROOT
ATOM     10  C   UNL     1      -6.485 -10.436   4.555  0.00  0.00    +0.038 A 
ATOM     11  C   UNL     1      -5.949 -10.576   5.860  0.00  0.00    +0.047 A 
ATOM     12  C   UNL     1      -6.661 -11.315   6.891  0.00  0.00    +0.035 A 
ATOM     32  C   UNL     1      -7.917 -11.900   6.557  0.00  0.00    +0.024 A 
ATOM     33  C   UNL     1      -8.478 -11.766   5.236  0.00  0.00    +0.007 A 
ATOM     34  C   UNL     1      -7.780 -11.037   4.215  0.00  0.00    -0.029 A 
ATOM     35  C   UNL     1      -8.432 -10.921   2.818  0.00  0.00    +0.045 C 
ENDROOT
BRANCH  10   9
ATOM      4  C   UNL     1      -5.241  -6.336   2.391  0.00  0.00    +0.077 A 
ATOM      5  C   UNL     1      -6.135  -5.566   3.207  0.00  0.00    +0.048 A 
ATOM      6  C   UNL     1      -6.903  -6.263   4.167  0.00  0.00    +0.116 A 
ATOM      7  N   UNL     1      -6.777  -7.630   4.293  0.00  0.00    -0.223 NA
ATOM      8  C   UNL     1      -5.906  -8.343   3.489  0.00  0.00    +0.220 A 
ATOM      9  N   UNL     1      -5.758  -9.717   3.604  0.00  0.00    -0.283 N 
ATOM     36  H   UNL     1      -5.111 -10.207   2.987  0.00  0.00    +0.155 HD
ATOM     37  N   UNL     1      -5.164  -7.700   2.564  0.00  0.00    -0.214 NA
BRANCH   4   3
ATOM      1  C   UNL     1      -2.524  -5.890  -0.387  0.00  0.00    +0.020 A 
ATOM      2  C   UNL     1      -3.347  -6.511   0.625  0.00  0.00    +0.013 A 
ATOM      3  C   UNL     1      -4.362  -5.742   1.336  0.00  0.00    +0.019 A 
ATOM     38  C   UNL     1      -4.519  -4.336   0.995  0.00  0.00    +0.120 A 
ATOM     39  N   UNL     1      -3.711  -3.765   0.018  0.00  0.00    -0.263 NA
ATOM     40  C   UNL     1      -2.730  -4.494  -0.671  0.00  0.00    +0.111 A 
ENDBRANCH   4   3
ENDBRANCH  10   9
BRANCH  12  13
ATOM     13  N   UNL     1      -6.170 -11.483   8.236  0.00  0.00    -0.281 N 
ATOM     14  C   UNL     1      -6.722 -11.000   9.412  0.00  0.00    +0.248 C 
ATOM     30  O   UNL     1      -7.610 -10.163   9.464  0.00  0.00    -0.270 OA
ATOM     31  H   UNL     1      -5.311 -12.026   8.334  0.00  0.00    +0.155 HD
BRANCH  14  15
ATOM     15  C   UNL     1      -6.201 -11.508  10.717  0.00  0.00    +0.037 A 
ATOM     16  C   UNL     1      -6.598 -10.893  11.985  0.00  0.00    +0.013 A 
ATOM     17  C   UNL     1      -6.067 -11.392  13.229  0.00  0.00    +0.005 A 
ATOM     18  C   UNL     1      -5.134 -12.515  13.210  0.00  0.00    -0.033 A 
ATOM     28  C   UNL     1      -4.760 -13.110  11.937  0.00  0.00    +0.005 A 
ATOM     29  C   UNL     1      -5.277 -12.623  10.716  0.00  0.00    +0.013 A 
BRANCH  18  19
ATOM     19  C   UNL     1      -4.501 -13.099  14.487  0.00  0.00    +0.119 C 
BRANCH  19  20
ATOM     20  N   UNL     1      -3.456 -12.279  15.169  0.00  0.00    -0.302 NA
ATOM     21  C   UNL     1      -2.810 -11.267  14.219  0.00  0.00    +0.066 C 
ATOM     22  C   UNL     1      -1.734 -10.403  14.955  0.00  0.00    -0.064 C 
ATOM     23  N   UNL     1      -0.676 -11.322  15.567  0.00  0.00    +0.379 N 
ATOM     24  C   UNL     1       0.367 -10.510  16.210  0.00  0.00    -0.096 C 
ATOM     25  H   UNL     1      -0.199 -11.890  14.735  0.00  0.00    -0.082 HD
ATOM     26  C   UNL     1      -1.311 -12.334  16.511  0.00  0.00    -0.064 C 
ATOM     27  C   UNL     1      -2.399 -13.168  15.778  0.00  0.00    +0.066 C 
ENDBRANCH  19  20
ENDBRANCH  18  19
ENDBRANCH  14  15
ENDBRANCH  12  13
TORSDOF 6
ENDMDL
