MODEL 1
REMARK VINA RESULT:      -8.3      0.000      0.000
REMARK  Name = C:\Users\Docking\Desktop\test protocol\1iep_ligandH.pdb
REMARK  8 active torsions:
REMARK  status: ('A' for Active; 'I' for Inactive)
REMARK    1  A    between atoms: _5  and  _11
REMARK    2  A    between atoms: _19  and  _21
REMARK    3  A    between atoms: _22  and  _66
REMARK    4  A    between atoms: _27  and  _30
REMARK    5  A    between atoms: _32  and  _33
REMARK    6  A    between atoms: _38  and  _43
REMARK    7  A    between atoms: _43  and  _46
REMARK    8  A    between atoms: _53  and  _55
REMARK                            x       y       z     vdW  Elec       q    Type
REMARK                         _______ _______ _______ _____ _____    ______ ____
ROOT
ATOM     10  C   UNL     1      21.305   9.401  19.709  0.00  0.00    +0.038 A 
ATOM     11  C   UNL     1      20.437   8.556  20.447  0.00  0.00    +0.047 A 
ATOM     12  C   UNL     1      20.509   8.486  21.898  0.00  0.00    +0.035 A 
ATOM     32  C   UNL     1      21.476   9.292  22.566  0.00  0.00    +0.024 A 
ATOM     33  C   UNL     1      22.367  10.156  21.832  0.00  0.00    +0.007 A 
ATOM     34  C   UNL     1      22.302  10.227  20.400  0.00  0.00    -0.029 A 
ATOM     35  C   UNL     1      23.287  11.166  19.664  0.00  0.00    +0.045 C 
ENDROOT
BRANCH  10   9
ATOM      4  C   UNL     1      19.358  11.076  15.654  0.00  0.00    +0.077 A 
ATOM      5  C   UNL     1      18.473  11.949  16.370  0.00  0.00    +0.048 A 
ATOM      6  C   UNL     1      18.545  11.931  17.781  0.00  0.00    +0.116 A 
ATOM      7  N   UNL     1      19.440  11.099  18.418  0.00  0.00    -0.223 NA
ATOM      8  C   UNL     1      20.278  10.269  17.698  0.00  0.00    +0.220 A 
ATOM      9  N   UNL     1      21.191   9.430  18.317  0.00  0.00    -0.283 N 
ATOM     36  H   UNL     1      21.787   8.827  17.751  0.00  0.00    +0.155 HD
ATOM     37  N   UNL     1      20.228  10.266  16.349  0.00  0.00    -0.214 NA
BRANCH   4   3
ATOM      1  C   UNL     1      18.303  10.889  11.892  0.00  0.00    +0.020 A 
ATOM      2  C   UNL     1      18.205  10.980  13.330  0.00  0.00    +0.013 A 
ATOM      3  C   UNL     1      19.403  10.983  14.161  0.00  0.00    +0.019 A 
ATOM     38  C   UNL     1      20.696  10.892  13.499  0.00  0.00    +0.120 A 
ATOM     39  N   UNL     1      20.759  10.804  12.111  0.00  0.00    -0.263 NA
ATOM     40  C   UNL     1      19.613  10.798  11.302  0.00  0.00    +0.111 A 
ENDBRANCH   4   3
ENDBRANCH  10   9
BRANCH  12  13
ATOM     13  N   UNL     1      19.659   7.641  22.700  0.00  0.00    -0.281 N 
ATOM     14  C   UNL     1      19.958   7.034  23.909  0.00  0.00    +0.248 C 
ATOM     30  O   UNL     1      21.082   6.953  24.382  0.00  0.00    -0.270 OA
ATOM     31  H   UNL     1      18.724   7.469  22.331  0.00  0.00    +0.155 HD
BRANCH  14  15
ATOM     15  C   UNL     1      18.851   6.416  24.700  0.00  0.00    +0.037 A 
ATOM     16  C   UNL     1      18.507   6.906  26.037  0.00  0.00    +0.013 A 
ATOM     17  C   UNL     1      17.446   6.281  26.786  0.00  0.00    +0.005 A 
ATOM     18  C   UNL     1      16.719   5.158  26.197  0.00  0.00    -0.033 A 
ATOM     28  C   UNL     1      17.078   4.696  24.866  0.00  0.00    +0.005 A 
ATOM     29  C   UNL     1      18.118   5.305  24.130  0.00  0.00    +0.013 A 
BRANCH  18  19
ATOM     19  C   UNL     1      15.587   4.417  26.932  0.00  0.00    +0.119 C 
BRANCH  19  20
ATOM     20  N   UNL     1      14.187   4.848  26.642  0.00  0.00    -0.302 NA
ATOM     21  C   UNL     1      13.971   5.138  25.154  0.00  0.00    +0.066 C 
ATOM     22  C   UNL     1      12.495   5.566  24.865  0.00  0.00    -0.064 C 
ATOM     23  N   UNL     1      12.148   6.792  25.711  0.00  0.00    +0.379 N 
ATOM     24  C   UNL     1      10.780   7.231  25.399  0.00  0.00    -0.096 C 
ATOM     25  H   UNL     1      12.843   7.613  25.418  0.00  0.00    -0.082 HD
ATOM     26  C   UNL     1      12.362   6.513  27.192  0.00  0.00    -0.064 C 
ATOM     27  C   UNL     1      13.824   6.060  27.464  0.00  0.00    +0.066 C 
ENDBRANCH  19  20
ENDBRANCH  18  19
ENDBRANCH  14  15
ENDBRANCH  12  13
TORSDOF 6
ENDMDL
MODEL 2
REMARK VINA RESULT:      -8.2      4.415     11.047
REMARK  Name = C:\Users\Docking\Desktop\test protocol\1iep_ligandH.pdb
REMARK  8 active torsions:
REMARK  status: ('A' for Active; 'I' for Inactive)
REMARK    1  A    between atoms: _5  and  _11
REMARK    2  A    between atoms: _19  and  _21
REMARK    3  A    between atoms: _22  and  _66
REMARK    4  A    between atoms: _27  and  _30
REMARK    5  A    between atoms: _32  and  _33
REMARK    6  A    between atoms: _38  and  _43
REMARK    7  A    between atoms: _43  and  _46
REMARK    8  A    between atoms: _53  and  _55
REMARK                            x       y       z     vdW  Elec       q    Type
REMARK                         _______ _______ _______ _____ _____    ______ ____
ROOT
ATOM     10  C   UNL     1      10.956   4.549  24.218  0.00  0.00    +0.038 A 
ATOM     11  C   UNL     1      12.297   5.002  24.133  0.00  0.00    +0.047 A 
ATOM     12  C   UNL     1      13.098   5.212  25.329  0.00  0.00    +0.035 A 
ATOM     32  C   UNL     1      12.502   4.948  26.596  0.00  0.00    +0.024 A 
ATOM     33  C   UNL     1      11.139   4.488  26.701  0.00  0.00    +0.007 A 
ATOM     34  C   UNL     1      10.344   4.282  25.525  0.00  0.00    -0.029 A 
ATOM     35  C   UNL     1       8.886   3.793  25.698  0.00  0.00    +0.045 C 
ENDROOT
BRANCH  10   9
ATOM      4  C   UNL     1       7.765   5.998  20.938  0.00  0.00    +0.077 A 
ATOM      5  C   UNL     1       7.496   7.214  21.651  0.00  0.00    +0.048 A 
ATOM      6  C   UNL     1       8.194   7.424  22.861  0.00  0.00    +0.116 A 
ATOM      7  N   UNL     1       9.093   6.483  23.315  0.00  0.00    -0.223 NA
ATOM      8  C   UNL     1       9.328   5.321  22.604  0.00  0.00    +0.220 A 
ATOM      9  N   UNL     1      10.233   4.364  23.037  0.00  0.00    -0.283 N 
ATOM     36  H   UNL     1      10.373   3.517  22.488  0.00  0.00    +0.155 HD
ATOM     37  N   UNL     1       8.672   5.095  21.446  0.00  0.00    -0.214 NA
BRANCH   4   3
ATOM      1  C   UNL     1       6.801   4.135  17.637  0.00  0.00    +0.020 A 
ATOM      2  C   UNL     1       7.466   4.442  18.882  0.00  0.00    +0.013 A 
ATOM      3  C   UNL     1       7.109   5.633  19.643  0.00  0.00    +0.019 A 
ATOM     38  C   UNL     1       6.067   6.499  19.112  0.00  0.00    +0.120 A 
ATOM     39  N   UNL     1       5.445   6.178  17.909  0.00  0.00    -0.263 NA
ATOM     40  C   UNL     1       5.781   5.036  17.168  0.00  0.00    +0.111 A 
ENDBRANCH   4   3
ENDBRANCH  10   9
BRANCH  12  13
ATOM     13  N   UNL     1      14.462   5.678  25.305  0.00  0.00    -0.281 N 
ATOM     14  C   UNL     1      15.553   5.155  25.979  0.00  0.00    +0.248 C 
ATOM     30  O   UNL     1      15.480   4.330  26.878  0.00  0.00    -0.270 OA
ATOM     31  H   UNL     1      14.646   6.493  24.719  0.00  0.00    +0.155 HD
BRANCH  14  15
ATOM     15  C   UNL     1      16.923   5.626  25.611  0.00  0.00    +0.037 A 
ATOM     16  C   UNL     1      17.652   6.577  26.455  0.00  0.00    +0.013 A 
ATOM     17  C   UNL     1      18.965   7.028  26.069  0.00  0.00    +0.005 A 
ATOM     18  C   UNL     1      19.559   6.527  24.832  0.00  0.00    -0.033 A 
ATOM     28  C   UNL     1      18.817   5.580  24.016  0.00  0.00    +0.005 A 
ATOM     29  C   UNL     1      17.529   5.137  24.391  0.00  0.00    +0.013 A 
BRANCH  18  19
ATOM     19  C   UNL     1      20.947   6.970  24.331  0.00  0.00    +0.119 C 
BRANCH  19  20
ATOM     20  N   UNL     1      20.992   8.091  23.345  0.00  0.00    -0.302 NA
ATOM     21  C   UNL     1      20.457   9.398  23.936  0.00  0.00    +0.066 C 
ATOM     22  C   UNL     1      20.533  10.565  22.898  0.00  0.00    -0.064 C 
ATOM     23  N   UNL     1      19.749  10.179  21.643  0.00  0.00    +0.379 N 
ATOM     24  C   UNL     1      19.770  11.297  20.688  0.00  0.00    -0.096 C 
ATOM     25  H   UNL     1      18.689  10.010  21.944  0.00  0.00    -0.082 HD
ATOM     26  C   UNL     1      20.272   8.878  21.050  0.00  0.00    -0.064 C 
ATOM     27  C   UNL     1      20.220   7.732  22.098  0.00  0.00    +0.066 C 
ENDBRANCH  19  20
ENDBRANCH  18  19
ENDBRANCH  14  15
ENDBRANCH  12  13
TORSDOF 6
ENDMDL
MODEL 3
REMARK VINA RESULT:      -8.1      2.616     12.742
REMARK  Name = C:\Users\Docking\Desktop\test protocol\1iep_ligandH.pdb
REMARK  8 active torsions:
REMARK  status: ('A' for Active; 'I' for Inactive)
REMARK    1  A    between atoms: _5  and  _11
REMARK    2  A    between atoms: _19  and  _21
REMARK    3  A    between atoms: _22  and  _66
REMARK    4  A    between atoms: _27  and  _30
REMARK    5  A    between atoms: _32  and  _33
REMARK    6  A    between atoms: _38  and  _43
REMARK    7  A    between atoms: _43  and  _46
REMARK    8  A    between atoms: _53  and  _55
REMARK                            x       y       z     vdW  Elec       q    Type
REMARK                         _______ _______ _______ _____ _____    ______ ____
ROOT
ATOM     10  C   UNL     1      20.633   8.503  22.156  0.00  0.00    +0.038 A 
ATOM     11  C   UNL     1      20.152   8.636  20.828  0.00  0.00    +0.047 A 
ATOM     12  C   UNL     1      20.991   9.188  19.776  0.00  0.00    +0.035 A 
ATOM     32  C   UNL     1      22.315   9.594  20.111  0.00  0.00    +0.024 A 
ATOM     33  C   UNL     1      22.820   9.468  21.455  0.00  0.00    +0.007 A 
ATOM     34  C   UNL     1      21.997   8.925  22.498  0.00  0.00    -0.029 A 
ATOM     35  C   UNL     1      22.588   8.819  23.923  0.00  0.00    +0.045 C 
ENDROOT
BRANCH  10   9
ATOM      4  C   UNL     1      18.737   4.789  24.532  0.00  0.00    +0.077 A 
ATOM      5  C   UNL     1      19.477   3.837  23.755  0.00  0.00    +0.048 A 
ATOM      6  C   UNL     1      20.330   4.345  22.749  0.00  0.00    +0.116 A 
ATOM      7  N   UNL     1      20.427   5.704  22.544  0.00  0.00    -0.223 NA
ATOM      8  C   UNL     1      19.697   6.594  23.310  0.00  0.00    +0.220 A 
ATOM      9  N   UNL     1      19.785   7.966  23.127  0.00  0.00    -0.283 N 
ATOM     36  H   UNL     1      19.225   8.589  23.708  0.00  0.00    +0.155 HD
ATOM     37  N   UNL     1      18.875   6.135  24.276  0.00  0.00    -0.214 NA
BRANCH   4   3
ATOM      1  C   UNL     1      16.518   4.901  27.751  0.00  0.00    +0.020 A 
ATOM      2  C   UNL     1      17.430   5.318  26.712  0.00  0.00    +0.013 A 
ATOM      3  C   UNL     1      17.797   4.408  25.633  0.00  0.00    +0.019 A 
ATOM     38  C   UNL     1      17.217   3.074  25.636  0.00  0.00    +0.120 A 
ATOM     39  N   UNL     1      16.342   2.700  26.651  0.00  0.00    -0.263 NA
ATOM     40  C   UNL     1      15.984   3.566  27.695  0.00  0.00    +0.111 A 
ENDBRANCH   4   3
ENDBRANCH  10   9
BRANCH  12  13
ATOM     13  N   UNL     1      20.554   9.354  18.412  0.00  0.00    -0.281 N 
ATOM     14  C   UNL     1      19.834  10.407  17.870  0.00  0.00    +0.248 C 
ATOM     30  O   UNL     1      19.269  11.268  18.527  0.00  0.00    -0.270 OA
ATOM     31  H   UNL     1      20.807   8.605  17.767  0.00  0.00    +0.155 HD
BRANCH  14  15
ATOM     15  C   UNL     1      19.712  10.509  16.384  0.00  0.00    +0.037 A 
ATOM     16  C   UNL     1      20.896  10.650  15.532  0.00  0.00    +0.013 A 
ATOM     17  C   UNL     1      20.749  10.763  14.103  0.00  0.00    +0.005 A 
ATOM     18  C   UNL     1      19.412  10.735  13.516  0.00  0.00    -0.033 A 
ATOM     28  C   UNL     1      18.255  10.589  14.383  0.00  0.00    +0.005 A 
ATOM     29  C   UNL     1      18.395  10.478  15.785  0.00  0.00    +0.013 A 
BRANCH  18  19
ATOM     19  C   UNL     1      19.159  10.871  12.002  0.00  0.00    +0.119 C 
BRANCH  19  20
ATOM     20  N   UNL     1      19.905  11.943  11.279  0.00  0.00    -0.302 NA
ATOM     21  C   UNL     1      18.976  12.816  10.430  0.00  0.00    +0.066 C 
ATOM     22  C   UNL     1      19.770  13.947   9.698  0.00  0.00    -0.064 C 
ATOM     23  N   UNL     1      20.864  13.320   8.832  0.00  0.00    +0.379 N 
ATOM     24  C   UNL     1      21.574  14.377   8.097  0.00  0.00    -0.096 C 
ATOM     25  H   UNL     1      20.366  12.662   8.082  0.00  0.00    -0.082 HD
ATOM     26  C   UNL     1      21.790  12.448   9.667  0.00  0.00    -0.064 C 
ATOM     27  C   UNL     1      20.988  11.346  10.414  0.00  0.00    +0.066 C 
ENDBRANCH  19  20
ENDBRANCH  18  19
ENDBRANCH  14  15
ENDBRANCH  12  13
TORSDOF 6
ENDMDL
MODEL 4
REMARK VINA RESULT:      -7.7      4.798     11.479
REMARK  Name = C:\Users\Docking\Desktop\test protocol\1iep_ligandH.pdb
REMARK  8 active torsions:
REMARK  status: ('A' for Active; 'I' for Inactive)
REMARK    1  A    between atoms: _5  and  _11
REMARK    2  A    between atoms: _19  and  _21
REMARK    3  A    between atoms: _22  and  _66
REMARK    4  A    between atoms: _27  and  _30
REMARK    5  A    between atoms: _32  and  _33
REMARK    6  A    between atoms: _38  and  _43
REMARK    7  A    between atoms: _43  and  _46
REMARK    8  A    between atoms: _53  and  _55
REMARK                            x       y       z     vdW  Elec       q    Type
REMARK                         _______ _______ _______ _____ _____    ______ ____
ROOT
ATOM     10  C   UNL     1       9.656   6.815  24.442  0.00  0.00    +0.038 A 
ATOM     11  C   UNL     1      11.027   6.451  24.445  0.00  0.00    +0.047 A 
ATOM     12  C   UNL     1      11.778   6.356  25.688  0.00  0.00    +0.035 A 
ATOM     32  C   UNL     1      11.100   6.635  26.910  0.00  0.00    +0.024 A 
ATOM     33  C   UNL     1       9.707   7.007  26.925  0.00  0.00    +0.007 A 
ATOM     34  C   UNL     1       8.962   7.105  25.702  0.00  0.00    -0.029 A 
ATOM     35  C   UNL     1       7.473   7.515  25.778  0.00  0.00    +0.045 C 
ENDROOT
BRANCH  10   9
ATOM      4  C   UNL     1       7.307   4.805  20.771  0.00  0.00    +0.077 A 
ATOM      5  C   UNL     1       7.454   3.488  21.321  0.00  0.00    +0.048 A 
ATOM      6  C   UNL     1       8.147   3.370  22.547  0.00  0.00    +0.116 A 
ATOM      7  N   UNL     1       8.651   4.493  23.167  0.00  0.00    -0.223 NA
ATOM      8  C   UNL     1       8.493   5.748  22.609  0.00  0.00    +0.220 A 
ATOM      9  N   UNL     1       8.984   6.891  23.220  0.00  0.00    -0.283 N 
ATOM     36  H   UNL     1       8.854   7.798  22.773  0.00  0.00    +0.155 HD
ATOM     37  N   UNL     1       7.836   5.887  21.439  0.00  0.00    -0.214 NA
BRANCH   4   3
ATOM      1  C   UNL     1       6.076   4.614  17.063  0.00  0.00    +0.020 A 
ATOM      2  C   UNL     1       6.787   4.294  18.280  0.00  0.00    +0.013 A 
ATOM      3  C   UNL     1       6.597   5.092  19.485  0.00  0.00    +0.019 A 
ATOM     38  C   UNL     1       5.674   6.215  19.425  0.00  0.00    +0.120 A 
ATOM     39  N   UNL     1       5.004   6.500  18.239  0.00  0.00    -0.263 NA
ATOM     40  C   UNL     1       5.180   5.740  17.073  0.00  0.00    +0.111 A 
ENDBRANCH   4   3
ENDBRANCH  10   9
BRANCH  12  13
ATOM     13  N   UNL     1      13.173   5.999  25.752  0.00  0.00    -0.281 N 
ATOM     14  C   UNL     1      13.794   4.887  25.208  0.00  0.00    +0.248 C 
ATOM     30  O   UNL     1      13.203   3.915  24.761  0.00  0.00    -0.270 OA
ATOM     31  H   UNL     1      13.777   6.645  26.261  0.00  0.00    +0.155 HD
BRANCH  14  15
ATOM     15  C   UNL     1      15.288   4.842  25.165  0.00  0.00    +0.037 A 
ATOM     16  C   UNL     1      16.099   5.673  26.058  0.00  0.00    +0.013 A 
ATOM     17  C   UNL     1      17.537   5.623  25.985  0.00  0.00    +0.005 A 
ATOM     18  C   UNL     1      18.174   4.736  25.015  0.00  0.00    -0.033 A 
ATOM     28  C   UNL     1      17.346   3.918  24.145  0.00  0.00    +0.005 A 
ATOM     29  C   UNL     1      15.936   3.965  24.213  0.00  0.00    +0.013 A 
BRANCH  18  19
ATOM     19  C   UNL     1      19.703   4.634  24.853  0.00  0.00    +0.119 C 
BRANCH  19  20
ATOM     20  N   UNL     1      20.324   5.401  23.733  0.00  0.00    -0.302 NA
ATOM     21  C   UNL     1      19.502   6.637  23.358  0.00  0.00    +0.066 C 
ATOM     22  C   UNL     1      20.179   7.441  22.200  0.00  0.00    -0.064 C 
ATOM     23  N   UNL     1      20.364   6.526  20.988  0.00  0.00    +0.379 N 
ATOM     24  C   UNL     1      20.947   7.293  19.878  0.00  0.00    -0.096 C 
ATOM     25  H   UNL     1      19.354   6.181  20.667  0.00  0.00    -0.082 HD
ATOM     26  C   UNL     1      21.178   5.292  21.353  0.00  0.00    -0.064 C 
ATOM     27  C   UNL     1      20.513   4.517  22.525  0.00  0.00    +0.066 C 
ENDBRANCH  19  20
ENDBRANCH  18  19
ENDBRANCH  14  15
ENDBRANCH  12  13
TORSDOF 6
ENDMDL
MODEL 5
REMARK VINA RESULT:      -7.6      2.875     11.412
REMARK  Name = C:\Users\Docking\Desktop\test protocol\1iep_ligandH.pdb
REMARK  8 active torsions:
REMARK  status: ('A' for Active; 'I' for Inactive)
REMARK    1  A    between atoms: _5  and  _11
REMARK    2  A    between atoms: _19  and  _21
REMARK    3  A    between atoms: _22  and  _66
REMARK    4  A    between atoms: _27  and  _30
REMARK    5  A    between atoms: _32  and  _33
REMARK    6  A    between atoms: _38  and  _43
REMARK    7  A    between atoms: _43  and  _46
REMARK    8  A    between atoms: _53  and  _55
REMARK                            x       y       z     vdW  Elec       q    Type
REMARK                         _______ _______ _______ _____ _____    ______ ____
ROOT
ATOM     10  C   UNL     1      19.350   5.474  24.439  0.00  0.00    +0.038 A 
ATOM     11  C   UNL     1      19.359   6.430  23.391  0.00  0.00    +0.047 A 
ATOM     12  C   UNL     1      19.991   7.728  23.563  0.00  0.00    +0.035 A 
ATOM     32  C   UNL     1      20.608   8.019  24.814  0.00  0.00    +0.024 A 
ATOM     33  C   UNL     1      20.608   7.060  25.890  0.00  0.00    +0.007 A 
ATOM     34  C   UNL     1      19.983   5.778  25.728  0.00  0.00    -0.029 A 
ATOM     35  C   UNL     1      20.007   4.791  26.918  0.00  0.00    +0.045 C 
ENDROOT
BRANCH  10   9
ATOM      4  C   UNL     1      15.456   2.675  24.239  0.00  0.00    +0.077 A 
ATOM      5  C   UNL     1      14.590   3.750  24.630  0.00  0.00    +0.048 A 
ATOM      6  C   UNL     1      15.188   5.006  24.880  0.00  0.00    +0.116 A 
ATOM      7  N   UNL     1      16.550   5.163  24.746  0.00  0.00    -0.223 NA
ATOM      8  C   UNL     1      17.356   4.105  24.369  0.00  0.00    +0.220 A 
ATOM      9  N   UNL     1      18.728   4.243  24.220  0.00  0.00    -0.283 N 
ATOM     36  H   UNL     1      19.289   3.436  23.947  0.00  0.00    +0.155 HD
ATOM     37  N   UNL     1      16.810   2.895  24.125  0.00  0.00    -0.214 NA
BRANCH   4   3
ATOM      1  C   UNL     1      15.150  -0.930  22.750  0.00  0.00    +0.020 A 
ATOM      2  C   UNL     1      15.657   0.399  23.007  0.00  0.00    +0.013 A 
ATOM      3  C   UNL     1      14.974   1.290  23.936  0.00  0.00    +0.019 A 
ATOM     38  C   UNL     1      13.772   0.802  24.596  0.00  0.00    +0.120 A 
ATOM     39  N   UNL     1      13.307  -0.482  24.328  0.00  0.00    -0.263 NA
ATOM     40  C   UNL     1      13.955  -1.348  23.434  0.00  0.00    +0.111 A 
ENDBRANCH   4   3
ENDBRANCH  10   9
BRANCH  12  13
ATOM     13  N   UNL     1      20.024   8.742  22.537  0.00  0.00    -0.281 N 
ATOM     14  C   UNL     1      20.712   8.715  21.335  0.00  0.00    +0.248 C 
ATOM     30  O   UNL     1      21.579   7.900  21.053  0.00  0.00    -0.270 OA
ATOM     31  H   UNL     1      19.474   9.581  22.720  0.00  0.00    +0.155 HD
BRANCH  14  15
ATOM     15  C   UNL     1      20.403   9.750  20.303  0.00  0.00    +0.037 A 
ATOM     16  C   UNL     1      19.759  11.016  20.665  0.00  0.00    +0.013 A 
ATOM     17  C   UNL     1      19.457  11.990  19.647  0.00  0.00    +0.005 A 
ATOM     18  C   UNL     1      19.799  11.703  18.256  0.00  0.00    -0.033 A 
ATOM     28  C   UNL     1      20.442  10.442  17.926  0.00  0.00    +0.005 A 
ATOM     29  C   UNL     1      20.739   9.484  18.921  0.00  0.00    +0.013 A 
BRANCH  18  19
ATOM     19  C   UNL     1      19.494  12.676  17.102  0.00  0.00    +0.119 C 
BRANCH  19  20
ATOM     20  N   UNL     1      19.438  12.105  15.723  0.00  0.00    -0.302 NA
ATOM     21  C   UNL     1      19.478  13.195  14.648  0.00  0.00    +0.066 C 
ATOM     22  C   UNL     1      19.441  12.579  13.212  0.00  0.00    -0.064 C 
ATOM     23  N   UNL     1      18.187  11.716  13.062  0.00  0.00    +0.379 N 
ATOM     24  C   UNL     1      18.119  11.182  11.694  0.00  0.00    -0.096 C 
ATOM     25  H   UNL     1      17.302  12.378  13.211  0.00  0.00    -0.082 HD
ATOM     26  C   UNL     1      18.137  10.632  14.129  0.00  0.00    -0.064 C 
ATOM     27  C   UNL     1      18.204  11.253  15.552  0.00  0.00    +0.066 C 
ENDBRANCH  19  20
ENDBRANCH  18  19
ENDBRANCH  14  15
ENDBRANCH  12  13
TORSDOF 6
ENDMDL
