MODEL 1
REMARK VINA RESULT:      -6.5      0.000      0.000
REMARK  Name = C:\Users\Docking\Desktop\test protocol\1iep_ligandH.pdb
REMARK  8 active torsions:
REMARK  status: ('A' for Active; 'I' for Inactive)
REMARK    1  A    between atoms: _5  and  _11
REMARK    2  A    between atoms: _19  and  _21
REMARK    3  A    between atoms: _22  and  _66
REMARK    4  A    between atoms: _27  and  _30
REMARK    5  A    between atoms: _32  and  _33
REMARK    6  A    between atoms: _38  and  _43
REMARK    7  A    between atoms: _43  and  _46
REMARK    8  A    between atoms: _53  and  _55
REMARK                            x       y       z     vdW  Elec       q    Type
REMARK                         _______ _______ _______ _____ _____    ______ ____
ROOT
ATOM     10  C   UNL     1      29.392   8.200   6.694  0.00  0.00    +0.038 A 
ATOM     11  C   UNL     1      29.598   7.358   5.572  0.00  0.00    +0.047 A 
ATOM     12  C   UNL     1      30.804   7.459   4.766  0.00  0.00    +0.035 A 
ATOM     32  C   UNL     1      31.782   8.429   5.133  0.00  0.00    +0.024 A 
ATOM     33  C   UNL     1      31.589   9.294   6.270  0.00  0.00    +0.007 A 
ATOM     34  C   UNL     1      30.400   9.200   7.067  0.00  0.00    -0.029 A 
ATOM     35  C   UNL     1      30.243  10.158   8.271  0.00  0.00    +0.045 C 
ENDROOT
BRANCH  10   9
ATOM      4  C   UNL     1      24.770   9.192   7.522  0.00  0.00    +0.077 A 
ATOM      5  C   UNL     1      24.700  10.088   6.403  0.00  0.00    +0.048 A 
ATOM      6  C   UNL     1      25.878  10.271   5.645  0.00  0.00    +0.116 A 
ATOM      7  N   UNL     1      27.034   9.603   5.988  0.00  0.00    -0.223 NA
ATOM      8  C   UNL     1      27.067   8.748   7.074  0.00  0.00    +0.220 A 
ATOM      9  N   UNL     1      28.215   8.059   7.433  0.00  0.00    -0.283 N 
ATOM     36  H   UNL     1      28.201   7.443   8.246  0.00  0.00    +0.155 HD
ATOM     37  N   UNL     1      25.955   8.557   7.815  0.00  0.00    -0.214 NA
BRANCH   4   3
ATOM      1  C   UNL     1      21.445   7.710   8.954  0.00  0.00    +0.020 A 
ATOM      2  C   UNL     1      22.544   7.966   8.052  0.00  0.00    +0.013 A 
ATOM      3  C   UNL     1      23.608   8.892   8.418  0.00  0.00    +0.019 A 
ATOM     38  C   UNL     1      23.529   9.549   9.714  0.00  0.00    +0.120 A 
ATOM     39  N   UNL     1      22.457   9.285  10.561  0.00  0.00    -0.263 NA
ATOM     40  C   UNL     1      21.427   8.396  10.219  0.00  0.00    +0.111 A 
ENDBRANCH   4   3
ENDBRANCH  10   9
BRANCH  12  13
ATOM     13  N   UNL     1      31.064   6.637   3.611  0.00  0.00    -0.281 N 
ATOM     14  C   UNL     1      31.454   5.308   3.582  0.00  0.00    +0.248 C 
ATOM     30  O   UNL     1      31.848   4.682   4.555  0.00  0.00    -0.270 OA
ATOM     31  H   UNL     1      30.947   7.089   2.704  0.00  0.00    +0.155 HD
BRANCH  14  15
ATOM     15  C   UNL     1      31.416   4.572   2.282  0.00  0.00    +0.037 A 
ATOM     16  C   UNL     1      31.818   3.166   2.192  0.00  0.00    +0.013 A 
ATOM     17  C   UNL     1      31.787   2.484   0.922  0.00  0.00    +0.005 A 
ATOM     18  C   UNL     1      31.351   3.209  -0.269  0.00  0.00    -0.033 A 
ATOM     28  C   UNL     1      30.953   4.602  -0.151  0.00  0.00    +0.005 A 
ATOM     29  C   UNL     1      30.982   5.273   1.092  0.00  0.00    +0.013 A 
BRANCH  18  19
ATOM     19  C   UNL     1      31.307   2.567  -1.668  0.00  0.00    +0.119 C 
BRANCH  19  20
ATOM     20  N   UNL     1      32.277   1.467  -1.947  0.00  0.00    -0.302 NA
ATOM     21  C   UNL     1      33.709   1.988  -2.101  0.00  0.00    +0.066 C 
ATOM     22  C   UNL     1      34.714   0.822  -2.370  0.00  0.00    -0.064 C 
ATOM     23  N   UNL     1      34.279   0.056  -3.620  0.00  0.00    +0.379 N 
ATOM     24  C   UNL     1      35.254  -1.006  -3.909  0.00  0.00    -0.096 C 
ATOM     25  H   UNL     1      34.293   0.770  -4.476  0.00  0.00    -0.082 HD
ATOM     26  C   UNL     1      32.856  -0.464  -3.477  0.00  0.00    -0.064 C 
ATOM     27  C   UNL     1      31.869   0.700  -3.181  0.00  0.00    +0.066 C 
ENDBRANCH  19  20
ENDBRANCH  18  19
ENDBRANCH  14  15
ENDBRANCH  12  13
TORSDOF 6
ENDMDL
MODEL 2
REMARK VINA RESULT:      -6.5      5.928     10.889
REMARK  Name = C:\Users\Docking\Desktop\test protocol\1iep_ligandH.pdb
REMARK  8 active torsions:
REMARK  status: ('A' for Active; 'I' for Inactive)
REMARK    1  A    between atoms: _5  and  _11
REMARK    2  A    between atoms: _19  and  _21
REMARK    3  A    between atoms: _22  and  _66
REMARK    4  A    between atoms: _27  and  _30
REMARK    5  A    between atoms: _32  and  _33
REMARK    6  A    between atoms: _38  and  _43
REMARK    7  A    between atoms: _43  and  _46
REMARK    8  A    between atoms: _53  and  _55
REMARK                            x       y       z     vdW  Elec       q    Type
REMARK                         _______ _______ _______ _____ _____    ______ ____
ROOT
ATOM     10  C   UNL     1      32.104   1.466  -1.859  0.00  0.00    +0.038 A 
ATOM     11  C   UNL     1      32.527   0.651  -0.778  0.00  0.00    +0.047 A 
ATOM     12  C   UNL     1      32.884  -0.744  -0.982  0.00  0.00    +0.035 A 
ATOM     32  C   UNL     1      32.801  -1.277  -2.302  0.00  0.00    +0.024 A 
ATOM     33  C   UNL     1      32.372  -0.463  -3.412  0.00  0.00    +0.007 A 
ATOM     34  C   UNL     1      32.016   0.913  -3.216  0.00  0.00    -0.029 A 
ATOM     35  C   UNL     1      31.556   1.737  -4.442  0.00  0.00    +0.045 C 
ENDROOT
BRANCH  10   9
ATOM      4  C   UNL     1      31.295   5.132   1.131  0.00  0.00    +0.077 A 
ATOM      5  C   UNL     1      31.524   4.316   2.289  0.00  0.00    +0.048 A 
ATOM      6  C   UNL     1      31.841   2.956   2.071  0.00  0.00    +0.116 A 
ATOM      7  N   UNL     1      31.920   2.460   0.788  0.00  0.00    -0.223 NA
ATOM      8  C   UNL     1      31.691   3.274  -0.306  0.00  0.00    +0.220 A 
ATOM      9  N   UNL     1      31.773   2.799  -1.606  0.00  0.00    -0.283 N 
ATOM     36  H   UNL     1      31.591   3.430  -2.386  0.00  0.00    +0.155 HD
ATOM     37  N   UNL     1      31.386   4.576  -0.125  0.00  0.00    -0.214 NA
BRANCH   4   3
ATOM      1  C   UNL     1      30.167   8.750   0.162  0.00  0.00    +0.020 A 
ATOM      2  C   UNL     1      30.483   7.345   0.045  0.00  0.00    +0.013 A 
ATOM      3  C   UNL     1      30.955   6.588   1.198  0.00  0.00    +0.019 A 
ATOM     38  C   UNL     1      31.097   7.289   2.465  0.00  0.00    +0.120 A 
ATOM     39  N   UNL     1      30.786   8.643   2.548  0.00  0.00    -0.263 NA
ATOM     40  C   UNL     1      30.333   9.381   1.445  0.00  0.00    +0.111 A 
ENDBRANCH   4   3
ENDBRANCH  10   9
BRANCH  12  13
ATOM     13  N   UNL     1      33.313  -1.622   0.078  0.00  0.00    -0.281 N 
ATOM     14  C   UNL     1      34.535  -1.635   0.731  0.00  0.00    +0.248 C 
ATOM     30  O   UNL     1      35.527  -1.029   0.354  0.00  0.00    -0.270 OA
ATOM     31  H   UNL     1      32.634  -2.318   0.385  0.00  0.00    +0.155 HD
BRANCH  14  15
ATOM     15  C   UNL     1      34.680  -2.451   1.975  0.00  0.00    +0.037 A 
ATOM     16  C   UNL     1      33.706  -3.490   2.321  0.00  0.00    +0.013 A 
ATOM     17  C   UNL     1      33.861  -4.251   3.535  0.00  0.00    +0.005 A 
ATOM     18  C   UNL     1      34.996  -3.976   4.413  0.00  0.00    -0.033 A 
ATOM     28  C   UNL     1      35.950  -2.944   4.043  0.00  0.00    +0.005 A 
ATOM     29  C   UNL     1      35.802  -2.195   2.854  0.00  0.00    +0.013 A 
BRANCH  18  19
ATOM     19  C   UNL     1      35.228  -4.724   5.739  0.00  0.00    +0.119 C 
BRANCH  19  20
ATOM     20  N   UNL     1      34.410  -4.302   6.914  0.00  0.00    -0.302 NA
ATOM     21  C   UNL     1      33.087  -5.067   6.998  0.00  0.00    +0.066 C 
ATOM     22  C   UNL     1      32.254  -4.629   8.246  0.00  0.00    -0.064 C 
ATOM     23  N   UNL     1      32.004  -3.121   8.186  0.00  0.00    +0.379 N 
ATOM     24  C   UNL     1      31.172  -2.715   9.328  0.00  0.00    -0.096 C 
ATOM     25  H   UNL     1      31.428  -2.911   7.255  0.00  0.00    -0.082 HD
ATOM     26  C   UNL     1      33.315  -2.352   8.100  0.00  0.00    -0.064 C 
ATOM     27  C   UNL     1      34.149  -2.816   6.873  0.00  0.00    +0.066 C 
ENDBRANCH  19  20
ENDBRANCH  18  19
ENDBRANCH  14  15
ENDBRANCH  12  13
TORSDOF 6
ENDMDL
MODEL 3
REMARK VINA RESULT:      -6.4      2.002     12.678
REMARK  Name = C:\Users\Docking\Desktop\test protocol\1iep_ligandH.pdb
REMARK  8 active torsions:
REMARK  status: ('A' for Active; 'I' for Inactive)
REMARK    1  A    between atoms: _5  and  _11
REMARK    2  A    between atoms: _19  and  _21
REMARK    3  A    between atoms: _22  and  _66
REMARK    4  A    between atoms: _27  and  _30
REMARK    5  A    between atoms: _32  and  _33
REMARK    6  A    between atoms: _38  and  _43
REMARK    7  A    between atoms: _43  and  _46
REMARK    8  A    between atoms: _53  and  _55
REMARK                            x       y       z     vdW  Elec       q    Type
REMARK                         _______ _______ _______ _____ _____    ______ ____
ROOT
ATOM     10  C   UNL     1      32.642   2.845   1.836  0.00  0.00    +0.038 A 
ATOM     11  C   UNL     1      31.835   3.796   2.512  0.00  0.00    +0.047 A 
ATOM     12  C   UNL     1      32.364   4.585   3.614  0.00  0.00    +0.035 A 
ATOM     32  C   UNL     1      33.722   4.382   3.998  0.00  0.00    +0.024 A 
ATOM     33  C   UNL     1      34.556   3.419   3.323  0.00  0.00    +0.007 A 
ATOM     34  C   UNL     1      34.038   2.636   2.237  0.00  0.00    -0.029 A 
ATOM     35  C   UNL     1      34.976   1.615   1.553  0.00  0.00    +0.045 C 
ENDROOT
BRANCH  10   9
ATOM      4  C   UNL     1      31.757   2.140  -2.828  0.00  0.00    +0.077 A 
ATOM      5  C   UNL     1      32.446   3.341  -3.202  0.00  0.00    +0.048 A 
ATOM      6  C   UNL     1      33.008   4.117  -2.162  0.00  0.00    +0.116 A 
ATOM      7  N   UNL     1      32.884   3.710  -0.851  0.00  0.00    -0.223 NA
ATOM      8  C   UNL     1      32.212   2.547  -0.526  0.00  0.00    +0.220 A 
ATOM      9  N   UNL     1      32.082   2.115   0.785  0.00  0.00    -0.283 N 
ATOM     36  H   UNL     1      31.572   1.255   0.985  0.00  0.00    +0.155 HD
ATOM     37  N   UNL     1      31.665   1.790  -1.500  0.00  0.00    -0.214 NA
BRANCH   4   3
ATOM      1  C   UNL     1      29.336   0.634  -5.506  0.00  0.00    +0.020 A 
ATOM      2  C   UNL     1      29.918   1.566  -4.568  0.00  0.00    +0.013 A 
ATOM      3  C   UNL     1      31.113   1.213  -3.812  0.00  0.00    +0.019 A 
ATOM     38  C   UNL     1      31.700  -0.100  -4.032  0.00  0.00    +0.120 A 
ATOM     39  N   UNL     1      31.117  -0.977  -4.941  0.00  0.00    -0.263 NA
ATOM     40  C   UNL     1      29.966  -0.649  -5.673  0.00  0.00    +0.111 A 
ENDBRANCH   4   3
ENDBRANCH  10   9
BRANCH  12  13
ATOM     13  N   UNL     1      31.590   5.559   4.343  0.00  0.00    -0.281 N 
ATOM     14  C   UNL     1      31.507   6.923   4.117  0.00  0.00    +0.248 C 
ATOM     30  O   UNL     1      32.256   7.548   3.382  0.00  0.00    -0.270 OA
ATOM     31  H   UNL     1      31.037   5.198   5.120  0.00  0.00    +0.155 HD
BRANCH  14  15
ATOM     15  C   UNL     1      30.447   7.708   4.820  0.00  0.00    +0.037 A 
ATOM     16  C   UNL     1      30.377   9.166   4.701  0.00  0.00    +0.013 A 
ATOM     17  C   UNL     1      29.355   9.901   5.404  0.00  0.00    +0.005 A 
ATOM     18  C   UNL     1      28.393   9.177   6.231  0.00  0.00    -0.033 A 
ATOM     28  C   UNL     1      28.483   7.729   6.327  0.00  0.00    +0.005 A 
ATOM     29  C   UNL     1      29.484   7.006   5.641  0.00  0.00    +0.013 A 
BRANCH  18  19
ATOM     19  C   UNL     1      27.283   9.881   7.033  0.00  0.00    +0.119 C 
BRANCH  19  20
ATOM     20  N   UNL     1      26.165   9.032   7.544  0.00  0.00    -0.302 NA
ATOM     21  C   UNL     1      24.796   9.557   7.102  0.00  0.00    +0.066 C 
ATOM     22  C   UNL     1      23.640   8.644   7.627  0.00  0.00    -0.064 C 
ATOM     23  N   UNL     1      23.719   8.552   9.152  0.00  0.00    +0.379 N 
ATOM     24  C   UNL     1      22.599   7.742   9.652  0.00  0.00    -0.096 C 
ATOM     25  H   UNL     1      23.599   9.583   9.559  0.00  0.00    -0.082 HD
ATOM     26  C   UNL     1      25.078   8.033   9.600  0.00  0.00    -0.064 C 
ATOM     27  C   UNL     1      26.221   8.931   9.049  0.00  0.00    +0.066 C 
ENDBRANCH  19  20
ENDBRANCH  18  19
ENDBRANCH  14  15
ENDBRANCH  12  13
TORSDOF 6
ENDMDL
MODEL 4
REMARK VINA RESULT:      -6.4     17.996     21.769
REMARK  Name = C:\Users\Docking\Desktop\test protocol\1iep_ligandH.pdb
REMARK  8 active torsions:
REMARK  status: ('A' for Active; 'I' for Inactive)
REMARK    1  A    between atoms: _5  and  _11
REMARK    2  A    between atoms: _19  and  _21
REMARK    3  A    between atoms: _22  and  _66
REMARK    4  A    between atoms: _27  and  _30
REMARK    5  A    between atoms: _32  and  _33
REMARK    6  A    between atoms: _38  and  _43
REMARK    7  A    between atoms: _43  and  _46
REMARK    8  A    between atoms: _53  and  _55
REMARK                            x       y       z     vdW  Elec       q    Type
REMARK                         _______ _______ _______ _____ _____    ______ ____
ROOT
ATOM     10  C   UNL     1       9.824   2.643  -4.284  0.00  0.00    +0.038 A 
ATOM     11  C   UNL     1       9.960   1.573  -3.363  0.00  0.00    +0.047 A 
ATOM     12  C   UNL     1       9.018   0.466  -3.352  0.00  0.00    +0.035 A 
ATOM     32  C   UNL     1       7.949   0.479  -4.294  0.00  0.00    +0.024 A 
ATOM     33  C   UNL     1       7.794   1.559  -5.237  0.00  0.00    +0.007 A 
ATOM     34  C   UNL     1       8.720   2.655  -5.251  0.00  0.00    -0.029 A 
ATOM     35  C   UNL     1       8.502   3.790  -6.279  0.00  0.00    +0.045 C 
ENDROOT
BRANCH  10   9
ATOM      4  C   UNL     1      11.556   6.722  -2.438  0.00  0.00    +0.077 A 
ATOM      5  C   UNL     1      10.495   6.806  -1.476  0.00  0.00    +0.048 A 
ATOM      6  C   UNL     1       9.520   5.783  -1.494  0.00  0.00    +0.116 A 
ATOM      7  N   UNL     1       9.609   4.758  -2.410  0.00  0.00    -0.223 NA
ATOM      8  C   UNL     1      10.644   4.708  -3.325  0.00  0.00    +0.220 A 
ATOM      9  N   UNL     1      10.758   3.681  -4.251  0.00  0.00    -0.283 N 
ATOM     36  H   UNL     1      11.532   3.684  -4.914  0.00  0.00    +0.155 HD
ATOM     37  N   UNL     1      11.587   5.673  -3.330  0.00  0.00    -0.214 NA
BRANCH   4   3
ATOM      1  C   UNL     1      14.913   8.490  -3.386  0.00  0.00    +0.020 A 
ATOM      2  C   UNL     1      13.874   7.489  -3.318  0.00  0.00    +0.013 A 
ATOM      3  C   UNL     1      12.663   7.724  -2.542  0.00  0.00    +0.019 A 
ATOM     38  C   UNL     1      12.533   8.993  -1.843  0.00  0.00    +0.120 A 
ATOM     39  N   UNL     1      13.551   9.938  -1.926  0.00  0.00    -0.263 NA
ATOM     40  C   UNL     1      14.722   9.722  -2.668  0.00  0.00    +0.111 A 
ENDBRANCH   4   3
ENDBRANCH  10   9
BRANCH  12  13
ATOM     13  N   UNL     1       9.101  -0.644  -2.435  0.00  0.00    -0.281 N 
ATOM     14  C   UNL     1      10.188  -1.467  -2.190  0.00  0.00    +0.248 C 
ATOM     30  O   UNL     1      11.194  -1.507  -2.882  0.00  0.00    -0.270 OA
ATOM     31  H   UNL     1       8.255  -0.848  -1.902  0.00  0.00    +0.155 HD
BRANCH  14  15
ATOM     15  C   UNL     1      10.146  -2.389  -1.015  0.00  0.00    +0.037 A 
ATOM     16  C   UNL     1      11.235  -3.332  -0.749  0.00  0.00    +0.013 A 
ATOM     17  C   UNL     1      11.161  -4.223   0.382  0.00  0.00    +0.005 A 
ATOM     18  C   UNL     1       9.992  -4.173   1.258  0.00  0.00    -0.033 A 
ATOM     28  C   UNL     1       8.928  -3.224   0.974  0.00  0.00    +0.005 A 
ATOM     29  C   UNL     1       8.997  -2.350  -0.135  0.00  0.00    +0.013 A 
BRANCH  18  19
ATOM     19  C   UNL     1       9.819  -5.100   2.475  0.00  0.00    +0.119 C 
BRANCH  19  20
ATOM     20  N   UNL     1      11.032  -5.822   2.963  0.00  0.00    -0.302 NA
ATOM     21  C   UNL     1      10.732  -7.285   3.300  0.00  0.00    +0.066 C 
ATOM     22  C   UNL     1      12.017  -8.032   3.787  0.00  0.00    -0.064 C 
ATOM     23  N   UNL     1      12.597  -7.304   5.001  0.00  0.00    +0.379 N 
ATOM     24  C   UNL     1      13.772  -8.036   5.497  0.00  0.00    -0.096 C 
ATOM     25  H   UNL     1      11.825  -7.319   5.805  0.00  0.00    -0.082 HD
ATOM     26  C   UNL     1      12.895  -5.847   4.675  0.00  0.00    -0.064 C 
ATOM     27  C   UNL     1      11.619  -5.123   4.164  0.00  0.00    +0.066 C 
ENDBRANCH  19  20
ENDBRANCH  18  19
ENDBRANCH  14  15
ENDBRANCH  12  13
TORSDOF 6
ENDMDL
MODEL 5
REMARK VINA RESULT:      -6.4      1.237      1.746
REMARK  Name = C:\Users\Docking\Desktop\test protocol\1iep_ligandH.pdb
REMARK  8 active torsions:
REMARK  status: ('A' for Active; 'I' for Inactive)
REMARK    1  A    between atoms: _5  and  _11
REMARK    2  A    between atoms: _19  and  _21
REMARK    3  A    between atoms: _22  and  _66
REMARK    4  A    between atoms: _27  and  _30
REMARK    5  A    between atoms: _32  and  _33
REMARK    6  A    between atoms: _38  and  _43
REMARK    7  A    between atoms: _43  and  _46
REMARK    8  A    between atoms: _53  and  _55
REMARK                            x       y       z     vdW  Elec       q    Type
REMARK                         _______ _______ _______ _____ _____    ______ ____
ROOT
ATOM     10  C   UNL     1      29.073   8.293   7.101  0.00  0.00    +0.038 A 
ATOM     11  C   UNL     1      29.258   7.471   5.960  0.00  0.00    +0.047 A 
ATOM     12  C   UNL     1      30.442   7.597   5.125  0.00  0.00    +0.035 A 
ATOM     32  C   UNL     1      31.421   8.569   5.483  0.00  0.00    +0.024 A 
ATOM     33  C   UNL     1      31.249   9.414   6.639  0.00  0.00    +0.007 A 
ATOM     34  C   UNL     1      30.081   9.296   7.465  0.00  0.00    -0.029 A 
ATOM     35  C   UNL     1      29.946  10.233   8.688  0.00  0.00    +0.045 C 
ENDROOT
BRANCH  10   9
ATOM      4  C   UNL     1      24.388   8.975   7.892  0.00  0.00    +0.077 A 
ATOM      5  C   UNL     1      24.237   9.745   6.691  0.00  0.00    +0.048 A 
ATOM      6  C   UNL     1      25.391   9.949   5.901  0.00  0.00    +0.116 A 
ATOM      7  N   UNL     1      26.601   9.417   6.293  0.00  0.00    -0.223 NA
ATOM      8  C   UNL     1      26.712   8.680   7.458  0.00  0.00    +0.220 A 
ATOM      9  N   UNL     1      27.917   8.129   7.867  0.00  0.00    -0.283 N 
ATOM     36  H   UNL     1      27.959   7.599   8.736  0.00  0.00    +0.155 HD
ATOM     37  N   UNL     1      25.625   8.473   8.230  0.00  0.00    -0.214 NA
BRANCH   4   3
ATOM      1  C   UNL     1      20.828   8.238   9.335  0.00  0.00    +0.020 A 
ATOM      2  C   UNL     1      21.879   8.534   8.389  0.00  0.00    +0.013 A 
ATOM      3  C   UNL     1      23.261   8.670   8.829  0.00  0.00    +0.019 A 
ATOM     38  C   UNL     1      23.549   8.500  10.246  0.00  0.00    +0.120 A 
ATOM     39  N   UNL     1      22.516   8.217  11.134  0.00  0.00    -0.263 NA
ATOM     40  C   UNL     1      21.182   8.085  10.722  0.00  0.00    +0.111 A 
ENDBRANCH   4   3
ENDBRANCH  10   9
BRANCH  12  13
ATOM     13  N   UNL     1      30.680   6.795   3.951  0.00  0.00    -0.281 N 
ATOM     14  C   UNL     1      31.655   5.829   3.762  0.00  0.00    +0.248 C 
ATOM     30  O   UNL     1      32.610   5.657   4.505  0.00  0.00    -0.270 OA
ATOM     31  H   UNL     1      30.054   6.960   3.162  0.00  0.00    +0.155 HD
BRANCH  14  15
ATOM     15  C   UNL     1      31.563   4.934   2.569  0.00  0.00    +0.037 A 
ATOM     16  C   UNL     1      31.066   5.430   1.283  0.00  0.00    +0.013 A 
ATOM     17  C   UNL     1      30.971   4.541   0.152  0.00  0.00    +0.005 A 
ATOM     18  C   UNL     1      31.377   3.146   0.302  0.00  0.00    -0.033 A 
ATOM     28  C   UNL     1      31.872   2.681   1.588  0.00  0.00    +0.005 A 
ATOM     29  C   UNL     1      31.965   3.549   2.699  0.00  0.00    +0.013 A 
BRANCH  18  19
ATOM     19  C   UNL     1      31.290   2.122  -0.845  0.00  0.00    +0.119 C 
BRANCH  19  20
ATOM     20  N   UNL     1      31.746   2.567  -2.195  0.00  0.00    -0.302 NA
ATOM     21  C   UNL     1      31.176   1.689  -3.312  0.00  0.00    +0.066 C 
ATOM     22  C   UNL     1      31.645   2.183  -4.720  0.00  0.00    -0.064 C 
ATOM     23  N   UNL     1      33.174   2.196  -4.769  0.00  0.00    +0.379 N 
ATOM     24  C   UNL     1      33.618   2.605  -6.109  0.00  0.00    -0.096 C 
ATOM     25  H   UNL     1      33.527   1.153  -4.598  0.00  0.00    -0.082 HD
ATOM     26  C   UNL     1      33.750   3.065  -3.659  0.00  0.00    -0.064 C 
ATOM     27  C   UNL     1      33.253   2.584  -2.267  0.00  0.00    +0.066 C 
ENDBRANCH  19  20
ENDBRANCH  18  19
ENDBRANCH  14  15
ENDBRANCH  12  13
TORSDOF 6
ENDMDL
