MODEL 1
REMARK VINA RESULT:     -11.9      0.000      0.000
REMARK  Name = C:\Users\Docking\Desktop\test protocol\1iep_ligandH.pdb
REMARK  8 active torsions:
REMARK  status: ('A' for Active; 'I' for Inactive)
REMARK    1  A    between atoms: _5  and  _11
REMARK    2  A    between atoms: _19  and  _21
REMARK    3  A    between atoms: _22  and  _66
REMARK    4  A    between atoms: _27  and  _30
REMARK    5  A    between atoms: _32  and  _33
REMARK    6  A    between atoms: _38  and  _43
REMARK    7  A    between atoms: _43  and  _46
REMARK    8  A    between atoms: _53  and  _55
REMARK                            x       y       z     vdW  Elec       q    Type
REMARK                         _______ _______ _______ _____ _____    ______ ____
ROOT
ATOM     10  C   UNL     1      -2.409  -5.117  -4.725  0.00  0.00    +0.038 A 
ATOM     11  C   UNL     1      -2.398  -3.744  -4.370  0.00  0.00    +0.047 A 
ATOM     12  C   UNL     1      -1.209  -3.122  -3.809  0.00  0.00    +0.035 A 
ATOM     32  C   UNL     1      -0.047  -3.927  -3.626  0.00  0.00    +0.024 A 
ATOM     33  C   UNL     1      -0.041  -5.325  -3.980  0.00  0.00    +0.007 A 
ATOM     34  C   UNL     1      -1.212  -5.945  -4.532  0.00  0.00    -0.029 A 
ATOM     35  C   UNL     1      -1.151  -7.448  -4.888  0.00  0.00    +0.045 C 
ENDROOT
BRANCH  10   9
ATOM      4  C   UNL     1      -5.091  -6.575  -8.429  0.00  0.00    +0.077 A 
ATOM      5  C   UNL     1      -4.090  -6.191  -9.382  0.00  0.00    +0.048 A 
ATOM      6  C   UNL     1      -2.902  -5.616  -8.878  0.00  0.00    +0.116 A 
ATOM      7  N   UNL     1      -2.738  -5.442  -7.521  0.00  0.00    -0.223 NA
ATOM      8  C   UNL     1      -3.725  -5.822  -6.629  0.00  0.00    +0.220 A 
ATOM      9  N   UNL     1      -3.578  -5.664  -5.260  0.00  0.00    -0.283 N 
ATOM     36  H   UNL     1      -4.332  -5.949  -4.636  0.00  0.00    +0.155 HD
ATOM     37  N   UNL     1      -4.869  -6.372  -7.085  0.00  0.00    -0.214 NA
BRANCH   4   3
ATOM      1  C   UNL     1      -7.985  -8.232 -10.473  0.00  0.00    +0.020 A 
ATOM      2  C   UNL     1      -6.707  -7.635 -10.162  0.00  0.00    +0.013 A 
ATOM      3  C   UNL     1      -6.399  -7.199  -8.806  0.00  0.00    +0.019 A 
ATOM     38  C   UNL     1      -7.414  -7.384  -7.779  0.00  0.00    +0.120 A 
ATOM     39  N   UNL     1      -8.636  -7.961  -8.109  0.00  0.00    -0.263 NA
ATOM     40  C   UNL     1      -8.945  -8.383  -9.411  0.00  0.00    +0.111 A 
ENDBRANCH   4   3
ENDBRANCH  10   9
BRANCH  12  13
ATOM     13  N   UNL     1      -1.141  -1.734  -3.422  0.00  0.00    -0.281 N 
ATOM     14  C   UNL     1      -1.083  -0.622  -4.246  0.00  0.00    +0.248 C 
ATOM     30  O   UNL     1      -0.864  -0.663  -5.448  0.00  0.00    -0.270 OA
ATOM     31  H   UNL     1      -1.135  -1.550  -2.419  0.00  0.00    +0.155 HD
BRANCH  14  15
ATOM     15  C   UNL     1      -1.283   0.732  -3.646  0.00  0.00    +0.037 A 
ATOM     16  C   UNL     1      -2.462   1.036  -2.832  0.00  0.00    +0.013 A 
ATOM     17  C   UNL     1      -2.639   2.356  -2.279  0.00  0.00    +0.005 A 
ATOM     18  C   UNL     1      -1.631   3.381  -2.538  0.00  0.00    -0.033 A 
ATOM     28  C   UNL     1      -0.468   3.051  -3.345  0.00  0.00    +0.005 A 
ATOM     29  C   UNL     1      -0.292   1.759  -3.889  0.00  0.00    +0.013 A 
BRANCH  18  19
ATOM     19  C   UNL     1      -1.748   4.822  -2.006  0.00  0.00    +0.119 C 
BRANCH  19  20
ATOM     20  N   UNL     1      -2.887   5.646  -2.509  0.00  0.00    -0.302 NA
ATOM     21  C   UNL     1      -2.875   5.774  -4.035  0.00  0.00    +0.066 C 
ATOM     22  C   UNL     1      -4.086   6.620  -4.546  0.00  0.00    -0.064 C 
ATOM     23  N   UNL     1      -4.054   8.000  -3.886  0.00  0.00    +0.379 N 
ATOM     24  C   UNL     1      -5.158   8.818  -4.408  0.00  0.00    -0.096 C 
ATOM     25  H   UNL     1      -3.099   8.493  -4.181  0.00  0.00    -0.082 HD
ATOM     26  C   UNL     1      -4.064   7.882  -2.369  0.00  0.00    -0.064 C 
ATOM     27  C   UNL     1      -2.873   7.015  -1.874  0.00  0.00    +0.066 C 
ENDBRANCH  19  20
ENDBRANCH  18  19
ENDBRANCH  14  15
ENDBRANCH  12  13
TORSDOF 6
ENDMDL
MODEL 2
REMARK VINA RESULT:     -11.2      1.521      2.070
REMARK  Name = C:\Users\Docking\Desktop\test protocol\1iep_ligandH.pdb
REMARK  8 active torsions:
REMARK  status: ('A' for Active; 'I' for Inactive)
REMARK    1  A    between atoms: _5  and  _11
REMARK    2  A    between atoms: _19  and  _21
REMARK    3  A    between atoms: _22  and  _66
REMARK    4  A    between atoms: _27  and  _30
REMARK    5  A    between atoms: _32  and  _33
REMARK    6  A    between atoms: _38  and  _43
REMARK    7  A    between atoms: _43  and  _46
REMARK    8  A    between atoms: _53  and  _55
REMARK                            x       y       z     vdW  Elec       q    Type
REMARK                         _______ _______ _______ _____ _____    ______ ____
ROOT
ATOM     10  C   UNL     1      -2.380  -5.240  -4.723  0.00  0.00    +0.038 A 
ATOM     11  C   UNL     1      -2.358  -3.870  -4.357  0.00  0.00    +0.047 A 
ATOM     12  C   UNL     1      -1.165  -3.261  -3.790  0.00  0.00    +0.035 A 
ATOM     32  C   UNL     1      -0.010  -4.077  -3.612  0.00  0.00    +0.024 A 
ATOM     33  C   UNL     1      -0.015  -5.471  -3.977  0.00  0.00    +0.007 A 
ATOM     34  C   UNL     1      -1.189  -6.078  -4.535  0.00  0.00    -0.029 A 
ATOM     35  C   UNL     1      -1.139  -7.579  -4.903  0.00  0.00    +0.045 C 
ENDROOT
BRANCH  10   9
ATOM      4  C   UNL     1      -5.092  -6.590  -8.445  0.00  0.00    +0.077 A 
ATOM      5  C   UNL     1      -4.101  -6.175  -9.395  0.00  0.00    +0.048 A 
ATOM      6  C   UNL     1      -2.909  -5.612  -8.885  0.00  0.00    +0.116 A 
ATOM      7  N   UNL     1      -2.734  -5.479  -7.524  0.00  0.00    -0.223 NA
ATOM      8  C   UNL     1      -3.711  -5.889  -6.636  0.00  0.00    +0.220 A 
ATOM      9  N   UNL     1      -3.552  -5.772  -5.264  0.00  0.00    -0.283 N 
ATOM     36  H   UNL     1      -4.300  -6.079  -4.642  0.00  0.00    +0.155 HD
ATOM     37  N   UNL     1      -4.858  -6.428  -7.098  0.00  0.00    -0.214 NA
BRANCH   4   3
ATOM      1  C   UNL     1      -7.963  -8.289 -10.489  0.00  0.00    +0.020 A 
ATOM      2  C   UNL     1      -6.681  -7.702 -10.171  0.00  0.00    +0.013 A 
ATOM      3  C   UNL     1      -6.402  -7.206  -8.829  0.00  0.00    +0.019 A 
ATOM     38  C   UNL     1      -7.449  -7.319  -7.825  0.00  0.00    +0.120 A 
ATOM     39  N   UNL     1      -8.674  -7.887  -8.161  0.00  0.00    -0.263 NA
ATOM     40  C   UNL     1      -8.955  -8.367  -9.449  0.00  0.00    +0.111 A 
ENDBRANCH   4   3
ENDBRANCH  10   9
BRANCH  12  13
ATOM     13  N   UNL     1      -1.087  -1.877  -3.392  0.00  0.00    -0.281 N 
ATOM     14  C   UNL     1      -1.149  -0.754  -4.200  0.00  0.00    +0.248 C 
ATOM     30  O   UNL     1      -1.067  -0.774  -5.419  0.00  0.00    -0.270 OA
ATOM     31  H   UNL     1      -0.971  -1.705  -2.393  0.00  0.00    +0.155 HD
BRANCH  14  15
ATOM     15  C   UNL     1      -1.311   0.587  -3.560  0.00  0.00    +0.037 A 
ATOM     16  C   UNL     1      -1.844   0.722  -2.202  0.00  0.00    +0.013 A 
ATOM     17  C   UNL     1      -2.006   2.029  -1.615  0.00  0.00    +0.005 A 
ATOM     18  C   UNL     1      -1.634   3.212  -2.387  0.00  0.00    -0.033 A 
ATOM     28  C   UNL     1      -1.103   3.049  -3.731  0.00  0.00    +0.005 A 
ATOM     29  C   UNL     1      -0.944   1.770  -4.309  0.00  0.00    +0.013 A 
BRANCH  18  19
ATOM     19  C   UNL     1      -1.793   4.646  -1.849  0.00  0.00    +0.119 C 
BRANCH  19  20
ATOM     20  N   UNL     1      -0.744   5.639  -2.228  0.00  0.00    -0.302 NA
ATOM     21  C   UNL     1       0.168   5.990  -1.050  0.00  0.00    +0.066 C 
ATOM     22  C   UNL     1       1.273   7.013  -1.470  0.00  0.00    -0.064 C 
ATOM     23  N   UNL     1       0.611   8.271  -2.036  0.00  0.00    +0.379 N 
ATOM     24  C   UNL     1       1.646   9.258  -2.379  0.00  0.00    -0.096 C 
ATOM     25  H   UNL     1      -0.022   8.710  -1.231  0.00  0.00    -0.082 HD
ATOM     26  C   UNL     1      -0.300   7.930  -3.207  0.00  0.00    -0.064 C 
ATOM     27  C   UNL     1      -1.376   6.891  -2.786  0.00  0.00    +0.066 C 
ENDBRANCH  19  20
ENDBRANCH  18  19
ENDBRANCH  14  15
ENDBRANCH  12  13
TORSDOF 6
ENDMDL
MODEL 3
REMARK VINA RESULT:     -11.0      7.272     13.412
REMARK  Name = C:\Users\Docking\Desktop\test protocol\1iep_ligandH.pdb
REMARK  8 active torsions:
REMARK  status: ('A' for Active; 'I' for Inactive)
REMARK    1  A    between atoms: _5  and  _11
REMARK    2  A    between atoms: _19  and  _21
REMARK    3  A    between atoms: _22  and  _66
REMARK    4  A    between atoms: _27  and  _30
REMARK    5  A    between atoms: _32  and  _33
REMARK    6  A    between atoms: _38  and  _43
REMARK    7  A    between atoms: _43  and  _46
REMARK    8  A    between atoms: _53  and  _55
REMARK                            x       y       z     vdW  Elec       q    Type
REMARK                         _______ _______ _______ _____ _____    ______ ____
ROOT
ATOM     10  C   UNL     1      -3.270  -5.869  -6.442  0.00  0.00    +0.038 A 
ATOM     11  C   UNL     1      -4.613  -6.272  -6.659  0.00  0.00    +0.047 A 
ATOM     12  C   UNL     1      -5.124  -6.495  -8.002  0.00  0.00    +0.035 A 
ATOM     32  C   UNL     1      -4.239  -6.301  -9.102  0.00  0.00    +0.024 A 
ATOM     33  C   UNL     1      -2.871  -5.891  -8.900  0.00  0.00    +0.007 A 
ATOM     34  C   UNL     1      -2.362  -5.667  -7.577  0.00  0.00    -0.029 A 
ATOM     35  C   UNL     1      -0.889  -5.222  -7.420  0.00  0.00    +0.045 C 
ENDROOT
BRANCH  10   9
ATOM      4  C   UNL     1      -1.017  -7.329  -2.463  0.00  0.00    +0.077 A 
ATOM      5  C   UNL     1      -0.710  -8.608  -3.035  0.00  0.00    +0.048 A 
ATOM      6  C   UNL     1      -1.156  -8.853  -4.354  0.00  0.00    +0.116 A 
ATOM      7  N   UNL     1      -1.855  -7.884  -5.039  0.00  0.00    -0.223 NA
ATOM      8  C   UNL     1      -2.137  -6.662  -4.457  0.00  0.00    +0.220 A 
ATOM      9  N   UNL     1      -2.832  -5.669  -5.131  0.00  0.00    -0.283 N 
ATOM     36  H   UNL     1      -3.026  -4.784  -4.664  0.00  0.00    +0.155 HD
ATOM     37  N   UNL     1      -1.723  -6.404  -3.199  0.00  0.00    -0.214 NA
BRANCH   4   3
ATOM      1  C   UNL     1       0.727  -7.216   1.036  0.00  0.00    +0.020 A 
ATOM      2  C   UNL     1       0.370  -7.654  -0.293  0.00  0.00    +0.013 A 
ATOM      3  C   UNL     1      -0.611  -6.919  -1.081  0.00  0.00    +0.019 A 
ATOM     38  C   UNL     1      -1.217  -5.735  -0.491  0.00  0.00    +0.120 A 
ATOM     39  N   UNL     1      -0.854  -5.338   0.792  0.00  0.00    -0.263 NA
ATOM     40  C   UNL     1       0.087  -6.038   1.561  0.00  0.00    +0.111 A 
ENDBRANCH   4   3
ENDBRANCH  10   9
BRANCH  12  13
ATOM     13  N   UNL     1      -6.480  -6.896  -8.284  0.00  0.00    -0.281 N 
ATOM     14  C   UNL     1      -6.951  -7.590  -9.387  0.00  0.00    +0.248 C 
ATOM     30  O   UNL     1      -6.307  -7.786 -10.407  0.00  0.00    -0.270 OA
ATOM     31  H   UNL     1      -7.177  -6.637  -7.586  0.00  0.00    +0.155 HD
BRANCH  14  15
ATOM     15  C   UNL     1      -8.343  -8.132  -9.358  0.00  0.00    +0.037 A 
ATOM     16  C   UNL     1      -9.074  -8.416 -10.596  0.00  0.00    +0.013 A 
ATOM     17  C   UNL     1     -10.422  -8.923 -10.539  0.00  0.00    +0.005 A 
ATOM     18  C   UNL     1     -11.048  -9.151  -9.239  0.00  0.00    -0.033 A 
ATOM     28  C   UNL     1     -10.298  -8.866  -8.027  0.00  0.00    +0.005 A 
ATOM     29  C   UNL     1      -8.977  -8.368  -8.078  0.00  0.00    +0.013 A 
BRANCH  18  19
ATOM     19  C   UNL     1     -12.490  -9.670  -9.084  0.00  0.00    +0.119 C 
BRANCH  19  20
ATOM     20  N   UNL     1     -13.238  -9.994 -10.336  0.00  0.00    -0.302 NA
ATOM     21  C   UNL     1     -13.525  -8.745 -11.173  0.00  0.00    +0.066 C 
ATOM     22  C   UNL     1     -14.288  -9.105 -12.490  0.00  0.00    -0.064 C 
ATOM     23  N   UNL     1     -15.587  -9.832 -12.139  0.00  0.00    +0.379 N 
ATOM     24  C   UNL     1     -16.335 -10.121 -13.372  0.00  0.00    -0.096 C 
ATOM     25  H   UNL     1     -16.206  -9.140 -11.522  0.00  0.00    -0.082 HD
ATOM     26  C   UNL     1     -15.311 -11.074 -11.304  0.00  0.00    -0.064 C 
ATOM     27  C   UNL     1     -14.527 -10.709 -10.013  0.00  0.00    +0.066 C 
ENDBRANCH  19  20
ENDBRANCH  18  19
ENDBRANCH  14  15
ENDBRANCH  12  13
TORSDOF 6
ENDMDL
MODEL 4
REMARK VINA RESULT:     -10.9      4.938     13.234
REMARK  Name = C:\Users\Docking\Desktop\test protocol\1iep_ligandH.pdb
REMARK  8 active torsions:
REMARK  status: ('A' for Active; 'I' for Inactive)
REMARK    1  A    between atoms: _5  and  _11
REMARK    2  A    between atoms: _19  and  _21
REMARK    3  A    between atoms: _22  and  _66
REMARK    4  A    between atoms: _27  and  _30
REMARK    5  A    between atoms: _32  and  _33
REMARK    6  A    between atoms: _38  and  _43
REMARK    7  A    between atoms: _43  and  _46
REMARK    8  A    between atoms: _53  and  _55
REMARK                            x       y       z     vdW  Elec       q    Type
REMARK                         _______ _______ _______ _____ _____    ______ ____
ROOT
ATOM     10  C   UNL     1      -2.896  -5.699  -6.059  0.00  0.00    +0.038 A 
ATOM     11  C   UNL     1      -4.243  -6.078  -6.291  0.00  0.00    +0.047 A 
ATOM     12  C   UNL     1      -4.730  -6.340  -7.636  0.00  0.00    +0.035 A 
ATOM     32  C   UNL     1      -3.817  -6.209  -8.723  0.00  0.00    +0.024 A 
ATOM     33  C   UNL     1      -2.445  -5.823  -8.506  0.00  0.00    +0.007 A 
ATOM     34  C   UNL     1      -1.959  -5.561  -7.181  0.00  0.00    -0.029 A 
ATOM     35  C   UNL     1      -0.480  -5.145  -7.008  0.00  0.00    +0.045 C 
ENDROOT
BRANCH  10   9
ATOM      4  C   UNL     1      -1.551  -2.753  -2.516  0.00  0.00    +0.077 A 
ATOM      5  C   UNL     1      -1.657  -1.597  -3.357  0.00  0.00    +0.048 A 
ATOM      6  C   UNL     1      -2.054  -1.803  -4.698  0.00  0.00    +0.116 A 
ATOM      7  N   UNL     1      -2.323  -3.076  -5.152  0.00  0.00    -0.223 NA
ATOM      8  C   UNL     1      -2.209  -4.171  -4.314  0.00  0.00    +0.220 A 
ATOM      9  N   UNL     1      -2.482  -5.459  -4.747  0.00  0.00    -0.283 N 
ATOM     36  H   UNL     1      -2.379  -6.241  -4.100  0.00  0.00    +0.155 HD
ATOM     37  N   UNL     1      -1.830  -4.000  -3.030  0.00  0.00    -0.214 NA
BRANCH   4   3
ATOM      1  C   UNL     1      -0.197  -3.728   1.022  0.00  0.00    +0.020 A 
ATOM      2  C   UNL     1      -0.570  -3.835  -0.369  0.00  0.00    +0.013 A 
ATOM      3  C   UNL     1      -1.147  -2.697  -1.075  0.00  0.00    +0.019 A 
ATOM     38  C   UNL     1      -1.333  -1.456  -0.339  0.00  0.00    +0.120 A 
ATOM     39  N   UNL     1      -0.965  -1.383   1.001  0.00  0.00    -0.263 NA
ATOM     40  C   UNL     1      -0.411  -2.472   1.691  0.00  0.00    +0.111 A 
ENDBRANCH   4   3
ENDBRANCH  10   9
BRANCH  12  13
ATOM     13  N   UNL     1      -6.088  -6.720  -7.934  0.00  0.00    -0.281 N 
ATOM     14  C   UNL     1      -6.571  -7.328  -9.081  0.00  0.00    +0.248 C 
ATOM     30  O   UNL     1      -5.938  -7.444 -10.120  0.00  0.00    -0.270 OA
ATOM     31  H   UNL     1      -6.778  -6.517  -7.210  0.00  0.00    +0.155 HD
BRANCH  14  15
ATOM     15  C   UNL     1      -7.963  -7.873  -9.079  0.00  0.00    +0.037 A 
ATOM     16  C   UNL     1      -8.652  -8.203 -10.329  0.00  0.00    +0.013 A 
ATOM     17  C   UNL     1     -10.000  -8.711 -10.299  0.00  0.00    +0.005 A 
ATOM     18  C   UNL     1     -10.668  -8.894  -9.013  0.00  0.00    -0.033 A 
ATOM     28  C   UNL     1      -9.960  -8.564  -7.788  0.00  0.00    +0.005 A 
ATOM     29  C   UNL     1      -8.638  -8.064  -7.813  0.00  0.00    +0.013 A 
BRANCH  18  19
ATOM     19  C   UNL     1     -12.114  -9.411  -8.887  0.00  0.00    +0.119 C 
BRANCH  19  20
ATOM     20  N   UNL     1     -12.845  -9.711 -10.154  0.00  0.00    -0.302 NA
ATOM     21  C   UNL     1     -13.192  -8.439 -10.933  0.00  0.00    +0.066 C 
ATOM     22  C   UNL     1     -13.937  -8.772 -12.266  0.00  0.00    -0.064 C 
ATOM     23  N   UNL     1     -15.199  -9.577 -11.954  0.00  0.00    +0.379 N 
ATOM     24  C   UNL     1     -15.932  -9.842 -13.201  0.00  0.00    -0.096 C 
ATOM     25  H   UNL     1     -15.851  -8.946 -11.306  0.00  0.00    -0.082 HD
ATOM     26  C   UNL     1     -14.864 -10.843 -11.178  0.00  0.00    -0.064 C 
ATOM     27  C   UNL     1     -14.098 -10.502  -9.869  0.00  0.00    +0.066 C 
ENDBRANCH  19  20
ENDBRANCH  18  19
ENDBRANCH  14  15
ENDBRANCH  12  13
TORSDOF 6
ENDMDL
MODEL 5
REMARK VINA RESULT:     -10.5      7.085     13.637
REMARK  Name = C:\Users\Docking\Desktop\test protocol\1iep_ligandH.pdb
REMARK  8 active torsions:
REMARK  status: ('A' for Active; 'I' for Inactive)
REMARK    1  A    between atoms: _5  and  _11
REMARK    2  A    between atoms: _19  and  _21
REMARK    3  A    between atoms: _22  and  _66
REMARK    4  A    between atoms: _27  and  _30
REMARK    5  A    between atoms: _32  and  _33
REMARK    6  A    between atoms: _38  and  _43
REMARK    7  A    between atoms: _43  and  _46
REMARK    8  A    between atoms: _53  and  _55
REMARK                            x       y       z     vdW  Elec       q    Type
REMARK                         _______ _______ _______ _____ _____    ______ ____
ROOT
ATOM     10  C   UNL     1      -3.507  -5.918  -6.687  0.00  0.00    +0.038 A 
ATOM     11  C   UNL     1      -4.859  -6.288  -6.905  0.00  0.00    +0.047 A 
ATOM     12  C   UNL     1      -5.353  -6.583  -8.240  0.00  0.00    +0.035 A 
ATOM     32  C   UNL     1      -4.441  -6.494  -9.333  0.00  0.00    +0.024 A 
ATOM     33  C   UNL     1      -3.064  -6.119  -9.130  0.00  0.00    +0.007 A 
ATOM     34  C   UNL     1      -2.572  -5.824  -7.815  0.00  0.00    -0.029 A 
ATOM     35  C   UNL     1      -1.087  -5.420  -7.657  0.00  0.00    +0.045 C 
ENDROOT
BRANCH  10   9
ATOM      4  C   UNL     1      -1.145  -7.077  -2.673  0.00  0.00    +0.077 A 
ATOM      5  C   UNL     1      -0.737  -8.344  -3.208  0.00  0.00    +0.048 A 
ATOM      6  C   UNL     1      -1.162  -8.662  -4.517  0.00  0.00    +0.116 A 
ATOM      7  N   UNL     1      -1.937  -7.772  -5.229  0.00  0.00    -0.223 NA
ATOM      8  C   UNL     1      -2.314  -6.560  -4.683  0.00  0.00    +0.220 A 
ATOM      9  N   UNL     1      -3.086  -5.646  -5.384  0.00  0.00    -0.283 N 
ATOM     36  H   UNL     1      -3.350  -4.765  -4.942  0.00  0.00    +0.155 HD
ATOM     37  N   UNL     1      -1.922  -6.233  -3.434  0.00  0.00    -0.214 NA
BRANCH   4   3
ATOM      1  C   UNL     1       0.202  -6.936   0.997  0.00  0.00    +0.020 A 
ATOM      2  C   UNL     1      -0.137  -7.451  -0.310  0.00  0.00    +0.013 A 
ATOM      3  C   UNL     1      -0.773  -6.596  -1.305  0.00  0.00    +0.019 A 
ATOM     38  C   UNL     1      -1.054  -5.215  -0.943  0.00  0.00    +0.120 A 
ATOM     39  N   UNL     1      -0.717  -4.748   0.324  0.00  0.00    -0.263 NA
ATOM     40  C   UNL     1      -0.106  -5.561   1.290  0.00  0.00    +0.111 A 
ENDBRANCH   4   3
ENDBRANCH  10   9
BRANCH  12  13
ATOM     13  N   UNL     1      -6.717  -6.956  -8.523  0.00  0.00    -0.281 N 
ATOM     14  C   UNL     1      -7.200  -7.649  -9.621  0.00  0.00    +0.248 C 
ATOM     30  O   UNL     1      -6.558  -7.868 -10.638  0.00  0.00    -0.270 OA
ATOM     31  H   UNL     1      -7.410  -6.676  -7.830  0.00  0.00    +0.155 HD
BRANCH  14  15
ATOM     15  C   UNL     1      -8.604  -8.159  -9.592  0.00  0.00    +0.037 A 
ATOM     16  C   UNL     1      -9.308  -8.376  -8.325  0.00  0.00    +0.013 A 
ATOM     17  C   UNL     1     -10.656  -8.886  -8.325  0.00  0.00    +0.005 A 
ATOM     18  C   UNL     1     -11.311  -9.181  -9.597  0.00  0.00    -0.033 A 
ATOM     28  C   UNL     1     -10.592  -8.951 -10.839  0.00  0.00    +0.005 A 
ATOM     29  C   UNL     1      -9.270  -8.453 -10.844  0.00  0.00    +0.013 A 
BRANCH  18  19
ATOM     19  C   UNL     1     -12.740  -9.747  -9.691  0.00  0.00    +0.119 C 
BRANCH  19  20
ATOM     20  N   UNL     1     -13.175 -10.687  -8.615  0.00  0.00    -0.302 NA
ATOM     21  C   UNL     1     -12.161 -11.812  -8.390  0.00  0.00    +0.066 C 
ATOM     22  C   UNL     1     -12.621 -12.773  -7.246  0.00  0.00    -0.064 C 
ATOM     23  N   UNL     1     -13.998 -13.345  -7.587  0.00  0.00    +0.379 N 
ATOM     24  C   UNL     1     -14.408 -14.293  -6.541  0.00  0.00    -0.096 C 
ATOM     25  H   UNL     1     -13.901 -13.914  -8.541  0.00  0.00    -0.082 HD
ATOM     26  C   UNL     1     -15.012 -12.232  -7.815  0.00  0.00    -0.064 C 
ATOM     27  C   UNL     1     -14.531 -11.267  -8.934  0.00  0.00    +0.066 C 
ENDBRANCH  19  20
ENDBRANCH  18  19
ENDBRANCH  14  15
ENDBRANCH  12  13
TORSDOF 6
ENDMDL
