MODEL 1
REMARK VINA RESULT:      -7.8      0.000      0.000
REMARK  Name = C:\Users\Docking\Desktop\test protocol\1iep_ligandH.pdb
REMARK  8 active torsions:
REMARK  status: ('A' for Active; 'I' for Inactive)
REMARK    1  A    between atoms: _5  and  _11
REMARK    2  A    between atoms: _19  and  _21
REMARK    3  A    between atoms: _22  and  _66
REMARK    4  A    between atoms: _27  and  _30
REMARK    5  A    between atoms: _32  and  _33
REMARK    6  A    between atoms: _38  and  _43
REMARK    7  A    between atoms: _43  and  _46
REMARK    8  A    between atoms: _53  and  _55
REMARK                            x       y       z     vdW  Elec       q    Type
REMARK                         _______ _______ _______ _____ _____    ______ ____
ROOT
ATOM     10  C   UNL     1      43.002  72.033  41.154  0.00  0.00    +0.038 A 
ATOM     11  C   UNL     1      43.511  70.928  40.425  0.00  0.00    +0.047 A 
ATOM     12  C   UNL     1      43.557  69.597  41.011  0.00  0.00    +0.035 A 
ATOM     32  C   UNL     1      43.074  69.427  42.341  0.00  0.00    +0.024 A 
ATOM     33  C   UNL     1      42.555  70.539  43.097  0.00  0.00    +0.007 A 
ATOM     34  C   UNL     1      42.509  71.855  42.525  0.00  0.00    -0.029 A 
ATOM     35  C   UNL     1      41.948  73.012  43.384  0.00  0.00    +0.045 C 
ENDROOT
BRANCH  10   9
ATOM      4  C   UNL     1      45.014  76.261  40.101  0.00  0.00    +0.077 A 
ATOM      5  C   UNL     1      46.196  75.953  40.854  0.00  0.00    +0.048 A 
ATOM      6  C   UNL     1      46.243  74.699  41.503  0.00  0.00    +0.116 A 
ATOM      7  N   UNL     1      45.182  73.826  41.400  0.00  0.00    -0.223 NA
ATOM      8  C   UNL     1      44.057  74.155  40.667  0.00  0.00    +0.220 A 
ATOM      9  N   UNL     1      42.982  73.289  40.543  0.00  0.00    -0.283 N 
ATOM     36  H   UNL     1      42.166  73.571  40.000  0.00  0.00    +0.155 HD
ATOM     37  N   UNL     1      43.987  75.347  40.039  0.00  0.00    -0.214 NA
BRANCH   4   3
ATOM      1  C   UNL     1      44.448  78.868  37.240  0.00  0.00    +0.020 A 
ATOM      2  C   UNL     1      44.637  77.603  37.911  0.00  0.00    +0.013 A 
ATOM      3  C   UNL     1      44.816  77.545  39.356  0.00  0.00    +0.019 A 
ATOM     38  C   UNL     1      44.799  78.796  40.100  0.00  0.00    +0.120 A 
ATOM     39  N   UNL     1      44.617  80.000  39.427  0.00  0.00    -0.263 NA
ATOM     40  C   UNL     1      44.445  80.068  38.036  0.00  0.00    +0.111 A 
ENDBRANCH   4   3
ENDBRANCH  10   9
BRANCH  12  13
ATOM     13  N   UNL     1      44.070  68.439  40.322  0.00  0.00    -0.281 N 
ATOM     14  C   UNL     1      44.920  68.406  39.228  0.00  0.00    +0.248 C 
ATOM     30  O   UNL     1      45.199  69.376  38.540  0.00  0.00    -0.270 OA
ATOM     31  H   UNL     1      43.770  67.534  40.684  0.00  0.00    +0.155 HD
BRANCH  14  15
ATOM     15  C   UNL     1      45.537  67.103  38.833  0.00  0.00    +0.037 A 
ATOM     16  C   UNL     1      46.088  66.899  37.490  0.00  0.00    +0.013 A 
ATOM     17  C   UNL     1      46.662  65.628  37.129  0.00  0.00    +0.005 A 
ATOM     18  C   UNL     1      46.690  64.549  38.114  0.00  0.00    -0.033 A 
ATOM     28  C   UNL     1      46.141  64.780  39.441  0.00  0.00    +0.005 A 
ATOM     29  C   UNL     1      45.576  66.025  39.797  0.00  0.00    +0.013 A 
BRANCH  18  19
ATOM     19  C   UNL     1      47.264  63.153  37.810  0.00  0.00    +0.119 C 
BRANCH  19  20
ATOM     20  N   UNL     1      46.436  62.243  36.962  0.00  0.00    -0.302 NA
ATOM     21  C   UNL     1      46.567  62.569  35.472  0.00  0.00    +0.066 C 
ATOM     22  C   UNL     1      45.713  61.593  34.599  0.00  0.00    -0.064 C 
ATOM     23  N   UNL     1      44.251  61.665  35.042  0.00  0.00    +0.379 N 
ATOM     24  C   UNL     1      43.435  60.792  34.185  0.00  0.00    -0.096 C 
ATOM     25  H   UNL     1      43.902  62.712  34.888  0.00  0.00    -0.082 HD
ATOM     26  C   UNL     1      44.111  61.345  36.524  0.00  0.00    -0.064 C 
ATOM     27  C   UNL     1      44.988  62.301  37.380  0.00  0.00    +0.066 C 
ENDBRANCH  19  20
ENDBRANCH  18  19
ENDBRANCH  14  15
ENDBRANCH  12  13
TORSDOF 6
ENDMDL
MODEL 2
REMARK VINA RESULT:      -7.7      2.661      3.240
REMARK  Name = C:\Users\Docking\Desktop\test protocol\1iep_ligandH.pdb
REMARK  8 active torsions:
REMARK  status: ('A' for Active; 'I' for Inactive)
REMARK    1  A    between atoms: _5  and  _11
REMARK    2  A    between atoms: _19  and  _21
REMARK    3  A    between atoms: _22  and  _66
REMARK    4  A    between atoms: _27  and  _30
REMARK    5  A    between atoms: _32  and  _33
REMARK    6  A    between atoms: _38  and  _43
REMARK    7  A    between atoms: _43  and  _46
REMARK    8  A    between atoms: _53  and  _55
REMARK                            x       y       z     vdW  Elec       q    Type
REMARK                         _______ _______ _______ _____ _____    ______ ____
ROOT
ATOM     10  C   UNL     1      43.465  71.446  41.024  0.00  0.00    +0.038 A 
ATOM     11  C   UNL     1      44.075  70.644  40.026  0.00  0.00    +0.047 A 
ATOM     12  C   UNL     1      44.257  69.213  40.218  0.00  0.00    +0.035 A 
ATOM     32  C   UNL     1      43.805  68.632  41.438  0.00  0.00    +0.024 A 
ATOM     33  C   UNL     1      43.184  69.433  42.464  0.00  0.00    +0.007 A 
ATOM     34  C   UNL     1      43.003  70.845  42.281  0.00  0.00    -0.029 A 
ATOM     35  C   UNL     1      42.337  71.655  43.418  0.00  0.00    +0.045 C 
ENDROOT
BRANCH  10   9
ATOM      4  C   UNL     1      45.211  75.907  40.725  0.00  0.00    +0.077 A 
ATOM      5  C   UNL     1      46.529  75.479  41.098  0.00  0.00    +0.048 A 
ATOM      6  C   UNL     1      46.714  74.104  41.366  0.00  0.00    +0.116 A 
ATOM      7  N   UNL     1      45.653  73.231  41.264  0.00  0.00    -0.223 NA
ATOM      8  C   UNL     1      44.394  73.676  40.903  0.00  0.00    +0.220 A 
ATOM      9  N   UNL     1      43.315  72.814  40.787  0.00  0.00    -0.283 N 
ATOM     36  H   UNL     1      42.401  73.183  40.526  0.00  0.00    +0.155 HD
ATOM     37  N   UNL     1      44.192  74.985  40.644  0.00  0.00    -0.214 NA
BRANCH   4   3
ATOM      1  C   UNL     1      43.725  79.519  40.930  0.00  0.00    +0.020 A 
ATOM      2  C   UNL     1      44.036  78.153  41.282  0.00  0.00    +0.013 A 
ATOM      3  C   UNL     1      44.858  77.327  40.408  0.00  0.00    +0.019 A 
ATOM     38  C   UNL     1      45.355  77.918  39.174  0.00  0.00    +0.120 A 
ATOM     39  N   UNL     1      45.038  79.236  38.860  0.00  0.00    -0.263 NA
ATOM     40  C   UNL     1      44.246  80.040  39.693  0.00  0.00    +0.111 A 
ENDBRANCH   4   3
ENDBRANCH  10   9
BRANCH  12  13
ATOM     13  N   UNL     1      44.877  68.350  39.243  0.00  0.00    -0.281 N 
ATOM     14  C   UNL     1      44.941  66.966  39.251  0.00  0.00    +0.248 C 
ATOM     30  O   UNL     1      44.659  66.266  40.212  0.00  0.00    -0.270 OA
ATOM     31  H   UNL     1      45.322  68.815  38.452  0.00  0.00    +0.155 HD
BRANCH  14  15
ATOM     15  C   UNL     1      45.399  66.258  38.016  0.00  0.00    +0.037 A 
ATOM     16  C   UNL     1      44.786  64.996  37.593  0.00  0.00    +0.013 A 
ATOM     17  C   UNL     1      45.258  64.326  36.407  0.00  0.00    +0.005 A 
ATOM     18  C   UNL     1      46.348  64.917  35.636  0.00  0.00    -0.033 A 
ATOM     28  C   UNL     1      46.934  66.172  36.076  0.00  0.00    +0.005 A 
ATOM     29  C   UNL     1      46.475  66.832  37.238  0.00  0.00    +0.013 A 
BRANCH  18  19
ATOM     19  C   UNL     1      46.929  64.260  34.370  0.00  0.00    +0.119 C 
BRANCH  19  20
ATOM     20  N   UNL     1      46.877  65.050  33.104  0.00  0.00    -0.302 NA
ATOM     21  C   UNL     1      45.534  65.764  32.928  0.00  0.00    +0.066 C 
ATOM     22  C   UNL     1      45.505  66.604  31.609  0.00  0.00    -0.064 C 
ATOM     23  N   UNL     1      45.791  65.688  30.418  0.00  0.00    +0.379 N 
ATOM     24  C   UNL     1      45.707  66.464  29.172  0.00  0.00    -0.096 C 
ATOM     25  H   UNL     1      44.991  64.912  30.389  0.00  0.00    -0.082 HD
ATOM     26  C   UNL     1      47.123  64.972  30.586  0.00  0.00    -0.064 C 
ATOM     27  C   UNL     1      47.153  64.164  31.914  0.00  0.00    +0.066 C 
ENDBRANCH  19  20
ENDBRANCH  18  19
ENDBRANCH  14  15
ENDBRANCH  12  13
TORSDOF 6
ENDMDL
MODEL 3
REMARK VINA RESULT:      -7.5     18.336     22.401
REMARK  Name = C:\Users\Docking\Desktop\test protocol\1iep_ligandH.pdb
REMARK  8 active torsions:
REMARK  status: ('A' for Active; 'I' for Inactive)
REMARK    1  A    between atoms: _5  and  _11
REMARK    2  A    between atoms: _19  and  _21
REMARK    3  A    between atoms: _22  and  _66
REMARK    4  A    between atoms: _27  and  _30
REMARK    5  A    between atoms: _32  and  _33
REMARK    6  A    between atoms: _38  and  _43
REMARK    7  A    between atoms: _43  and  _46
REMARK    8  A    between atoms: _53  and  _55
REMARK                            x       y       z     vdW  Elec       q    Type
REMARK                         _______ _______ _______ _____ _____    ______ ____
ROOT
ATOM     10  C   UNL     1      30.576  60.489  28.832  0.00  0.00    +0.038 A 
ATOM     11  C   UNL     1      30.801  59.632  29.939  0.00  0.00    +0.047 A 
ATOM     12  C   UNL     1      30.637  60.106  31.304  0.00  0.00    +0.035 A 
ATOM     32  C   UNL     1      30.240  61.460  31.506  0.00  0.00    +0.024 A 
ATOM     33  C   UNL     1      30.009  62.346  30.392  0.00  0.00    +0.007 A 
ATOM     34  C   UNL     1      30.171  61.884  29.043  0.00  0.00    -0.029 A 
ATOM     35  C   UNL     1      29.915  62.880  27.888  0.00  0.00    +0.045 C 
ENDROOT
BRANCH  10   9
ATOM      4  C   UNL     1      29.028  58.037  25.008  0.00  0.00    +0.077 A 
ATOM      5  C   UNL     1      27.781  57.719  25.642  0.00  0.00    +0.048 A 
ATOM      6  C   UNL     1      27.581  58.199  26.956  0.00  0.00    +0.116 A 
ATOM      7  N   UNL     1      28.561  58.942  27.578  0.00  0.00    -0.223 NA
ATOM      8  C   UNL     1      29.752  59.229  26.938  0.00  0.00    +0.220 A 
ATOM      9  N   UNL     1      30.748  59.981  27.543  0.00  0.00    -0.283 N 
ATOM     36  H   UNL     1      31.616  60.165  27.040  0.00  0.00    +0.155 HD
ATOM     37  N   UNL     1      29.968  58.781  25.684  0.00  0.00    -0.214 NA
BRANCH   4   3
ATOM      1  C   UNL     1      31.056  57.078  21.803  0.00  0.00    +0.020 A 
ATOM      2  C   UNL     1      30.763  57.501  23.153  0.00  0.00    +0.013 A 
ATOM      3  C   UNL     1      29.386  57.604  23.620  0.00  0.00    +0.019 A 
ATOM     38  C   UNL     1      28.320  57.268  22.689  0.00  0.00    +0.120 A 
ATOM     39  N   UNL     1      28.632  56.864  21.394  0.00  0.00    -0.263 NA
ATOM     40  C   UNL     1      29.953  56.763  20.933  0.00  0.00    +0.111 A 
ENDBRANCH   4   3
ENDBRANCH  10   9
BRANCH  12  13
ATOM     13  N   UNL     1      30.859  59.283  32.467  0.00  0.00    -0.281 N 
ATOM     14  C   UNL     1      32.061  59.009  33.100  0.00  0.00    +0.248 C 
ATOM     30  O   UNL     1      33.162  59.259  32.631  0.00  0.00    -0.270 OA
ATOM     31  H   UNL     1      30.030  58.851  32.874  0.00  0.00    +0.155 HD
BRANCH  14  15
ATOM     15  C   UNL     1      32.037  58.348  34.440  0.00  0.00    +0.037 A 
ATOM     16  C   UNL     1      32.554  59.027  35.631  0.00  0.00    +0.013 A 
ATOM     17  C   UNL     1      32.535  58.360  36.909  0.00  0.00    +0.005 A 
ATOM     18  C   UNL     1      31.995  57.006  37.002  0.00  0.00    -0.033 A 
ATOM     28  C   UNL     1      31.484  56.358  35.806  0.00  0.00    +0.005 A 
ATOM     29  C   UNL     1      31.503  57.008  34.551  0.00  0.00    +0.013 A 
BRANCH  18  19
ATOM     19  C   UNL     1      31.955  56.211  38.321  0.00  0.00    +0.119 C 
BRANCH  19  20
ATOM     20  N   UNL     1      30.824  56.493  39.255  0.00  0.00    -0.302 NA
ATOM     21  C   UNL     1      31.315  57.008  40.611  0.00  0.00    +0.066 C 
ATOM     22  C   UNL     1      30.119  57.320  41.568  0.00  0.00    -0.064 C 
ATOM     23  N   UNL     1      29.268  56.061  41.743  0.00  0.00    +0.379 N 
ATOM     24  C   UNL     1      28.175  56.334  42.688  0.00  0.00    -0.096 C 
ATOM     25  H   UNL     1      29.916  55.274  42.194  0.00  0.00    -0.082 HD
ATOM     26  C   UNL     1      28.778  55.540  40.399  0.00  0.00    -0.064 C 
ATOM     27  C   UNL     1      29.973  55.262  39.445  0.00  0.00    +0.066 C 
ENDBRANCH  19  20
ENDBRANCH  18  19
ENDBRANCH  14  15
ENDBRANCH  12  13
TORSDOF 6
ENDMDL
MODEL 4
REMARK VINA RESULT:      -7.4     18.794     20.320
REMARK  Name = C:\Users\Docking\Desktop\test protocol\1iep_ligandH.pdb
REMARK  8 active torsions:
REMARK  status: ('A' for Active; 'I' for Inactive)
REMARK    1  A    between atoms: _5  and  _11
REMARK    2  A    between atoms: _19  and  _21
REMARK    3  A    between atoms: _22  and  _66
REMARK    4  A    between atoms: _27  and  _30
REMARK    5  A    between atoms: _32  and  _33
REMARK    6  A    between atoms: _38  and  _43
REMARK    7  A    between atoms: _43  and  _46
REMARK    8  A    between atoms: _53  and  _55
REMARK                            x       y       z     vdW  Elec       q    Type
REMARK                         _______ _______ _______ _____ _____    ______ ____
ROOT
ATOM     10  C   UNL     1      28.478  79.773  40.073  0.00  0.00    +0.038 A 
ATOM     11  C   UNL     1      28.026  78.606  40.740  0.00  0.00    +0.047 A 
ATOM     12  C   UNL     1      27.761  77.376  40.010  0.00  0.00    +0.035 A 
ATOM     32  C   UNL     1      27.969  77.370  38.600  0.00  0.00    +0.024 A 
ATOM     33  C   UNL     1      28.428  78.548  37.905  0.00  0.00    +0.007 A 
ATOM     34  C   UNL     1      28.689  79.764  38.621  0.00  0.00    -0.029 A 
ATOM     35  C   UNL     1      29.173  80.998  37.824  0.00  0.00    +0.045 C 
ENDROOT
BRANCH  10   9
ATOM      4  C   UNL     1      27.028  83.854  42.141  0.00  0.00    +0.077 A 
ATOM      5  C   UNL     1      25.686  83.690  41.661  0.00  0.00    +0.048 A 
ATOM      6  C   UNL     1      25.412  82.545  40.880  0.00  0.00    +0.116 A 
ATOM      7  N   UNL     1      26.413  81.638  40.605  0.00  0.00    -0.223 NA
ATOM      8  C   UNL     1      27.697  81.828  41.082  0.00  0.00    +0.220 A 
ATOM      9  N   UNL     1      28.718  80.926  40.824  0.00  0.00    -0.283 N 
ATOM     36  H   UNL     1      29.653  81.106  41.188  0.00  0.00    +0.155 HD
ATOM     37  N   UNL     1      27.985  82.914  41.829  0.00  0.00    -0.214 NA
BRANCH   4   3
ATOM      1  C   UNL     1      28.483  87.304  43.274  0.00  0.00    +0.020 A 
ATOM      2  C   UNL     1      28.071  86.215  42.419  0.00  0.00    +0.013 A 
ATOM      3  C   UNL     1      27.473  85.011  42.981  0.00  0.00    +0.019 A 
ATOM     38  C   UNL     1      27.303  84.940  44.424  0.00  0.00    +0.120 A 
ATOM     39  N   UNL     1      27.711  86.003  45.224  0.00  0.00    -0.263 NA
ATOM     40  C   UNL     1      28.289  87.166  44.694  0.00  0.00    +0.111 A 
ENDBRANCH   4   3
ENDBRANCH  10   9
BRANCH  12  13
ATOM     13  N   UNL     1      27.292  76.163  40.632  0.00  0.00    -0.281 N 
ATOM     14  C   UNL     1      27.921  75.410  41.610  0.00  0.00    +0.248 C 
ATOM     30  O   UNL     1      29.087  75.550  41.948  0.00  0.00    -0.270 OA
ATOM     31  H   UNL     1      26.387  75.817  40.312  0.00  0.00    +0.155 HD
BRANCH  14  15
ATOM     15  C   UNL     1      27.146  74.336  42.303  0.00  0.00    +0.037 A 
ATOM     16  C   UNL     1      26.150  73.535  41.587  0.00  0.00    +0.013 A 
ATOM     17  C   UNL     1      25.404  72.516  42.284  0.00  0.00    +0.005 A 
ATOM     18  C   UNL     1      25.655  72.292  43.705  0.00  0.00    -0.033 A 
ATOM     28  C   UNL     1      26.653  73.097  44.390  0.00  0.00    +0.005 A 
ATOM     29  C   UNL     1      27.384  74.097  43.711  0.00  0.00    +0.013 A 
BRANCH  18  19
ATOM     19  C   UNL     1      24.891  71.241  44.533  0.00  0.00    +0.119 C 
BRANCH  19  20
ATOM     20  N   UNL     1      24.475  69.990  43.833  0.00  0.00    -0.302 NA
ATOM     21  C   UNL     1      22.980  69.988  43.500  0.00  0.00    +0.066 C 
ATOM     22  C   UNL     1      22.566  68.682  42.748  0.00  0.00    -0.064 C 
ATOM     23  N   UNL     1      22.932  67.467  43.602  0.00  0.00    +0.379 N 
ATOM     24  C   UNL     1      22.492  66.239  42.924  0.00  0.00    -0.096 C 
ATOM     25  H   UNL     1      22.367  67.545  44.560  0.00  0.00    -0.082 HD
ATOM     26  C   UNL     1      24.416  67.462  43.941  0.00  0.00    -0.064 C 
ATOM     27  C   UNL     1      24.823  68.778  44.662  0.00  0.00    +0.066 C 
ENDBRANCH  19  20
ENDBRANCH  18  19
ENDBRANCH  14  15
ENDBRANCH  12  13
TORSDOF 6
ENDMDL
MODEL 5
REMARK VINA RESULT:      -7.4     12.362     19.095
REMARK  Name = C:\Users\Docking\Desktop\test protocol\1iep_ligandH.pdb
REMARK  8 active torsions:
REMARK  status: ('A' for Active; 'I' for Inactive)
REMARK    1  A    between atoms: _5  and  _11
REMARK    2  A    between atoms: _19  and  _21
REMARK    3  A    between atoms: _22  and  _66
REMARK    4  A    between atoms: _27  and  _30
REMARK    5  A    between atoms: _32  and  _33
REMARK    6  A    between atoms: _38  and  _43
REMARK    7  A    between atoms: _43  and  _46
REMARK    8  A    between atoms: _53  and  _55
REMARK                            x       y       z     vdW  Elec       q    Type
REMARK                         _______ _______ _______ _____ _____    ______ ____
ROOT
ATOM     10  C   UNL     1      32.236  58.161  32.294  0.00  0.00    +0.038 A 
ATOM     11  C   UNL     1      32.527  58.766  33.543  0.00  0.00    +0.047 A 
ATOM     12  C   UNL     1      33.899  58.944  33.992  0.00  0.00    +0.035 A 
ATOM     32  C   UNL     1      34.951  58.496  33.142  0.00  0.00    +0.024 A 
ATOM     33  C   UNL     1      34.674  57.878  31.869  0.00  0.00    +0.007 A 
ATOM     34  C   UNL     1      33.323  57.698  31.422  0.00  0.00    -0.029 A 
ATOM     35  C   UNL     1      33.084  57.023  30.051  0.00  0.00    +0.045 C 
ENDROOT
BRANCH  10   9
ATOM      4  C   UNL     1      28.296  59.683  30.014  0.00  0.00    +0.077 A 
ATOM      5  C   UNL     1      28.945  60.882  29.568  0.00  0.00    +0.048 A 
ATOM      6  C   UNL     1      30.291  61.072  29.953  0.00  0.00    +0.116 A 
ATOM      7  N   UNL     1      30.931  60.128  30.726  0.00  0.00    -0.223 NA
ATOM      8  C   UNL     1      30.275  58.983  31.140  0.00  0.00    +0.220 A 
ATOM      9  N   UNL     1      30.901  58.016  31.912  0.00  0.00    -0.283 N 
ATOM     36  H   UNL     1      30.380  57.189  32.204  0.00  0.00    +0.155 HD
ATOM     37  N   UNL     1      28.989  58.779  30.787  0.00  0.00    -0.214 NA
BRANCH   4   3
ATOM      1  C   UNL     1      24.705  59.728  28.464  0.00  0.00    +0.020 A 
ATOM      2  C   UNL     1      26.071  60.105  28.746  0.00  0.00    +0.013 A 
ATOM      3  C   UNL     1      26.877  59.337  29.686  0.00  0.00    +0.019 A 
ATOM     38  C   UNL     1      26.265  58.184  30.330  0.00  0.00    +0.120 A 
ATOM     39  N   UNL     1      24.947  57.846  30.041  0.00  0.00    -0.263 NA
ATOM     40  C   UNL     1      24.162  58.579  29.138  0.00  0.00    +0.111 A 
ENDBRANCH   4   3
ENDBRANCH  10   9
BRANCH  12  13
ATOM     13  N   UNL     1      34.254  59.544  35.254  0.00  0.00    -0.281 N 
ATOM     14  C   UNL     1      34.797  58.925  36.369  0.00  0.00    +0.248 C 
ATOM     30  O   UNL     1      34.861  57.715  36.525  0.00  0.00    -0.270 OA
ATOM     31  H   UNL     1      34.085  60.547  35.336  0.00  0.00    +0.155 HD
BRANCH  14  15
ATOM     15  C   UNL     1      35.332  59.774  37.476  0.00  0.00    +0.037 A 
ATOM     16  C   UNL     1      35.960  61.070  37.206  0.00  0.00    +0.013 A 
ATOM     17  C   UNL     1      36.484  61.860  38.291  0.00  0.00    +0.005 A 
ATOM     18  C   UNL     1      36.381  61.357  39.659  0.00  0.00    -0.033 A 
ATOM     28  C   UNL     1      35.749  60.070  39.899  0.00  0.00    +0.005 A 
ATOM     29  C   UNL     1      35.235  59.292  38.838  0.00  0.00    +0.013 A 
BRANCH  18  19
ATOM     19  C   UNL     1      36.932  62.124  40.876  0.00  0.00    +0.119 C 
BRANCH  19  20
ATOM     20  N   UNL     1      38.415  62.172  41.040  0.00  0.00    -0.302 NA
ATOM     21  C   UNL     1      39.034  63.371  40.317  0.00  0.00    +0.066 C 
ATOM     22  C   UNL     1      40.584  63.419  40.518  0.00  0.00    -0.064 C 
ATOM     23  N   UNL     1      41.200  62.110  40.021  0.00  0.00    +0.379 N 
ATOM     24  C   UNL     1      42.663  62.174  40.155  0.00  0.00    -0.096 C 
ATOM     25  H   UNL     1      40.964  62.016  38.936  0.00  0.00    -0.082 HD
ATOM     26  C   UNL     1      40.588  60.912  40.732  0.00  0.00    -0.064 C 
ATOM     27  C   UNL     1      39.045  60.890  40.551  0.00  0.00    +0.066 C 
ENDBRANCH  19  20
ENDBRANCH  18  19
ENDBRANCH  14  15
ENDBRANCH  12  13
TORSDOF 6
ENDMDL
