MODEL 1
REMARK VINA RESULT:      -8.0      0.000      0.000
REMARK  Name = C:\Users\Docking\Desktop\test protocol\1iep_ligandH.pdb
REMARK  8 active torsions:
REMARK  status: ('A' for Active; 'I' for Inactive)
REMARK    1  A    between atoms: _5  and  _11
REMARK    2  A    between atoms: _19  and  _21
REMARK    3  A    between atoms: _22  and  _66
REMARK    4  A    between atoms: _27  and  _30
REMARK    5  A    between atoms: _32  and  _33
REMARK    6  A    between atoms: _38  and  _43
REMARK    7  A    between atoms: _43  and  _46
REMARK    8  A    between atoms: _53  and  _55
REMARK                            x       y       z     vdW  Elec       q    Type
REMARK                         _______ _______ _______ _____ _____    ______ ____
ROOT
ATOM     10  C   UNL     1     -97.270 -24.217  18.357  0.00  0.00    +0.038 A 
ATOM     11  C   UNL     1     -97.608 -22.841  18.295  0.00  0.00    +0.047 A 
ATOM     12  C   UNL     1     -98.556 -22.342  17.311  0.00  0.00    +0.035 A 
ATOM     32  C   UNL     1     -99.143 -23.274  16.406  0.00  0.00    +0.024 A 
ATOM     33  C   UNL     1     -98.810 -24.676  16.454  0.00  0.00    +0.007 A 
ATOM     34  C   UNL     1     -97.874 -25.173  17.421  0.00  0.00    -0.029 A 
ATOM     35  C   UNL     1     -97.549 -26.685  17.422  0.00  0.00    +0.045 C 
ENDROOT
BRANCH  10   9
ATOM      4  C   UNL     1     -96.190 -25.850  22.739  0.00  0.00    +0.077 A 
ATOM      5  C   UNL     1     -97.564 -25.831  23.149  0.00  0.00    +0.048 A 
ATOM      6  C   UNL     1     -98.517 -25.388  22.205  0.00  0.00    +0.116 A 
ATOM      7  N   UNL     1     -98.114 -24.995  20.947  0.00  0.00    -0.223 NA
ATOM      8  C   UNL     1     -96.780 -25.024  20.584  0.00  0.00    +0.220 A 
ATOM      9  N   UNL     1     -96.354 -24.641  19.322  0.00  0.00    -0.283 N 
ATOM     36  H   UNL     1     -95.360 -24.669  19.095  0.00  0.00    +0.155 HD
ATOM     37  N   UNL     1     -95.851 -25.442  21.468  0.00  0.00    -0.214 NA
BRANCH   4   3
ATOM      1  C   UNL     1     -92.931 -25.887  24.902  0.00  0.00    +0.020 A 
ATOM      2  C   UNL     1     -93.993 -25.407  24.048  0.00  0.00    +0.013 A 
ATOM      3  C   UNL     1     -95.066 -26.296  23.622  0.00  0.00    +0.019 A 
ATOM     38  C   UNL     1     -95.036 -27.676  24.083  0.00  0.00    +0.120 A 
ATOM     39  N   UNL     1     -94.000 -28.111  24.903  0.00  0.00    -0.263 NA
ATOM     40  C   UNL     1     -92.961 -27.265  25.318  0.00  0.00    +0.111 A 
ENDBRANCH   4   3
ENDBRANCH  10   9
BRANCH  12  13
ATOM     13  N   UNL     1     -98.932 -20.955  17.196  0.00  0.00    -0.281 N 
ATOM     14  C   UNL     1     -98.352 -19.978  16.403  0.00  0.00    +0.248 C 
ATOM     30  O   UNL     1     -97.280 -20.101  15.828  0.00  0.00    -0.270 OA
ATOM     31  H   UNL     1     -99.721 -20.656  17.769  0.00  0.00    +0.155 HD
BRANCH  14  15
ATOM     15  C   UNL     1     -99.057 -18.671  16.234  0.00  0.00    +0.037 A 
ATOM     16  C   UNL     1    -100.476 -18.615  15.872  0.00  0.00    +0.013 A 
ATOM     17  C   UNL     1    -101.128 -17.341  15.699  0.00  0.00    +0.005 A 
ATOM     18  C   UNL     1    -100.361 -16.112  15.891  0.00  0.00    -0.033 A 
ATOM     28  C   UNL     1     -98.956 -16.197  16.255  0.00  0.00    +0.005 A 
ATOM     29  C   UNL     1     -98.314 -17.444  16.424  0.00  0.00    +0.013 A 
BRANCH  18  19
ATOM     19  C   UNL     1    -100.969 -14.709  15.707  0.00  0.00    +0.119 C 
BRANCH  19  20
ATOM     20  N   UNL     1    -102.147 -14.358  16.555  0.00  0.00    -0.302 NA
ATOM     21  C   UNL     1    -102.386 -12.846  16.609  0.00  0.00    +0.066 C 
ATOM     22  C   UNL     1    -103.635 -12.498  17.482  0.00  0.00    -0.064 C 
ATOM     23  N   UNL     1    -103.444 -13.066  18.890  0.00  0.00    +0.379 N 
ATOM     24  C   UNL     1    -104.590 -12.691  19.730  0.00  0.00    -0.096 C 
ATOM     25  H   UNL     1    -102.535 -12.591  19.325  0.00  0.00    -0.082 HD
ATOM     26  C   UNL     1    -103.203 -14.569  18.845  0.00  0.00    -0.064 C 
ATOM     27  C   UNL     1    -101.977 -14.906  17.951  0.00  0.00    +0.066 C 
ENDBRANCH  19  20
ENDBRANCH  18  19
ENDBRANCH  14  15
ENDBRANCH  12  13
TORSDOF 6
ENDMDL
MODEL 2
REMARK VINA RESULT:      -7.5     19.303     21.927
REMARK  Name = C:\Users\Docking\Desktop\test protocol\1iep_ligandH.pdb
REMARK  8 active torsions:
REMARK  status: ('A' for Active; 'I' for Inactive)
REMARK    1  A    between atoms: _5  and  _11
REMARK    2  A    between atoms: _19  and  _21
REMARK    3  A    between atoms: _22  and  _66
REMARK    4  A    between atoms: _27  and  _30
REMARK    5  A    between atoms: _32  and  _33
REMARK    6  A    between atoms: _38  and  _43
REMARK    7  A    between atoms: _43  and  _46
REMARK    8  A    between atoms: _53  and  _55
REMARK                            x       y       z     vdW  Elec       q    Type
REMARK                         _______ _______ _______ _____ _____    ______ ____
ROOT
ATOM     10  C   UNL     1     -86.493  -7.684  23.283  0.00  0.00    +0.038 A 
ATOM     11  C   UNL     1     -86.846  -7.123  24.537  0.00  0.00    +0.047 A 
ATOM     12  C   UNL     1     -86.068  -6.043  25.124  0.00  0.00    +0.035 A 
ATOM     32  C   UNL     1     -84.937  -5.557  24.405  0.00  0.00    +0.024 A 
ATOM     33  C   UNL     1     -84.563  -6.116  23.130  0.00  0.00    +0.007 A 
ATOM     34  C   UNL     1     -85.326  -7.183  22.547  0.00  0.00    -0.029 A 
ATOM     35  C   UNL     1     -84.875  -7.749  21.180  0.00  0.00    +0.045 C 
ENDROOT
BRANCH  10   9
ATOM      4  C   UNL     1     -90.094  -9.313  20.560  0.00  0.00    +0.077 A 
ATOM      5  C   UNL     1     -90.465  -7.988  20.154  0.00  0.00    +0.048 A 
ATOM      6  C   UNL     1     -89.708  -6.914  20.674  0.00  0.00    +0.116 A 
ATOM      7  N   UNL     1     -88.660  -7.159  21.535  0.00  0.00    -0.223 NA
ATOM      8  C   UNL     1     -88.330  -8.449  21.907  0.00  0.00    +0.220 A 
ATOM      9  N   UNL     1     -87.275  -8.719  22.766  0.00  0.00    -0.283 N 
ATOM     36  H   UNL     1     -87.068  -9.684  23.022  0.00  0.00    +0.155 HD
ATOM     37  N   UNL     1     -89.038  -9.492  21.426  0.00  0.00    -0.214 NA
BRANCH   4   3
ATOM      1  C   UNL     1     -92.138 -11.858  18.404  0.00  0.00    +0.020 A 
ATOM      2  C   UNL     1     -91.476 -10.638  18.807  0.00  0.00    +0.013 A 
ATOM      3  C   UNL     1     -90.795 -10.551  20.093  0.00  0.00    +0.019 A 
ATOM     38  C   UNL     1     -90.802 -11.724  20.954  0.00  0.00    +0.120 A 
ATOM     39  N   UNL     1     -91.449 -12.884  20.539  0.00  0.00    -0.263 NA
ATOM     40  C   UNL     1     -92.109 -12.980  19.305  0.00  0.00    +0.111 A 
ENDBRANCH   4   3
ENDBRANCH  10   9
BRANCH  12  13
ATOM     13  N   UNL     1     -86.374  -5.440  26.397  0.00  0.00    -0.281 N 
ATOM     14  C   UNL     1     -85.574  -5.384  27.527  0.00  0.00    +0.248 C 
ATOM     30  O   UNL     1     -84.551  -6.035  27.683  0.00  0.00    -0.270 OA
ATOM     31  H   UNL     1     -87.291  -5.001  26.475  0.00  0.00    +0.155 HD
BRANCH  14  15
ATOM     15  C   UNL     1     -85.976  -4.486  28.652  0.00  0.00    +0.037 A 
ATOM     16  C   UNL     1     -85.986  -3.029  28.495  0.00  0.00    +0.013 A 
ATOM     17  C   UNL     1     -86.361  -2.185  29.602  0.00  0.00    +0.005 A 
ATOM     18  C   UNL     1     -86.731  -2.797  30.876  0.00  0.00    -0.033 A 
ATOM     28  C   UNL     1     -86.717  -4.245  31.002  0.00  0.00    +0.005 A 
ATOM     29  C   UNL     1     -86.349  -5.075  29.920  0.00  0.00    +0.013 A 
BRANCH  18  19
ATOM     19  C   UNL     1     -87.125  -1.973  32.116  0.00  0.00    +0.119 C 
BRANCH  19  20
ATOM     20  N   UNL     1     -87.188  -0.489  31.960  0.00  0.00    -0.302 NA
ATOM     21  C   UNL     1     -86.180   0.227  32.862  0.00  0.00    +0.066 C 
ATOM     22  C   UNL     1     -86.244   1.777  32.669  0.00  0.00    -0.064 C 
ATOM     23  N   UNL     1     -87.666   2.265  32.952  0.00  0.00    +0.379 N 
ATOM     24  C   UNL     1     -87.716   3.729  32.828  0.00  0.00    -0.096 C 
ATOM     25  H   UNL     1     -87.908   2.007  34.009  0.00  0.00    -0.082 HD
ATOM     26  C   UNL     1     -88.676   1.556  32.061  0.00  0.00    -0.064 C 
ATOM     27  C   UNL     1     -88.583   0.014  32.239  0.00  0.00    +0.066 C 
ENDBRANCH  19  20
ENDBRANCH  18  19
ENDBRANCH  14  15
ENDBRANCH  12  13
TORSDOF 6
ENDMDL
MODEL 3
REMARK VINA RESULT:      -7.4     10.376     12.472
REMARK  Name = C:\Users\Docking\Desktop\test protocol\1iep_ligandH.pdb
REMARK  8 active torsions:
REMARK  status: ('A' for Active; 'I' for Inactive)
REMARK    1  A    between atoms: _5  and  _11
REMARK    2  A    between atoms: _19  and  _21
REMARK    3  A    between atoms: _22  and  _66
REMARK    4  A    between atoms: _27  and  _30
REMARK    5  A    between atoms: _32  and  _33
REMARK    6  A    between atoms: _38  and  _43
REMARK    7  A    between atoms: _43  and  _46
REMARK    8  A    between atoms: _53  and  _55
REMARK                            x       y       z     vdW  Elec       q    Type
REMARK                         _______ _______ _______ _____ _____    ______ ____
ROOT
ATOM     10  C   UNL     1     -86.937 -22.045  21.764  0.00  0.00    +0.038 A 
ATOM     11  C   UNL     1     -87.531 -20.807  21.412  0.00  0.00    +0.047 A 
ATOM     12  C   UNL     1     -88.255 -20.013  22.393  0.00  0.00    +0.035 A 
ATOM     32  C   UNL     1     -88.351 -20.510  23.725  0.00  0.00    +0.024 A 
ATOM     33  C   UNL     1     -87.754 -21.767  24.101  0.00  0.00    +0.007 A 
ATOM     34  C   UNL     1     -87.041 -22.556  23.137  0.00  0.00    -0.029 A 
ATOM     35  C   UNL     1     -86.426 -23.899  23.594  0.00  0.00    +0.045 C 
ENDROOT
BRANCH  10   9
ATOM      4  C   UNL     1     -82.991 -23.039  19.218  0.00  0.00    +0.077 A 
ATOM      5  C   UNL     1     -82.234 -22.017  19.882  0.00  0.00    +0.048 A 
ATOM      6  C   UNL     1     -82.899 -21.254  20.867  0.00  0.00    +0.116 A 
ATOM      7  N   UNL     1     -84.223 -21.502  21.159  0.00  0.00    -0.223 NA
ATOM      8  C   UNL     1     -84.924 -22.494  20.499  0.00  0.00    +0.220 A 
ATOM      9  N   UNL     1     -86.254 -22.766  20.782  0.00  0.00    -0.283 N 
ATOM     36  H   UNL     1     -86.739 -23.501  20.268  0.00  0.00    +0.155 HD
ATOM     37  N   UNL     1     -84.313 -23.236  19.553  0.00  0.00    -0.214 NA
BRANCH   4   3
ATOM      1  C   UNL     1     -81.901 -24.491  15.753  0.00  0.00    +0.020 A 
ATOM      2  C   UNL     1     -82.459 -23.594  16.739  0.00  0.00    +0.013 A 
ATOM      3  C   UNL     1     -82.428 -23.932  18.156  0.00  0.00    +0.019 A 
ATOM     38  C   UNL     1     -81.820 -25.195  18.546  0.00  0.00    +0.120 A 
ATOM     39  N   UNL     1     -81.291 -26.039  17.575  0.00  0.00    -0.263 NA
ATOM     40  C   UNL     1     -81.317 -25.725  16.208  0.00  0.00    +0.111 A 
ENDBRANCH   4   3
ENDBRANCH  10   9
BRANCH  12  13
ATOM     13  N   UNL     1     -88.886 -18.752  22.091  0.00  0.00    -0.281 N 
ATOM     14  C   UNL     1     -88.473 -17.788  21.186  0.00  0.00    +0.248 C 
ATOM     30  O   UNL     1     -87.375 -17.769  20.649  0.00  0.00    -0.270 OA
ATOM     31  H   UNL     1     -89.741 -18.545  22.607  0.00  0.00    +0.155 HD
BRANCH  14  15
ATOM     15  C   UNL     1     -89.410 -16.677  20.837  0.00  0.00    +0.037 A 
ATOM     16  C   UNL     1     -89.776 -15.655  21.821  0.00  0.00    +0.013 A 
ATOM     17  C   UNL     1     -90.695 -14.603  21.463  0.00  0.00    +0.005 A 
ATOM     18  C   UNL     1     -91.253 -14.568  20.114  0.00  0.00    -0.033 A 
ATOM     28  C   UNL     1     -90.869 -15.592  19.156  0.00  0.00    +0.005 A 
ATOM     29  C   UNL     1     -89.969 -16.625  19.503  0.00  0.00    +0.013 A 
BRANCH  18  19
ATOM     19  C   UNL     1     -92.257 -13.496  19.652  0.00  0.00    +0.119 C 
BRANCH  19  20
ATOM     20  N   UNL     1     -91.810 -12.558  18.579  0.00  0.00    -0.302 NA
ATOM     21  C   UNL     1     -91.517 -11.158  19.125  0.00  0.00    +0.066 C 
ATOM     22  C   UNL     1     -91.029 -10.196  17.993  0.00  0.00    -0.064 C 
ATOM     23  N   UNL     1     -92.085 -10.136  16.888  0.00  0.00    +0.379 N 
ATOM     24  C   UNL     1     -91.656  -9.188  15.850  0.00  0.00    -0.096 C 
ATOM     25  H   UNL     1     -93.025  -9.741  17.340  0.00  0.00    -0.082 HD
ATOM     26  C   UNL     1     -92.385 -11.524  16.341  0.00  0.00    -0.064 C 
ATOM     27  C   UNL     1     -92.840 -12.480  17.479  0.00  0.00    +0.066 C 
ENDBRANCH  19  20
ENDBRANCH  18  19
ENDBRANCH  14  15
ENDBRANCH  12  13
TORSDOF 6
ENDMDL
MODEL 4
REMARK VINA RESULT:      -7.4     18.392     21.550
REMARK  Name = C:\Users\Docking\Desktop\test protocol\1iep_ligandH.pdb
REMARK  8 active torsions:
REMARK  status: ('A' for Active; 'I' for Inactive)
REMARK    1  A    between atoms: _5  and  _11
REMARK    2  A    between atoms: _19  and  _21
REMARK    3  A    between atoms: _22  and  _66
REMARK    4  A    between atoms: _27  and  _30
REMARK    5  A    between atoms: _32  and  _33
REMARK    6  A    between atoms: _38  and  _43
REMARK    7  A    between atoms: _43  and  _46
REMARK    8  A    between atoms: _53  and  _55
REMARK                            x       y       z     vdW  Elec       q    Type
REMARK                         _______ _______ _______ _____ _____    ______ ____
ROOT
ATOM     10  C   UNL     1     -85.779  -4.482  26.247  0.00  0.00    +0.038 A 
ATOM     11  C   UNL     1     -86.791  -5.166  25.525  0.00  0.00    +0.047 A 
ATOM     12  C   UNL     1     -86.474  -6.315  24.692  0.00  0.00    +0.035 A 
ATOM     32  C   UNL     1     -85.116  -6.743  24.619  0.00  0.00    +0.024 A 
ATOM     33  C   UNL     1     -84.075  -6.059  25.345  0.00  0.00    +0.007 A 
ATOM     34  C   UNL     1     -84.381  -4.923  26.167  0.00  0.00    -0.029 A 
ATOM     35  C   UNL     1     -83.224  -4.224  26.918  0.00  0.00    +0.045 C 
ENDROOT
BRANCH  10   9
ATOM      4  C   UNL     1     -86.941  -2.487  30.455  0.00  0.00    +0.077 A 
ATOM      5  C   UNL     1     -86.848  -3.742  31.143  0.00  0.00    +0.048 A 
ATOM      6  C   UNL     1     -86.506  -4.879  30.377  0.00  0.00    +0.116 A 
ATOM      7  N   UNL     1     -86.275  -4.757  29.023  0.00  0.00    -0.223 NA
ATOM      8  C   UNL     1     -86.375  -3.531  28.390  0.00  0.00    +0.220 A 
ATOM      9  N   UNL     1     -86.140  -3.384  27.032  0.00  0.00    -0.283 N 
ATOM     36  H   UNL     1     -86.230  -2.465  26.601  0.00  0.00    +0.155 HD
ATOM     37  N   UNL     1     -86.701  -2.431  29.100  0.00  0.00    -0.214 NA
BRANCH   4   3
ATOM      1  C   UNL     1     -88.145   1.177  31.107  0.00  0.00    +0.020 A 
ATOM      2  C   UNL     1     -87.824  -0.046  30.409  0.00  0.00    +0.013 A 
ATOM      3  C   UNL     1     -87.289  -1.196  31.128  0.00  0.00    +0.019 A 
ATOM     38  C   UNL     1     -87.090  -1.073  32.564  0.00  0.00    +0.120 A 
ATOM     39  N   UNL     1     -87.406   0.119  33.209  0.00  0.00    -0.263 NA
ATOM     40  C   UNL     1     -87.920   1.232  32.527  0.00  0.00    +0.111 A 
ENDBRANCH   4   3
ENDBRANCH  10   9
BRANCH  12  13
ATOM     13  N   UNL     1     -87.458  -7.044  23.930  0.00  0.00    -0.281 N 
ATOM     14  C   UNL     1     -87.950  -6.747  22.670  0.00  0.00    +0.248 C 
ATOM     30  O   UNL     1     -87.775  -5.684  22.093  0.00  0.00    -0.270 OA
ATOM     31  H   UNL     1     -87.836  -7.881  24.373  0.00  0.00    +0.155 HD
BRANCH  14  15
ATOM     15  C   UNL     1     -88.768  -7.773  21.954  0.00  0.00    +0.037 A 
ATOM     16  C   UNL     1     -89.558  -7.424  20.771  0.00  0.00    +0.013 A 
ATOM     17  C   UNL     1     -90.351  -8.429  20.109  0.00  0.00    +0.005 A 
ATOM     18  C   UNL     1     -90.356  -9.794  20.628  0.00  0.00    -0.033 A 
ATOM     28  C   UNL     1     -89.558 -10.114  21.800  0.00  0.00    +0.005 A 
ATOM     29  C   UNL     1     -88.781  -9.131  22.453  0.00  0.00    +0.013 A 
BRANCH  18  19
ATOM     19  C   UNL     1     -91.189 -10.926  19.998  0.00  0.00    +0.119 C 
BRANCH  19  20
ATOM     20  N   UNL     1     -90.667 -12.318  20.136  0.00  0.00    -0.302 NA
ATOM     21  C   UNL     1     -90.015 -12.818  18.843  0.00  0.00    +0.066 C 
ATOM     22  C   UNL     1     -89.453 -14.267  19.012  0.00  0.00    -0.064 C 
ATOM     23  N   UNL     1     -90.584 -15.202  19.445  0.00  0.00    +0.379 N 
ATOM     24  C   UNL     1     -90.072 -16.576  19.548  0.00  0.00    -0.096 C 
ATOM     25  H   UNL     1     -91.359 -15.189  18.643  0.00  0.00    -0.082 HD
ATOM     26  C   UNL     1     -91.240 -14.711  20.728  0.00  0.00    -0.064 C 
ATOM     27  C   UNL     1     -91.768 -13.259  20.558  0.00  0.00    +0.066 C 
ENDBRANCH  19  20
ENDBRANCH  18  19
ENDBRANCH  14  15
ENDBRANCH  12  13
TORSDOF 6
ENDMDL
MODEL 5
REMARK VINA RESULT:      -7.0      1.694      2.463
REMARK  Name = C:\Users\Docking\Desktop\test protocol\1iep_ligandH.pdb
REMARK  8 active torsions:
REMARK  status: ('A' for Active; 'I' for Inactive)
REMARK    1  A    between atoms: _5  and  _11
REMARK    2  A    between atoms: _19  and  _21
REMARK    3  A    between atoms: _22  and  _66
REMARK    4  A    between atoms: _27  and  _30
REMARK    5  A    between atoms: _32  and  _33
REMARK    6  A    between atoms: _38  and  _43
REMARK    7  A    between atoms: _43  and  _46
REMARK    8  A    between atoms: _53  and  _55
REMARK                            x       y       z     vdW  Elec       q    Type
REMARK                         _______ _______ _______ _____ _____    ______ ____
ROOT
ATOM     10  C   UNL     1     -97.241 -24.302  18.341  0.00  0.00    +0.038 A 
ATOM     11  C   UNL     1     -97.523 -22.913  18.308  0.00  0.00    +0.047 A 
ATOM     12  C   UNL     1     -98.496 -22.364  17.375  0.00  0.00    +0.035 A 
ATOM     32  C   UNL     1     -99.166 -23.261  16.493  0.00  0.00    +0.024 A 
ATOM     33  C   UNL     1     -98.891 -24.676  16.513  0.00  0.00    +0.007 A 
ATOM     34  C   UNL     1     -97.931 -25.223  17.429  0.00  0.00    -0.029 A 
ATOM     35  C   UNL     1     -97.672 -26.747  17.402  0.00  0.00    +0.045 C 
ENDROOT
BRANCH  10   9
ATOM      4  C   UNL     1     -96.021 -26.040  22.646  0.00  0.00    +0.077 A 
ATOM      5  C   UNL     1     -97.373 -25.976  23.120  0.00  0.00    +0.048 A 
ATOM      6  C   UNL     1     -98.352 -25.484  22.228  0.00  0.00    +0.116 A 
ATOM      7  N   UNL     1     -97.993 -25.088  20.958  0.00  0.00    -0.223 NA
ATOM      8  C   UNL     1     -96.680 -25.160  20.532  0.00  0.00    +0.220 A 
ATOM      9  N   UNL     1     -96.298 -24.774  19.257  0.00  0.00    -0.283 N 
ATOM     36  H   UNL     1     -95.317 -24.836  18.983  0.00  0.00    +0.155 HD
ATOM     37  N   UNL     1     -95.726 -25.625  21.366  0.00  0.00    -0.214 NA
BRANCH   4   3
ATOM      1  C   UNL     1     -93.256 -26.353  25.395  0.00  0.00    +0.020 A 
ATOM      2  C   UNL     1     -94.365 -25.826  24.633  0.00  0.00    +0.013 A 
ATOM      3  C   UNL     1     -94.875 -26.540  23.469  0.00  0.00    +0.019 A 
ATOM     38  C   UNL     1     -94.236 -27.795  23.100  0.00  0.00    +0.120 A 
ATOM     39  N   UNL     1     -93.169 -28.277  23.852  0.00  0.00    -0.263 NA
ATOM     40  C   UNL     1     -92.668 -27.598  24.973  0.00  0.00    +0.111 A 
ENDBRANCH   4   3
ENDBRANCH  10   9
BRANCH  12  13
ATOM     13  N   UNL     1     -98.817 -20.961  17.290  0.00  0.00    -0.281 N 
ATOM     14  C   UNL     1     -98.408 -20.051  16.329  0.00  0.00    +0.248 C 
ATOM     30  O   UNL     1     -97.524 -20.260  15.511  0.00  0.00    -0.270 OA
ATOM     31  H   UNL     1     -99.419 -20.595  18.027  0.00  0.00    +0.155 HD
BRANCH  14  15
ATOM     15  C   UNL     1     -99.065 -18.709  16.279  0.00  0.00    +0.037 A 
ATOM     16  C   UNL     1    -100.510 -18.578  16.079  0.00  0.00    +0.013 A 
ATOM     17  C   UNL     1    -101.116 -17.272  16.018  0.00  0.00    +0.005 A 
ATOM     18  C   UNL     1    -100.276 -16.085  16.158  0.00  0.00    -0.033 A 
ATOM     28  C   UNL     1     -98.846 -16.244  16.361  0.00  0.00    +0.005 A 
ATOM     29  C   UNL     1     -98.248 -17.523  16.421  0.00  0.00    +0.013 A 
BRANCH  18  19
ATOM     19  C   UNL     1    -100.834 -14.652  16.085  0.00  0.00    +0.119 C 
BRANCH  19  20
ATOM     20  N   UNL     1    -100.753 -13.953  14.767  0.00  0.00    -0.302 NA
ATOM     21  C   UNL     1    -100.643 -12.435  14.927  0.00  0.00    +0.066 C 
ATOM     22  C   UNL     1    -100.537 -11.722  13.540  0.00  0.00    -0.064 C 
ATOM     23  N   UNL     1    -101.752 -12.089  12.686  0.00  0.00    +0.379 N 
ATOM     24  C   UNL     1    -101.684 -11.375  11.403  0.00  0.00    -0.096 C 
ATOM     25  H   UNL     1    -102.662 -11.735  13.224  0.00  0.00    -0.082 HD
ATOM     26  C   UNL     1    -101.870 -13.598  12.524  0.00  0.00    -0.064 C 
ATOM     27  C   UNL     1    -101.946 -14.299  13.909  0.00  0.00    +0.066 C 
ENDBRANCH  19  20
ENDBRANCH  18  19
ENDBRANCH  14  15
ENDBRANCH  12  13
TORSDOF 6
ENDMDL
