MODEL 1
REMARK VINA RESULT:      -8.9      0.000      0.000
REMARK  Name = C:\Users\Docking\Desktop\test protocol\1iep_ligandH.pdb
REMARK  8 active torsions:
REMARK  status: ('A' for Active; 'I' for Inactive)
REMARK    1  A    between atoms: _5  and  _11
REMARK    2  A    between atoms: _19  and  _21
REMARK    3  A    between atoms: _22  and  _66
REMARK    4  A    between atoms: _27  and  _30
REMARK    5  A    between atoms: _32  and  _33
REMARK    6  A    between atoms: _38  and  _43
REMARK    7  A    between atoms: _43  and  _46
REMARK    8  A    between atoms: _53  and  _55
REMARK                            x       y       z     vdW  Elec       q    Type
REMARK                         _______ _______ _______ _____ _____    ______ ____
ROOT
ATOM     10  C   UNL     1     -19.499   3.077  25.117  0.00  0.00    +0.038 A 
ATOM     11  C   UNL     1     -18.676   2.609  26.174  0.00  0.00    +0.047 A 
ATOM     12  C   UNL     1     -19.167   1.632  27.133  0.00  0.00    +0.035 A 
ATOM     32  C   UNL     1     -20.500   1.151  26.986  0.00  0.00    +0.024 A 
ATOM     33  C   UNL     1     -21.351   1.617  25.919  0.00  0.00    +0.007 A 
ATOM     34  C   UNL     1     -20.873   2.582  24.970  0.00  0.00    -0.029 A 
ATOM     35  C   UNL     1     -21.831   3.051  23.850  0.00  0.00    +0.045 C 
ENDROOT
BRANCH  10   9
ATOM      4  C   UNL     1     -19.014   7.571  23.502  0.00  0.00    +0.077 A 
ATOM      5  C   UNL     1     -19.898   8.090  24.506  0.00  0.00    +0.048 A 
ATOM      6  C   UNL     1     -20.462   7.166  25.414  0.00  0.00    +0.116 A 
ATOM      7  N   UNL     1     -20.157   5.826  25.317  0.00  0.00    -0.223 NA
ATOM      8  C   UNL     1     -19.303   5.358  24.336  0.00  0.00    +0.220 A 
ATOM      9  N   UNL     1     -18.976   4.015  24.224  0.00  0.00    -0.283 N 
ATOM     36  H   UNL     1     -18.347   3.709  23.482  0.00  0.00    +0.155 HD
ATOM     37  N   UNL     1     -18.752   6.220  23.456  0.00  0.00    -0.214 NA
BRANCH   4   3
ATOM      1  C   UNL     1     -18.364  10.110  20.598  0.00  0.00    +0.020 A 
ATOM      2  C   UNL     1     -19.066   9.309  21.575  0.00  0.00    +0.013 A 
ATOM      3  C   UNL     1     -18.337   8.421  22.473  0.00  0.00    +0.019 A 
ATOM     38  C   UNL     1     -16.888   8.368  22.356  0.00  0.00    +0.120 A 
ATOM     39  N   UNL     1     -16.239   9.149  21.405  0.00  0.00    -0.263 NA
ATOM     40  C   UNL     1     -16.930  10.006  20.535  0.00  0.00    +0.111 A 
ENDBRANCH   4   3
ENDBRANCH  10   9
BRANCH  12  13
ATOM     13  N   UNL     1     -18.380   1.126  28.231  0.00  0.00    -0.281 N 
ATOM     14  C   UNL     1     -17.907  -0.163  28.416  0.00  0.00    +0.248 C 
ATOM     30  O   UNL     1     -18.271  -1.133  27.768  0.00  0.00    -0.270 OA
ATOM     31  H   UNL     1     -18.143   1.800  28.959  0.00  0.00    +0.155 HD
BRANCH  14  15
ATOM     15  C   UNL     1     -16.893  -0.412  29.486  0.00  0.00    +0.037 A 
ATOM     16  C   UNL     1     -17.097   0.072  30.854  0.00  0.00    +0.013 A 
ATOM     17  C   UNL     1     -16.095  -0.168  31.862  0.00  0.00    +0.005 A 
ATOM     18  C   UNL     1     -14.881  -0.898  31.506  0.00  0.00    -0.033 A 
ATOM     28  C   UNL     1     -14.707  -1.372  30.143  0.00  0.00    +0.005 A 
ATOM     29  C   UNL     1     -15.686  -1.137  29.152  0.00  0.00    +0.013 A 
BRANCH  18  19
ATOM     19  C   UNL     1     -13.750  -1.181  32.513  0.00  0.00    +0.119 C 
BRANCH  19  20
ATOM     20  N   UNL     1     -14.006  -0.839  33.944  0.00  0.00    -0.302 NA
ATOM     21  C   UNL     1     -12.757  -0.287  34.635  0.00  0.00    +0.066 C 
ATOM     22  C   UNL     1     -13.049   0.087  36.125  0.00  0.00    -0.064 C 
ATOM     23  N   UNL     1     -13.576  -1.145  36.863  0.00  0.00    +0.379 N 
ATOM     24  C   UNL     1     -13.797  -0.812  38.278  0.00  0.00    -0.096 C 
ATOM     25  H   UNL     1     -12.786  -1.930  36.819  0.00  0.00    -0.082 HD
ATOM     26  C   UNL     1     -14.817  -1.702  36.180  0.00  0.00    -0.064 C 
ATOM     27  C   UNL     1     -14.524  -2.043  34.692  0.00  0.00    +0.066 C 
ENDBRANCH  19  20
ENDBRANCH  18  19
ENDBRANCH  14  15
ENDBRANCH  12  13
TORSDOF 6
ENDMDL
MODEL 2
REMARK VINA RESULT:      -8.7      4.259     13.524
REMARK  Name = C:\Users\Docking\Desktop\test protocol\1iep_ligandH.pdb
REMARK  8 active torsions:
REMARK  status: ('A' for Active; 'I' for Inactive)
REMARK    1  A    between atoms: _5  and  _11
REMARK    2  A    between atoms: _19  and  _21
REMARK    3  A    between atoms: _22  and  _66
REMARK    4  A    between atoms: _27  and  _30
REMARK    5  A    between atoms: _32  and  _33
REMARK    6  A    between atoms: _38  and  _43
REMARK    7  A    between atoms: _43  and  _46
REMARK    8  A    between atoms: _53  and  _55
REMARK                            x       y       z     vdW  Elec       q    Type
REMARK                         _______ _______ _______ _____ _____    ______ ____
ROOT
ATOM     10  C   UNL     1     -20.718   5.116  24.089  0.00  0.00    +0.038 A 
ATOM     11  C   UNL     1     -19.951   6.141  23.478  0.00  0.00    +0.047 A 
ATOM     12  C   UNL     1     -20.514   6.981  22.433  0.00  0.00    +0.035 A 
ATOM     32  C   UNL     1     -21.864   6.751  22.035  0.00  0.00    +0.024 A 
ATOM     33  C   UNL     1     -22.657   5.713  22.645  0.00  0.00    +0.007 A 
ATOM     34  C   UNL     1     -22.106   4.880  23.675  0.00  0.00    -0.029 A 
ATOM     35  C   UNL     1     -23.001   3.778  24.288  0.00  0.00    +0.045 C 
ENDROOT
BRANCH  10   9
ATOM      4  C   UNL     1     -18.136   1.340  25.543  0.00  0.00    +0.077 A 
ATOM      5  C   UNL     1     -17.974   0.859  24.201  0.00  0.00    +0.048 A 
ATOM      6  C   UNL     1     -18.577   1.609  23.166  0.00  0.00    +0.116 A 
ATOM      7  N   UNL     1     -19.286   2.753  23.462  0.00  0.00    -0.223 NA
ATOM      8  C   UNL     1     -19.425   3.188  24.767  0.00  0.00    +0.220 A 
ATOM      9  N   UNL     1     -20.127   4.339  25.088  0.00  0.00    -0.283 N 
ATOM     36  H   UNL     1     -20.213   4.622  26.064  0.00  0.00    +0.155 HD
ATOM     37  N   UNL     1     -18.860   2.488  25.774  0.00  0.00    -0.214 NA
BRANCH   4   3
ATOM      1  C   UNL     1     -15.887  -0.868  27.860  0.00  0.00    +0.020 A 
ATOM      2  C   UNL     1     -16.409  -0.236  26.669  0.00  0.00    +0.013 A 
ATOM      3  C   UNL     1     -17.556   0.659  26.743  0.00  0.00    +0.019 A 
ATOM     38  C   UNL     1     -18.157   0.897  28.047  0.00  0.00    +0.120 A 
ATOM     39  N   UNL     1     -17.634   0.274  29.176  0.00  0.00    -0.263 NA
ATOM     40  C   UNL     1     -16.531  -0.591  29.117  0.00  0.00    +0.111 A 
ENDBRANCH   4   3
ENDBRANCH  10   9
BRANCH  12  13
ATOM     13  N   UNL     1     -19.781   8.031  21.771  0.00  0.00    -0.281 N 
ATOM     14  C   UNL     1     -19.577   9.331  22.204  0.00  0.00    +0.248 C 
ATOM     30  O   UNL     1     -20.178   9.853  23.131  0.00  0.00    -0.270 OA
ATOM     31  H   UNL     1     -19.361   7.787  20.874  0.00  0.00    +0.155 HD
BRANCH  14  15
ATOM     15  C   UNL     1     -18.571  10.179  21.495  0.00  0.00    +0.037 A 
ATOM     16  C   UNL     1     -17.287   9.626  21.054  0.00  0.00    +0.013 A 
ATOM     17  C   UNL     1     -16.327  10.470  20.388  0.00  0.00    +0.005 A 
ATOM     18  C   UNL     1     -16.648  11.877  20.158  0.00  0.00    -0.033 A 
ATOM     28  C   UNL     1     -17.930  12.398  20.601  0.00  0.00    +0.005 A 
ATOM     29  C   UNL     1     -18.874  11.574  21.255  0.00  0.00    +0.013 A 
BRANCH  18  19
ATOM     19  C   UNL     1     -15.675  12.856  19.474  0.00  0.00    +0.119 C 
BRANCH  19  20
ATOM     20  N   UNL     1     -15.406  14.150  20.169  0.00  0.00    -0.302 NA
ATOM     21  C   UNL     1     -14.427  15.030  19.386  0.00  0.00    +0.066 C 
ATOM     22  C   UNL     1     -14.175  16.389  20.116  0.00  0.00    -0.064 C 
ATOM     23  N   UNL     1     -13.649  16.117  21.527  0.00  0.00    +0.379 N 
ATOM     24  C   UNL     1     -13.356  17.393  22.195  0.00  0.00    -0.096 C 
ATOM     25  H   UNL     1     -12.690  15.558  21.428  0.00  0.00    -0.082 HD
ATOM     26  C   UNL     1     -14.615  15.241  22.311  0.00  0.00    -0.064 C 
ATOM     27  C   UNL     1     -14.882  13.905  21.563  0.00  0.00    +0.066 C 
ENDBRANCH  19  20
ENDBRANCH  18  19
ENDBRANCH  14  15
ENDBRANCH  12  13
TORSDOF 6
ENDMDL
MODEL 3
REMARK VINA RESULT:      -8.6      7.826     13.735
REMARK  Name = C:\Users\Docking\Desktop\test protocol\1iep_ligandH.pdb
REMARK  8 active torsions:
REMARK  status: ('A' for Active; 'I' for Inactive)
REMARK    1  A    between atoms: _5  and  _11
REMARK    2  A    between atoms: _19  and  _21
REMARK    3  A    between atoms: _22  and  _66
REMARK    4  A    between atoms: _27  and  _30
REMARK    5  A    between atoms: _32  and  _33
REMARK    6  A    between atoms: _38  and  _43
REMARK    7  A    between atoms: _43  and  _46
REMARK    8  A    between atoms: _53  and  _55
REMARK                            x       y       z     vdW  Elec       q    Type
REMARK                         _______ _______ _______ _____ _____    ______ ____
ROOT
ATOM     10  C   UNL     1     -15.836  14.753  19.123  0.00  0.00    +0.038 A 
ATOM     11  C   UNL     1     -16.455  14.017  20.165  0.00  0.00    +0.047 A 
ATOM     12  C   UNL     1     -16.835  12.625  19.980  0.00  0.00    +0.035 A 
ATOM     32  C   UNL     1     -16.566  12.013  18.722  0.00  0.00    +0.024 A 
ATOM     33  C   UNL     1     -15.938  12.747  17.651  0.00  0.00    +0.007 A 
ATOM     34  C   UNL     1     -15.563  14.121  17.827  0.00  0.00    -0.029 A 
ATOM     35  C   UNL     1     -14.899  14.861  16.643  0.00  0.00    +0.045 C 
ENDROOT
BRANCH  10   9
ATOM      4  C   UNL     1     -12.765  18.141  20.584  0.00  0.00    +0.077 A 
ATOM      5  C   UNL     1     -11.771  17.170  20.939  0.00  0.00    +0.048 A 
ATOM      6  C   UNL     1     -12.092  15.809  20.737  0.00  0.00    +0.116 A 
ATOM      7  N   UNL     1     -13.318  15.457  20.218  0.00  0.00    -0.223 NA
ATOM      8  C   UNL     1     -14.256  16.418  19.887  0.00  0.00    +0.220 A 
ATOM      9  N   UNL     1     -15.492  16.087  19.356  0.00  0.00    -0.283 N 
ATOM     36  H   UNL     1     -16.159  16.826  19.132  0.00  0.00    +0.155 HD
ATOM     37  N   UNL     1     -13.974  17.725  20.072  0.00  0.00    -0.214 NA
BRANCH   4   3
ATOM      1  C   UNL     1     -11.131  21.670  21.005  0.00  0.00    +0.020 A 
ATOM      2  C   UNL     1     -11.261  20.238  20.862  0.00  0.00    +0.013 A 
ATOM      3  C   UNL     1     -12.574  19.618  20.735  0.00  0.00    +0.019 A 
ATOM     38  C   UNL     1     -13.744  20.482  20.757  0.00  0.00    +0.120 A 
ATOM     39  N   UNL     1     -13.589  21.858  20.898  0.00  0.00    -0.263 NA
ATOM     40  C   UNL     1     -12.330  22.465  21.022  0.00  0.00    +0.111 A 
ENDBRANCH   4   3
ENDBRANCH  10   9
BRANCH  12  13
ATOM     13  N   UNL     1     -17.474  11.830  20.999  0.00  0.00    -0.281 N 
ATOM     14  C   UNL     1     -18.822  11.770  21.312  0.00  0.00    +0.248 C 
ATOM     30  O   UNL     1     -19.662  12.557  20.902  0.00  0.00    -0.270 OA
ATOM     31  H   UNL     1     -16.858  11.239  21.557  0.00  0.00    +0.155 HD
BRANCH  14  15
ATOM     15  C   UNL     1     -19.305  10.688  22.224  0.00  0.00    +0.037 A 
ATOM     16  C   UNL     1     -19.899  11.001  23.526  0.00  0.00    +0.013 A 
ATOM     17  C   UNL     1     -20.341   9.938  24.393  0.00  0.00    +0.005 A 
ATOM     18  C   UNL     1     -20.190   8.551  23.960  0.00  0.00    -0.033 A 
ATOM     28  C   UNL     1     -19.602   8.269  22.661  0.00  0.00    +0.005 A 
ATOM     29  C   UNL     1     -19.167   9.309  21.808  0.00  0.00    +0.013 A 
BRANCH  18  19
ATOM     19  C   UNL     1     -20.614   7.352  24.829  0.00  0.00    +0.119 C 
BRANCH  19  20
ATOM     20  N   UNL     1     -20.522   5.994  24.214  0.00  0.00    -0.302 NA
ATOM     21  C   UNL     1     -21.902   5.372  23.984  0.00  0.00    +0.066 C 
ATOM     22  C   UNL     1     -21.788   3.962  23.319  0.00  0.00    -0.064 C 
ATOM     23  N   UNL     1     -20.924   3.055  24.199  0.00  0.00    +0.379 N 
ATOM     24  C   UNL     1     -20.862   1.712  23.606  0.00  0.00    -0.096 C 
ATOM     25  H   UNL     1     -21.429   2.966  25.189  0.00  0.00    -0.082 HD
ATOM     26  C   UNL     1     -19.551   3.668  24.434  0.00  0.00    -0.064 C 
ATOM     27  C   UNL     1     -19.677   5.081  25.068  0.00  0.00    +0.066 C 
ENDBRANCH  19  20
ENDBRANCH  18  19
ENDBRANCH  14  15
ENDBRANCH  12  13
TORSDOF 6
ENDMDL
MODEL 4
REMARK VINA RESULT:      -8.5      4.852     14.414
REMARK  Name = C:\Users\Docking\Desktop\test protocol\1iep_ligandH.pdb
REMARK  8 active torsions:
REMARK  status: ('A' for Active; 'I' for Inactive)
REMARK    1  A    between atoms: _5  and  _11
REMARK    2  A    between atoms: _19  and  _21
REMARK    3  A    between atoms: _22  and  _66
REMARK    4  A    between atoms: _27  and  _30
REMARK    5  A    between atoms: _32  and  _33
REMARK    6  A    between atoms: _38  and  _43
REMARK    7  A    between atoms: _43  and  _46
REMARK    8  A    between atoms: _53  and  _55
REMARK                            x       y       z     vdW  Elec       q    Type
REMARK                         _______ _______ _______ _____ _____    ______ ____
ROOT
ATOM     10  C   UNL     1     -20.314   6.769  23.729  0.00  0.00    +0.038 A 
ATOM     11  C   UNL     1     -19.374   7.727  23.270  0.00  0.00    +0.047 A 
ATOM     12  C   UNL     1     -19.709   8.659  22.205  0.00  0.00    +0.035 A 
ATOM     32  C   UNL     1     -21.011   8.589  21.630  0.00  0.00    +0.024 A 
ATOM     33  C   UNL     1     -21.979   7.621  22.083  0.00  0.00    +0.007 A 
ATOM     34  C   UNL     1     -21.654   6.697  23.132  0.00  0.00    -0.029 A 
ATOM     35  C   UNL     1     -22.728   5.677  23.574  0.00  0.00    +0.045 C 
ENDROOT
BRANCH  10   9
ATOM      4  C   UNL     1     -18.824   2.492  25.318  0.00  0.00    +0.077 A 
ATOM      5  C   UNL     1     -18.816   1.937  23.995  0.00  0.00    +0.048 A 
ATOM      6  C   UNL     1     -19.209   2.784  22.934  0.00  0.00    +0.116 A 
ATOM      7  N   UNL     1     -19.580   4.086  23.189  0.00  0.00    -0.223 NA
ATOM      8  C   UNL     1     -19.578   4.589  24.477  0.00  0.00    +0.220 A 
ATOM      9  N   UNL     1     -19.940   5.898  24.755  0.00  0.00    -0.283 N 
ATOM     36  H   UNL     1     -19.933   6.230  25.719  0.00  0.00    +0.155 HD
ATOM     37  N   UNL     1     -19.208   3.801  25.507  0.00  0.00    -0.214 NA
BRANCH   4   3
ATOM      1  C   UNL     1     -17.140  -0.092  27.724  0.00  0.00    +0.020 A 
ATOM      2  C   UNL     1     -17.486   0.616  26.513  0.00  0.00    +0.013 A 
ATOM      3  C   UNL     1     -18.432   1.725  26.542  0.00  0.00    +0.019 A 
ATOM     38  C   UNL     1     -19.014   2.095  27.823  0.00  0.00    +0.120 A 
ATOM     39  N   UNL     1     -18.664   1.394  28.973  0.00  0.00    -0.263 NA
ATOM     40  C   UNL     1     -17.756   0.325  28.957  0.00  0.00    +0.111 A 
ENDBRANCH   4   3
ENDBRANCH  10   9
BRANCH  12  13
ATOM     13  N   UNL     1     -18.793   9.648  21.692  0.00  0.00    -0.281 N 
ATOM     14  C   UNL     1     -19.065  10.960  21.340  0.00  0.00    +0.248 C 
ATOM     30  O   UNL     1     -20.190  11.421  21.210  0.00  0.00    -0.270 OA
ATOM     31  H   UNL     1     -17.826   9.344  21.575  0.00  0.00    +0.155 HD
BRANCH  14  15
ATOM     15  C   UNL     1     -17.924  11.889  21.080  0.00  0.00    +0.037 A 
ATOM     16  C   UNL     1     -17.952  13.277  21.551  0.00  0.00    +0.013 A 
ATOM     17  C   UNL     1     -16.846  14.157  21.272  0.00  0.00    +0.005 A 
ATOM     18  C   UNL     1     -15.701  13.652  20.518  0.00  0.00    -0.033 A 
ATOM     28  C   UNL     1     -15.697  12.270  20.068  0.00  0.00    +0.005 A 
ATOM     29  C   UNL     1     -16.780  11.404  20.338  0.00  0.00    +0.013 A 
BRANCH  18  19
ATOM     19  C   UNL     1     -14.486  14.527  20.157  0.00  0.00    +0.119 C 
BRANCH  19  20
ATOM     20  N   UNL     1     -14.554  15.975  20.516  0.00  0.00    -0.302 NA
ATOM     21  C   UNL     1     -14.084  16.874  19.370  0.00  0.00    +0.066 C 
ATOM     22  C   UNL     1     -14.184  18.386  19.755  0.00  0.00    -0.064 C 
ATOM     23  N   UNL     1     -13.359  18.643  21.018  0.00  0.00    +0.379 N 
ATOM     24  C   UNL     1     -13.404  20.074  21.350  0.00  0.00    -0.096 C 
ATOM     25  H   UNL     1     -12.300  18.381  20.789  0.00  0.00    -0.082 HD
ATOM     26  C   UNL     1     -13.819  17.750  22.162  0.00  0.00    -0.064 C 
ATOM     27  C   UNL     1     -13.744  16.251  21.759  0.00  0.00    +0.066 C 
ENDBRANCH  19  20
ENDBRANCH  18  19
ENDBRANCH  14  15
ENDBRANCH  12  13
TORSDOF 6
ENDMDL
MODEL 5
REMARK VINA RESULT:      -8.4      4.313     13.173
REMARK  Name = C:\Users\Docking\Desktop\test protocol\1iep_ligandH.pdb
REMARK  8 active torsions:
REMARK  status: ('A' for Active; 'I' for Inactive)
REMARK    1  A    between atoms: _5  and  _11
REMARK    2  A    between atoms: _19  and  _21
REMARK    3  A    between atoms: _22  and  _66
REMARK    4  A    between atoms: _27  and  _30
REMARK    5  A    between atoms: _32  and  _33
REMARK    6  A    between atoms: _38  and  _43
REMARK    7  A    between atoms: _43  and  _46
REMARK    8  A    between atoms: _53  and  _55
REMARK                            x       y       z     vdW  Elec       q    Type
REMARK                         _______ _______ _______ _____ _____    ______ ____
ROOT
ATOM     10  C   UNL     1     -20.101   3.210  24.169  0.00  0.00    +0.038 A 
ATOM     11  C   UNL     1     -19.537   4.378  23.596  0.00  0.00    +0.047 A 
ATOM     12  C   UNL     1     -20.362   5.531  23.270  0.00  0.00    +0.035 A 
ATOM     32  C   UNL     1     -21.759   5.460  23.545  0.00  0.00    +0.024 A 
ATOM     33  C   UNL     1     -22.349   4.280  24.126  0.00  0.00    +0.007 A 
ATOM     34  C   UNL     1     -21.540   3.140  24.447  0.00  0.00    -0.029 A 
ATOM     35  C   UNL     1     -22.228   1.899  25.063  0.00  0.00    +0.045 C 
ENDROOT
BRANCH  10   9
ATOM      4  C   UNL     1     -17.615   0.497  27.250  0.00  0.00    +0.077 A 
ATOM      5  C   UNL     1     -17.999   1.310  28.368  0.00  0.00    +0.048 A 
ATOM      6  C   UNL     1     -18.831   2.421  28.107  0.00  0.00    +0.116 A 
ATOM      7  N   UNL     1     -19.243   2.689  26.819  0.00  0.00    -0.223 NA
ATOM      8  C   UNL     1     -18.853   1.886  25.764  0.00  0.00    +0.220 A 
ATOM      9  N   UNL     1     -19.261   2.133  24.462  0.00  0.00    -0.283 N 
ATOM     36  H   UNL     1     -18.946   1.521  23.710  0.00  0.00    +0.155 HD
ATOM     37  N   UNL     1     -18.057   0.820  25.987  0.00  0.00    -0.214 NA
BRANCH   4   3
ATOM      1  C   UNL     1     -15.209  -2.251  28.652  0.00  0.00    +0.020 A 
ATOM      2  C   UNL     1     -16.040  -1.070  28.593  0.00  0.00    +0.013 A 
ATOM      3  C   UNL     1     -16.741  -0.714  27.366  0.00  0.00    +0.019 A 
ATOM     38  C   UNL     1     -16.580  -1.580  26.208  0.00  0.00    +0.120 A 
ATOM     39  N   UNL     1     -15.772  -2.709  26.294  0.00  0.00    -0.263 NA
ATOM     40  C   UNL     1     -15.090  -3.061  27.469  0.00  0.00    +0.111 A 
ENDBRANCH   4   3
ENDBRANCH  10   9
BRANCH  12  13
ATOM     13  N   UNL     1     -19.847   6.741  22.680  0.00  0.00    -0.281 N 
ATOM     14  C   UNL     1     -18.900   7.607  23.201  0.00  0.00    +0.248 C 
ATOM     30  O   UNL     1     -18.506   7.585  24.358  0.00  0.00    -0.270 OA
ATOM     31  H   UNL     1     -20.226   6.989  21.766  0.00  0.00    +0.155 HD
BRANCH  14  15
ATOM     15  C   UNL     1     -18.316   8.659  22.314  0.00  0.00    +0.037 A 
ATOM     16  C   UNL     1     -16.895   8.649  21.957  0.00  0.00    +0.013 A 
ATOM     17  C   UNL     1     -16.354   9.685  21.113  0.00  0.00    +0.005 A 
ATOM     18  C   UNL     1     -17.237  10.739  20.618  0.00  0.00    -0.033 A 
ATOM     28  C   UNL     1     -18.643  10.721  20.983  0.00  0.00    +0.005 A 
ATOM     29  C   UNL     1     -19.177   9.708  21.811  0.00  0.00    +0.013 A 
BRANCH  18  19
ATOM     19  C   UNL     1     -16.742  11.895  19.730  0.00  0.00    +0.119 C 
BRANCH  19  20
ATOM     20  N   UNL     1     -15.831  12.899  20.358  0.00  0.00    -0.302 NA
ATOM     21  C   UNL     1     -16.533  13.702  21.457  0.00  0.00    +0.066 C 
ATOM     22  C   UNL     1     -15.560  14.732  22.118  0.00  0.00    -0.064 C 
ATOM     23  N   UNL     1     -14.997  15.662  21.042  0.00  0.00    +0.379 N 
ATOM     24  C   UNL     1     -14.127  16.668  21.669  0.00  0.00    -0.096 C 
ATOM     25  H   UNL     1     -15.857  16.200  20.578  0.00  0.00    -0.082 HD
ATOM     26  C   UNL     1     -14.301  14.871  19.944  0.00  0.00    -0.064 C 
ATOM     27  C   UNL     1     -15.268  13.831  19.314  0.00  0.00    +0.066 C 
ENDBRANCH  19  20
ENDBRANCH  18  19
ENDBRANCH  14  15
ENDBRANCH  12  13
TORSDOF 6
ENDMDL
