MODEL 1
REMARK VINA RESULT:     -11.5      0.000      0.000
REMARK  Name = C:\Users\Docking\Desktop\test protocol\1iep_ligandH.pdb
REMARK  8 active torsions:
REMARK  status: ('A' for Active; 'I' for Inactive)
REMARK    1  A    between atoms: _5  and  _11
REMARK    2  A    between atoms: _19  and  _21
REMARK    3  A    between atoms: _22  and  _66
REMARK    4  A    between atoms: _27  and  _30
REMARK    5  A    between atoms: _32  and  _33
REMARK    6  A    between atoms: _38  and  _43
REMARK    7  A    between atoms: _43  and  _46
REMARK    8  A    between atoms: _53  and  _55
REMARK                            x       y       z     vdW  Elec       q    Type
REMARK                         _______ _______ _______ _____ _____    ______ ____
ROOT
ATOM     10  C   UNL     1      16.602  -7.242  10.760  0.00  0.00    +0.038 A 
ATOM     11  C   UNL     1      15.782  -6.262  11.377  0.00  0.00    +0.047 A 
ATOM     12  C   UNL     1      15.974  -5.889  12.770  0.00  0.00    +0.035 A 
ATOM     32  C   UNL     1      17.013  -6.531  13.505  0.00  0.00    +0.024 A 
ATOM     33  C   UNL     1      17.855  -7.530  12.894  0.00  0.00    +0.007 A 
ATOM     34  C   UNL     1      17.669  -7.904  11.521  0.00  0.00    -0.029 A 
ATOM     35  C   UNL     1      18.597  -8.985  10.920  0.00  0.00    +0.045 C 
ENDROOT
BRANCH  10   9
ATOM      4  C   UNL     1      17.603  -6.840   6.083  0.00  0.00    +0.077 A 
ATOM      5  C   UNL     1      18.651  -5.892   6.329  0.00  0.00    +0.048 A 
ATOM      6  C   UNL     1      18.897  -5.529   7.672  0.00  0.00    +0.116 A 
ATOM      7  N   UNL     1      18.144  -6.079   8.686  0.00  0.00    -0.223 NA
ATOM      8  C   UNL     1      17.139  -6.990   8.415  0.00  0.00    +0.220 A 
ATOM      9  N   UNL     1      16.374  -7.562   9.420  0.00  0.00    -0.283 N 
ATOM     36  H   UNL     1      15.637  -8.224   9.178  0.00  0.00    +0.155 HD
ATOM     37  N   UNL     1      16.884  -7.352   7.140  0.00  0.00    -0.214 NA
BRANCH   4   3
ATOM      1  C   UNL     1      15.740  -8.605   3.131  0.00  0.00    +0.020 A 
ATOM      2  C   UNL     1      16.060  -8.163   4.469  0.00  0.00    +0.013 A 
ATOM      3  C   UNL     1      17.226  -7.326   4.718  0.00  0.00    +0.019 A 
ATOM     38  C   UNL     1      18.055  -6.949   3.583  0.00  0.00    +0.120 A 
ATOM     39  N   UNL     1      17.723  -7.391   2.306  0.00  0.00    -0.263 NA
ATOM     40  C   UNL     1      16.604  -8.199   2.054  0.00  0.00    +0.111 A 
ENDBRANCH   4   3
ENDBRANCH  10   9
BRANCH  12  13
ATOM     13  N   UNL     1      15.167  -4.907  13.451  0.00  0.00    -0.281 N 
ATOM     14  C   UNL     1      14.169  -4.108  12.920  0.00  0.00    +0.248 C 
ATOM     30  O   UNL     1      13.962  -3.963  11.724  0.00  0.00    -0.270 OA
ATOM     31  H   UNL     1      15.355  -4.787  14.447  0.00  0.00    +0.155 HD
BRANCH  14  15
ATOM     15  C   UNL     1      13.280  -3.348  13.850  0.00  0.00    +0.037 A 
ATOM     16  C   UNL     1      11.881  -3.075  13.512  0.00  0.00    +0.013 A 
ATOM     17  C   UNL     1      11.050  -2.325  14.420  0.00  0.00    +0.005 A 
ATOM     18  C   UNL     1      11.616  -1.844  15.678  0.00  0.00    -0.033 A 
ATOM     28  C   UNL     1      13.006  -2.133  15.991  0.00  0.00    +0.005 A 
ATOM     29  C   UNL     1      13.824  -2.867  15.103  0.00  0.00    +0.013 A 
BRANCH  18  19
ATOM     19  C   UNL     1      10.809  -1.018  16.697  0.00  0.00    +0.119 C 
BRANCH  19  20
ATOM     20  N   UNL     1      11.544   0.036  17.458  0.00  0.00    -0.302 NA
ATOM     21  C   UNL     1      10.702   0.612  18.601  0.00  0.00    +0.066 C 
ATOM     22  C   UNL     1      11.495   1.696  19.401  0.00  0.00    -0.064 C 
ATOM     23  N   UNL     1      11.943   2.804  18.446  0.00  0.00    +0.379 N 
ATOM     24  C   UNL     1      12.638   3.854  19.205  0.00  0.00    -0.096 C 
ATOM     25  H   UNL     1      11.027   3.258  18.002  0.00  0.00    -0.082 HD
ATOM     26  C   UNL     1      12.778   2.240  17.306  0.00  0.00    -0.064 C 
ATOM     27  C   UNL     1      11.993   1.142  16.536  0.00  0.00    +0.066 C 
ENDBRANCH  19  20
ENDBRANCH  18  19
ENDBRANCH  14  15
ENDBRANCH  12  13
TORSDOF 6
ENDMDL
MODEL 2
REMARK VINA RESULT:     -11.2      1.330      2.068
REMARK  Name = C:\Users\Docking\Desktop\test protocol\1iep_ligandH.pdb
REMARK  8 active torsions:
REMARK  status: ('A' for Active; 'I' for Inactive)
REMARK    1  A    between atoms: _5  and  _11
REMARK    2  A    between atoms: _19  and  _21
REMARK    3  A    between atoms: _22  and  _66
REMARK    4  A    between atoms: _27  and  _30
REMARK    5  A    between atoms: _32  and  _33
REMARK    6  A    between atoms: _38  and  _43
REMARK    7  A    between atoms: _43  and  _46
REMARK    8  A    between atoms: _53  and  _55
REMARK                            x       y       z     vdW  Elec       q    Type
REMARK                         _______ _______ _______ _____ _____    ______ ____
ROOT
ATOM     10  C   UNL     1      17.460  -6.128  10.153  0.00  0.00    +0.038 A 
ATOM     11  C   UNL     1      16.667  -5.067  10.661  0.00  0.00    +0.047 A 
ATOM     12  C   UNL     1      16.235  -5.049  12.050  0.00  0.00    +0.035 A 
ATOM     32  C   UNL     1      16.632  -6.126  12.895  0.00  0.00    +0.024 A 
ATOM     33  C   UNL     1      17.437  -7.213  12.395  0.00  0.00    +0.007 A 
ATOM     34  C   UNL     1      17.864  -7.237  11.025  0.00  0.00    -0.029 A 
ATOM     35  C   UNL     1      18.720  -8.431  10.541  0.00  0.00    +0.045 C 
ENDROOT
BRANCH  10   9
ATOM      4  C   UNL     1      16.912  -7.404   5.558  0.00  0.00    +0.077 A 
ATOM      5  C   UNL     1      15.777  -8.228   5.861  0.00  0.00    +0.048 A 
ATOM      6  C   UNL     1      15.371  -8.302   7.212  0.00  0.00    +0.116 A 
ATOM      7  N   UNL     1      16.056  -7.600   8.180  0.00  0.00    -0.223 NA
ATOM      8  C   UNL     1      17.147  -6.816   7.855  0.00  0.00    +0.220 A 
ATOM      9  N   UNL     1      17.846  -6.095   8.811  0.00  0.00    -0.283 N 
ATOM     36  H   UNL     1      18.650  -5.534   8.531  0.00  0.00    +0.155 HD
ATOM     37  N   UNL     1      17.556  -6.730   6.572  0.00  0.00    -0.214 NA
BRANCH   4   3
ATOM      1  C   UNL     1      18.931  -6.056   2.491  0.00  0.00    +0.020 A 
ATOM      2  C   UNL     1      18.433  -6.190   3.841  0.00  0.00    +0.013 A 
ATOM      3  C   UNL     1      17.460  -7.222   4.177  0.00  0.00    +0.019 A 
ATOM     38  C   UNL     1      17.009  -8.110   3.117  0.00  0.00    +0.120 A 
ATOM     39  N   UNL     1      17.505  -7.957   1.826  0.00  0.00    -0.263 NA
ATOM     40  C   UNL     1      18.440  -6.966   1.490  0.00  0.00    +0.111 A 
ENDBRANCH   4   3
ENDBRANCH  10   9
BRANCH  12  13
ATOM     13  N   UNL     1      15.423  -4.003  12.620  0.00  0.00    -0.281 N 
ATOM     14  C   UNL     1      14.250  -4.135  13.345  0.00  0.00    +0.248 C 
ATOM     30  O   UNL     1      13.603  -5.169  13.431  0.00  0.00    -0.270 OA
ATOM     31  H   UNL     1      15.753  -3.049  12.471  0.00  0.00    +0.155 HD
BRANCH  14  15
ATOM     15  C   UNL     1      13.708  -2.944  14.066  0.00  0.00    +0.037 A 
ATOM     16  C   UNL     1      12.276  -2.635  14.056  0.00  0.00    +0.013 A 
ATOM     17  C   UNL     1      11.783  -1.469  14.746  0.00  0.00    +0.005 A 
ATOM     18  C   UNL     1      12.724  -0.605  15.455  0.00  0.00    -0.033 A 
ATOM     28  C   UNL     1      14.138  -0.938  15.453  0.00  0.00    +0.005 A 
ATOM     29  C   UNL     1      14.626  -2.079  14.777  0.00  0.00    +0.013 A 
BRANCH  18  19
ATOM     19  C   UNL     1      12.289   0.671  16.200  0.00  0.00    +0.119 C 
BRANCH  19  20
ATOM     20  N   UNL     1      11.791   0.509  17.599  0.00  0.00    -0.302 NA
ATOM     21  C   UNL     1      10.270   0.663  17.689  0.00  0.00    +0.066 C 
ATOM     22  C   UNL     1       9.764   0.469  19.155  0.00  0.00    -0.064 C 
ATOM     23  N   UNL     1      10.466   1.473  20.072  0.00  0.00    +0.379 N 
ATOM     24  C   UNL     1       9.949   1.332  21.441  0.00  0.00    -0.096 C 
ATOM     25  H   UNL     1      10.203   2.496  19.715  0.00  0.00    -0.082 HD
ATOM     26  C   UNL     1      11.978   1.328  19.986  0.00  0.00    -0.064 C 
ATOM     27  C   UNL     1      12.468   1.494  18.520  0.00  0.00    +0.066 C 
ENDBRANCH  19  20
ENDBRANCH  18  19
ENDBRANCH  14  15
ENDBRANCH  12  13
TORSDOF 6
ENDMDL
MODEL 3
REMARK VINA RESULT:      -9.6      8.161     15.117
REMARK  Name = C:\Users\Docking\Desktop\test protocol\1iep_ligandH.pdb
REMARK  8 active torsions:
REMARK  status: ('A' for Active; 'I' for Inactive)
REMARK    1  A    between atoms: _5  and  _11
REMARK    2  A    between atoms: _19  and  _21
REMARK    3  A    between atoms: _22  and  _66
REMARK    4  A    between atoms: _27  and  _30
REMARK    5  A    between atoms: _32  and  _33
REMARK    6  A    between atoms: _38  and  _43
REMARK    7  A    between atoms: _43  and  _46
REMARK    8  A    between atoms: _53  and  _55
REMARK                            x       y       z     vdW  Elec       q    Type
REMARK                         _______ _______ _______ _____ _____    ______ ____
ROOT
ATOM     10  C   UNL     1      10.360   1.495  17.387  0.00  0.00    +0.038 A 
ATOM     11  C   UNL     1      11.775   1.529  17.288  0.00  0.00    +0.047 A 
ATOM     12  C   UNL     1      12.488   0.628  16.396  0.00  0.00    +0.035 A 
ATOM     32  C   UNL     1      11.729  -0.293  15.617  0.00  0.00    +0.024 A 
ATOM     33  C   UNL     1      10.291  -0.342  15.706  0.00  0.00    +0.007 A 
ATOM     34  C   UNL     1       9.582   0.542  16.586  0.00  0.00    -0.029 A 
ATOM     35  C   UNL     1       8.040   0.441  16.645  0.00  0.00    +0.045 C 
ENDROOT
BRANCH  10   9
ATOM      4  C   UNL     1       8.677   2.696  21.718  0.00  0.00    +0.077 A 
ATOM      5  C   UNL     1       9.070   1.438  22.285  0.00  0.00    +0.048 A 
ATOM      6  C   UNL     1       9.695   0.506  21.426  0.00  0.00    +0.116 A 
ATOM      7  N   UNL     1       9.908   0.821  20.101  0.00  0.00    -0.223 NA
ATOM      8  C   UNL     1       9.515   2.042  19.586  0.00  0.00    +0.220 A 
ATOM      9  N   UNL     1       9.726   2.383  18.259  0.00  0.00    -0.283 N 
ATOM     36  H   UNL     1       9.415   3.291  17.916  0.00  0.00    +0.155 HD
ATOM     37  N   UNL     1       8.915   2.948  20.386  0.00  0.00    -0.214 NA
BRANCH   4   3
ATOM      1  C   UNL     1       7.091   4.765  24.634  0.00  0.00    +0.020 A 
ATOM      2  C   UNL     1       7.739   3.685  23.927  0.00  0.00    +0.013 A 
ATOM      3  C   UNL     1       8.008   3.784  22.498  0.00  0.00    +0.019 A 
ATOM     38  C   UNL     1       7.605   5.001  21.809  0.00  0.00    +0.120 A 
ATOM     39  N   UNL     1       6.981   6.024  22.515  0.00  0.00    -0.263 NA
ATOM     40  C   UNL     1       6.716   5.939  23.890  0.00  0.00    +0.111 A 
ENDBRANCH   4   3
ENDBRANCH  10   9
BRANCH  12  13
ATOM     13  N   UNL     1      13.924   0.612  16.259  0.00  0.00    -0.281 N 
ATOM     14  C   UNL     1      14.827  -0.243  16.869  0.00  0.00    +0.248 C 
ATOM     30  O   UNL     1      14.554  -0.991  17.796  0.00  0.00    -0.270 OA
ATOM     31  H   UNL     1      14.322   1.315  15.638  0.00  0.00    +0.155 HD
BRANCH  14  15
ATOM     15  C   UNL     1      16.243  -0.259  16.390  0.00  0.00    +0.037 A 
ATOM     16  C   UNL     1      17.364  -0.156  17.328  0.00  0.00    +0.013 A 
ATOM     17  C   UNL     1      18.719  -0.156  16.837  0.00  0.00    +0.005 A 
ATOM     18  C   UNL     1      18.961  -0.263  15.400  0.00  0.00    -0.033 A 
ATOM     28  C   UNL     1      17.831  -0.369  14.493  0.00  0.00    +0.005 A 
ATOM     29  C   UNL     1      16.501  -0.368  14.970  0.00  0.00    +0.013 A 
BRANCH  18  19
ATOM     19  C   UNL     1      20.374  -0.250  14.787  0.00  0.00    +0.119 C 
BRANCH  19  20
ATOM     20  N   UNL     1      21.486   0.262  15.641  0.00  0.00    -0.302 NA
ATOM     21  C   UNL     1      22.489   1.097  14.840  0.00  0.00    +0.066 C 
ATOM     22  C   UNL     1      23.634   1.643  15.754  0.00  0.00    -0.064 C 
ATOM     23  N   UNL     1      24.334   0.471  16.445  0.00  0.00    +0.379 N 
ATOM     24  C   UNL     1      25.448   0.977  17.260  0.00  0.00    -0.096 C 
ATOM     25  H   UNL     1      24.765  -0.181  15.650  0.00  0.00    -0.082 HD
ATOM     26  C   UNL     1      23.343  -0.366  17.242  0.00  0.00    -0.064 C 
ATOM     27  C   UNL     1      22.194  -0.879  16.330  0.00  0.00    +0.066 C 
ENDBRANCH  19  20
ENDBRANCH  18  19
ENDBRANCH  14  15
ENDBRANCH  12  13
TORSDOF 6
ENDMDL
MODEL 4
REMARK VINA RESULT:      -9.1      6.524     12.959
REMARK  Name = C:\Users\Docking\Desktop\test protocol\1iep_ligandH.pdb
REMARK  8 active torsions:
REMARK  status: ('A' for Active; 'I' for Inactive)
REMARK    1  A    between atoms: _5  and  _11
REMARK    2  A    between atoms: _19  and  _21
REMARK    3  A    between atoms: _22  and  _66
REMARK    4  A    between atoms: _27  and  _30
REMARK    5  A    between atoms: _32  and  _33
REMARK    6  A    between atoms: _38  and  _43
REMARK    7  A    between atoms: _43  and  _46
REMARK    8  A    between atoms: _53  and  _55
REMARK                            x       y       z     vdW  Elec       q    Type
REMARK                         _______ _______ _______ _____ _____    ______ ____
ROOT
ATOM     10  C   UNL     1      17.797  -7.246  -3.025  0.00  0.00    +0.038 A 
ATOM     11  C   UNL     1      17.406  -7.599  -1.708  0.00  0.00    +0.047 A 
ATOM     12  C   UNL     1      18.189  -7.185  -0.554  0.00  0.00    +0.035 A 
ATOM     32  C   UNL     1      19.364  -6.409  -0.778  0.00  0.00    +0.024 A 
ATOM     33  C   UNL     1      19.776  -6.042  -2.110  0.00  0.00    +0.007 A 
ATOM     34  C   UNL     1      19.009  -6.450  -3.252  0.00  0.00    -0.029 A 
ATOM     35  C   UNL     1      19.502  -6.033  -4.657  0.00  0.00    +0.045 C 
ENDROOT
BRANCH  10   9
ATOM      4  C   UNL     1      14.389  -6.511  -6.324  0.00  0.00    +0.077 A 
ATOM      5  C   UNL     1      14.141  -5.178  -5.856  0.00  0.00    +0.048 A 
ATOM      6  C   UNL     1      14.906  -4.722  -4.759  0.00  0.00    +0.116 A 
ATOM      7  N   UNL     1      15.848  -5.546  -4.182  0.00  0.00    -0.223 NA
ATOM      8  C   UNL     1      16.061  -6.827  -4.657  0.00  0.00    +0.220 A 
ATOM      9  N   UNL     1      17.008  -7.670  -4.096  0.00  0.00    -0.283 N 
ATOM     36  H   UNL     1      17.130  -8.611  -4.471  0.00  0.00    +0.155 HD
ATOM     37  N   UNL     1      15.342  -7.286  -5.702  0.00  0.00    -0.214 NA
BRANCH   4   3
ATOM      1  C   UNL     1      12.041  -8.797  -8.459  0.00  0.00    +0.020 A 
ATOM      2  C   UNL     1      12.716  -8.231  -7.314  0.00  0.00    +0.013 A 
ATOM      3  C   UNL     1      13.663  -7.135  -7.475  0.00  0.00    +0.019 A 
ATOM     38  C   UNL     1      13.907  -6.631  -8.818  0.00  0.00    +0.120 A 
ATOM     39  N   UNL     1      13.243  -7.197  -9.902  0.00  0.00    -0.263 NA
ATOM     40  C   UNL     1      12.331  -8.253  -9.760  0.00  0.00    +0.111 A 
ENDBRANCH   4   3
ENDBRANCH  10   9
BRANCH  12  13
ATOM     13  N   UNL     1      17.846  -7.521   0.806  0.00  0.00    -0.281 N 
ATOM     14  C   UNL     1      18.339  -6.960   1.972  0.00  0.00    +0.248 C 
ATOM     30  O   UNL     1      19.315  -6.225   2.027  0.00  0.00    -0.270 OA
ATOM     31  H   UNL     1      17.155  -8.263   0.923  0.00  0.00    +0.155 HD
BRANCH  14  15
ATOM     15  C   UNL     1      17.660  -7.270   3.266  0.00  0.00    +0.037 A 
ATOM     16  C   UNL     1      16.522  -8.190   3.326  0.00  0.00    +0.013 A 
ATOM     17  C   UNL     1      15.874  -8.459   4.585  0.00  0.00    +0.005 A 
ATOM     18  C   UNL     1      16.365  -7.807   5.797  0.00  0.00    -0.033 A 
ATOM     28  C   UNL     1      17.499  -6.903   5.710  0.00  0.00    +0.005 A 
ATOM     29  C   UNL     1      18.136  -6.636   4.477  0.00  0.00    +0.013 A 
BRANCH  18  19
ATOM     19  C   UNL     1      15.721  -8.019   7.180  0.00  0.00    +0.119 C 
BRANCH  19  20
ATOM     20  N   UNL     1      16.045  -7.023   8.244  0.00  0.00    -0.302 NA
ATOM     21  C   UNL     1      17.087  -7.555   9.232  0.00  0.00    +0.066 C 
ATOM     22  C   UNL     1      17.430  -6.491  10.325  0.00  0.00    -0.064 C 
ATOM     23  N   UNL     1      16.149  -6.084  11.056  0.00  0.00    +0.379 N 
ATOM     24  C   UNL     1      16.476  -5.128  12.124  0.00  0.00    -0.096 C 
ATOM     25  H   UNL     1      15.729  -6.998  11.538  0.00  0.00    -0.082 HD
ATOM     26  C   UNL     1      15.106  -5.556  10.081  0.00  0.00    -0.064 C 
ATOM     27  C   UNL     1      14.794  -6.610   8.981  0.00  0.00    +0.066 C 
ENDBRANCH  19  20
ENDBRANCH  18  19
ENDBRANCH  14  15
ENDBRANCH  12  13
TORSDOF 6
ENDMDL
MODEL 5
REMARK VINA RESULT:      -9.1      6.372     12.950
REMARK  Name = C:\Users\Docking\Desktop\test protocol\1iep_ligandH.pdb
REMARK  8 active torsions:
REMARK  status: ('A' for Active; 'I' for Inactive)
REMARK    1  A    between atoms: _5  and  _11
REMARK    2  A    between atoms: _19  and  _21
REMARK    3  A    between atoms: _22  and  _66
REMARK    4  A    between atoms: _27  and  _30
REMARK    5  A    between atoms: _32  and  _33
REMARK    6  A    between atoms: _38  and  _43
REMARK    7  A    between atoms: _43  and  _46
REMARK    8  A    between atoms: _53  and  _55
REMARK                            x       y       z     vdW  Elec       q    Type
REMARK                         _______ _______ _______ _____ _____    ______ ____
ROOT
ATOM     10  C   UNL     1      17.584  -7.296   5.089  0.00  0.00    +0.038 A 
ATOM     11  C   UNL     1      18.157  -6.153   4.477  0.00  0.00    +0.047 A 
ATOM     12  C   UNL     1      17.975  -5.887   3.059  0.00  0.00    +0.035 A 
ATOM     32  C   UNL     1      17.200  -6.807   2.294  0.00  0.00    +0.024 A 
ATOM     33  C   UNL     1      16.611  -7.975   2.900  0.00  0.00    +0.007 A 
ATOM     34  C   UNL     1      16.789  -8.243   4.298  0.00  0.00    -0.029 A 
ATOM     35  C   UNL     1      16.140  -9.515   4.893  0.00  0.00    +0.045 C 
ENDROOT
BRANCH  10   9
ATOM      4  C   UNL     1      16.477  -6.545   9.699  0.00  0.00    +0.077 A 
ATOM      5  C   UNL     1      15.413  -5.646   9.358  0.00  0.00    +0.048 A 
ATOM      6  C   UNL     1      15.188  -5.398   7.986  0.00  0.00    +0.116 A 
ATOM      7  N   UNL     1      15.974  -6.009   7.034  0.00  0.00    -0.223 NA
ATOM      8  C   UNL     1      16.993  -6.870   7.396  0.00  0.00    +0.220 A 
ATOM      9  N   UNL     1      17.792  -7.502   6.455  0.00  0.00    -0.283 N 
ATOM     36  H   UNL     1      18.538  -8.125   6.764  0.00  0.00    +0.155 HD
ATOM     37  N   UNL     1      17.230  -7.123   8.701  0.00  0.00    -0.214 NA
BRANCH   4   3
ATOM      1  C   UNL     1      18.138  -8.243  12.807  0.00  0.00    +0.020 A 
ATOM      2  C   UNL     1      17.827  -7.929  11.432  0.00  0.00    +0.013 A 
ATOM      3  C   UNL     1      16.837  -6.911  11.106  0.00  0.00    +0.019 A 
ATOM     38  C   UNL     1      16.173  -6.224  12.204  0.00  0.00    +0.120 A 
ATOM     39  N   UNL     1      16.492  -6.549  13.519  0.00  0.00    -0.263 NA
ATOM     40  C   UNL     1      17.442  -7.528  13.844  0.00  0.00    +0.111 A 
ENDBRANCH   4   3
ENDBRANCH  10   9
BRANCH  12  13
ATOM     13  N   UNL     1      18.539  -4.747   2.381  0.00  0.00    -0.281 N 
ATOM     14  C   UNL     1      17.870  -3.665   1.832  0.00  0.00    +0.248 C 
ATOM     30  O   UNL     1      16.662  -3.618   1.652  0.00  0.00    -0.270 OA
ATOM     31  H   UNL     1      19.556  -4.736   2.295  0.00  0.00    +0.155 HD
BRANCH  14  15
ATOM     15  C   UNL     1      18.658  -2.468   1.408  0.00  0.00    +0.037 A 
ATOM     16  C   UNL     1      18.728  -2.062   0.002  0.00  0.00    +0.013 A 
ATOM     17  C   UNL     1      19.509  -0.914  -0.382  0.00  0.00    +0.005 A 
ATOM     18  C   UNL     1      20.227  -0.160   0.644  0.00  0.00    -0.033 A 
ATOM     28  C   UNL     1      20.136  -0.581   2.033  0.00  0.00    +0.005 A 
ATOM     29  C   UNL     1      19.372  -1.707   2.412  0.00  0.00    +0.013 A 
BRANCH  18  19
ATOM     19  C   UNL     1      21.102   1.066   0.323  0.00  0.00    +0.119 C 
BRANCH  19  20
ATOM     20  N   UNL     1      20.414   2.270  -0.231  0.00  0.00    -0.302 NA
ATOM     21  C   UNL     1      21.384   3.435  -0.452  0.00  0.00    +0.066 C 
ATOM     22  C   UNL     1      20.652   4.678  -1.054  0.00  0.00    -0.064 C 
ATOM     23  N   UNL     1      19.510   5.093  -0.124  0.00  0.00    +0.379 N 
ATOM     24  C   UNL     1      18.856   6.298  -0.658  0.00  0.00    -0.096 C 
ATOM     25  H   UNL     1      19.957   5.359   0.862  0.00  0.00    -0.082 HD
ATOM     26  C   UNL     1      18.542   3.941   0.103  0.00  0.00    -0.064 C 
ATOM     27  C   UNL     1      19.285   2.700   0.673  0.00  0.00    +0.066 C 
ENDBRANCH  19  20
ENDBRANCH  18  19
ENDBRANCH  14  15
ENDBRANCH  12  13
TORSDOF 6
ENDMDL
