MODEL 1
REMARK VINA RESULT:     -11.6      0.000      0.000
REMARK  Name = C:\Users\Docking\Desktop\test protocol\1iep_ligandH.pdb
REMARK  8 active torsions:
REMARK  status: ('A' for Active; 'I' for Inactive)
REMARK    1  A    between atoms: _5  and  _11
REMARK    2  A    between atoms: _19  and  _21
REMARK    3  A    between atoms: _22  and  _66
REMARK    4  A    between atoms: _27  and  _30
REMARK    5  A    between atoms: _32  and  _33
REMARK    6  A    between atoms: _38  and  _43
REMARK    7  A    between atoms: _43  and  _46
REMARK    8  A    between atoms: _53  and  _55
REMARK                            x       y       z     vdW  Elec       q    Type
REMARK                         _______ _______ _______ _____ _____    ______ ____
ROOT
ATOM     10  C   UNL     1      -3.523  -5.890  -4.752  0.00  0.00    +0.038 A 
ATOM     11  C   UNL     1      -3.488  -4.507  -4.438  0.00  0.00    +0.047 A 
ATOM     12  C   UNL     1      -2.319  -3.907  -3.814  0.00  0.00    +0.035 A 
ATOM     32  C   UNL     1      -1.202  -4.744  -3.525  0.00  0.00    +0.024 A 
ATOM     33  C   UNL     1      -1.221  -6.152  -3.836  0.00  0.00    +0.007 A 
ATOM     34  C   UNL     1      -2.372  -6.750  -4.450  0.00  0.00    -0.029 A 
ATOM     35  C   UNL     1      -2.340  -8.266  -4.756  0.00  0.00    +0.045 C 
ENDROOT
BRANCH  10   9
ATOM      4  C   UNL     1      -6.201  -6.900  -8.605  0.00  0.00    +0.077 A 
ATOM      5  C   UNL     1      -5.245  -6.310  -9.498  0.00  0.00    +0.048 A 
ATOM      6  C   UNL     1      -4.081  -5.751  -8.924  0.00  0.00    +0.116 A 
ATOM      7  N   UNL     1      -3.897  -5.786  -7.559  0.00  0.00    -0.223 NA
ATOM      8  C   UNL     1      -4.839  -6.361  -6.727  0.00  0.00    +0.220 A 
ATOM      9  N   UNL     1      -4.671  -6.414  -5.351  0.00  0.00    -0.283 N 
ATOM     36  H   UNL     1      -5.393  -6.840  -4.771  0.00  0.00    +0.155 HD
ATOM     37  N   UNL     1      -5.960  -6.900  -7.249  0.00  0.00    -0.214 NA
BRANCH   4   3
ATOM      1  C   UNL     1      -8.957  -8.575 -10.819  0.00  0.00    +0.020 A 
ATOM      2  C   UNL     1      -7.704  -7.968 -10.432  0.00  0.00    +0.013 A 
ATOM      3  C   UNL     1      -7.479  -7.533  -9.059  0.00  0.00    +0.019 A 
ATOM     38  C   UNL     1      -8.550  -7.730  -8.094  0.00  0.00    +0.120 A 
ATOM     39  N   UNL     1      -9.747  -8.317  -8.496  0.00  0.00    -0.263 NA
ATOM     40  C   UNL     1      -9.975  -8.737  -9.815  0.00  0.00    +0.111 A 
ENDBRANCH   4   3
ENDBRANCH  10   9
BRANCH  12  13
ATOM     13  N   UNL     1      -2.229  -2.511  -3.465  0.00  0.00    -0.281 N 
ATOM     14  C   UNL     1      -1.088  -1.733  -3.354  0.00  0.00    +0.248 C 
ATOM     30  O   UNL     1       0.051  -2.175  -3.330  0.00  0.00    -0.270 OA
ATOM     31  H   UNL     1      -3.113  -2.039  -3.277  0.00  0.00    +0.155 HD
BRANCH  14  15
ATOM     15  C   UNL     1      -1.234  -0.250  -3.239  0.00  0.00    +0.037 A 
ATOM     16  C   UNL     1      -1.074   0.432  -1.952  0.00  0.00    +0.013 A 
ATOM     17  C   UNL     1      -1.237   1.862  -1.865  0.00  0.00    +0.005 A 
ATOM     18  C   UNL     1      -1.561   2.620  -3.071  0.00  0.00    -0.033 A 
ATOM     28  C   UNL     1      -1.709   1.919  -4.336  0.00  0.00    +0.005 A 
ATOM     29  C   UNL     1      -1.551   0.518  -4.424  0.00  0.00    +0.013 A 
BRANCH  18  19
ATOM     19  C   UNL     1      -1.774   4.145  -3.068  0.00  0.00    +0.119 C 
BRANCH  19  20
ATOM     20  N   UNL     1      -3.163   4.642  -3.299  0.00  0.00    -0.302 NA
ATOM     21  C   UNL     1      -3.253   5.544  -4.533  0.00  0.00    +0.066 C 
ATOM     22  C   UNL     1      -4.717   6.037  -4.772  0.00  0.00    -0.064 C 
ATOM     23  N   UNL     1      -5.215   6.772  -3.527  0.00  0.00    +0.379 N 
ATOM     24  C   UNL     1      -6.570   7.287  -3.770  0.00  0.00    -0.096 C 
ATOM     25  H   UNL     1      -4.545   7.648  -3.361  0.00  0.00    -0.082 HD
ATOM     26  C   UNL     1      -5.126   5.884  -2.294  0.00  0.00    -0.064 C 
ATOM     27  C   UNL     1      -3.673   5.375  -2.083  0.00  0.00    +0.066 C 
ENDBRANCH  19  20
ENDBRANCH  18  19
ENDBRANCH  14  15
ENDBRANCH  12  13
TORSDOF 6
ENDMDL
MODEL 2
REMARK VINA RESULT:     -11.2      6.095     13.240
REMARK  Name = C:\Users\Docking\Desktop\test protocol\1iep_ligandH.pdb
REMARK  8 active torsions:
REMARK  status: ('A' for Active; 'I' for Inactive)
REMARK    1  A    between atoms: _5  and  _11
REMARK    2  A    between atoms: _19  and  _21
REMARK    3  A    between atoms: _22  and  _66
REMARK    4  A    between atoms: _27  and  _30
REMARK    5  A    between atoms: _32  and  _33
REMARK    6  A    between atoms: _38  and  _43
REMARK    7  A    between atoms: _43  and  _46
REMARK    8  A    between atoms: _53  and  _55
REMARK                            x       y       z     vdW  Elec       q    Type
REMARK                         _______ _______ _______ _____ _____    ______ ____
ROOT
ATOM     10  C   UNL     1      -4.014  -5.765  -6.320  0.00  0.00    +0.038 A 
ATOM     11  C   UNL     1      -5.358  -6.208  -6.407  0.00  0.00    +0.047 A 
ATOM     12  C   UNL     1      -5.857  -6.867  -7.604  0.00  0.00    +0.035 A 
ATOM     32  C   UNL     1      -4.958  -7.062  -8.692  0.00  0.00    +0.024 A 
ATOM     33  C   UNL     1      -3.588  -6.618  -8.621  0.00  0.00    +0.007 A 
ATOM     34  C   UNL     1      -3.091  -5.964  -7.444  0.00  0.00    -0.029 A 
ATOM     35  C   UNL     1      -1.615  -5.503  -7.426  0.00  0.00    +0.045 C 
ENDROOT
BRANCH  10   9
ATOM      4  C   UNL     1      -2.101  -5.868  -1.919  0.00  0.00    +0.077 A 
ATOM      5  C   UNL     1      -1.963  -7.296  -1.948  0.00  0.00    +0.048 A 
ATOM      6  C   UNL     1      -2.402  -7.967  -3.111  0.00  0.00    +0.116 A 
ATOM      7  N   UNL     1      -2.938  -7.253  -4.161  0.00  0.00    -0.223 NA
ATOM      8  C   UNL     1      -3.059  -5.876  -4.100  0.00  0.00    +0.220 A 
ATOM      9  N   UNL     1      -3.588  -5.138  -5.147  0.00  0.00    -0.283 N 
ATOM     36  H   UNL     1      -3.667  -4.125  -5.060  0.00  0.00    +0.155 HD
ATOM     37  N   UNL     1      -2.648  -5.213  -3.000  0.00  0.00    -0.214 NA
BRANCH   4   3
ATOM      1  C   UNL     1       0.066  -4.036   0.773  0.00  0.00    +0.020 A 
ATOM      2  C   UNL     1      -0.288  -4.871  -0.352  0.00  0.00    +0.013 A 
ATOM      3  C   UNL     1      -1.679  -5.017  -0.762  0.00  0.00    +0.019 A 
ATOM     38  C   UNL     1      -2.695  -4.300  -0.007  0.00  0.00    +0.120 A 
ATOM     39  N   UNL     1      -2.324  -3.504   1.073  0.00  0.00    -0.263 NA
ATOM     40  C   UNL     1      -0.989  -3.357   1.478  0.00  0.00    +0.111 A 
ENDBRANCH   4   3
ENDBRANCH  10   9
BRANCH  12  13
ATOM     13  N   UNL     1      -7.214  -7.331  -7.753  0.00  0.00    -0.281 N 
ATOM     14  C   UNL     1      -8.005  -7.298  -8.890  0.00  0.00    +0.248 C 
ATOM     30  O   UNL     1      -7.737  -6.666  -9.901  0.00  0.00    -0.270 OA
ATOM     31  H   UNL     1      -7.644  -7.732  -6.920  0.00  0.00    +0.155 HD
BRANCH  14  15
ATOM     15  C   UNL     1      -9.287  -8.066  -8.900  0.00  0.00    +0.037 A 
ATOM     16  C   UNL     1      -9.843  -8.600 -10.146  0.00  0.00    +0.013 A 
ATOM     17  C   UNL     1     -11.090  -9.323 -10.130  0.00  0.00    +0.005 A 
ATOM     18  C   UNL     1     -11.789  -9.517  -8.862  0.00  0.00    -0.033 A 
ATOM     28  C   UNL     1     -11.213  -8.982  -7.640  0.00  0.00    +0.005 A 
ATOM     29  C   UNL     1      -9.991  -8.272  -7.652  0.00  0.00    +0.013 A 
BRANCH  18  19
ATOM     19  C   UNL     1     -13.136 -10.258  -8.754  0.00  0.00    +0.119 C 
BRANCH  19  20
ATOM     20  N   UNL     1     -13.949 -10.382 -10.000  0.00  0.00    -0.302 NA
ATOM     21  C   UNL     1     -14.262  -9.018 -10.621  0.00  0.00    +0.066 C 
ATOM     22  C   UNL     1     -15.095  -9.167 -11.935  0.00  0.00    -0.064 C 
ATOM     23  N   UNL     1     -16.384  -9.934 -11.635  0.00  0.00    +0.379 N 
ATOM     24  C   UNL     1     -17.196 -10.026 -12.857  0.00  0.00    -0.096 C 
ATOM     25  H   UNL     1     -16.962  -9.342 -10.888  0.00  0.00    -0.082 HD
ATOM     26  C   UNL     1     -16.082 -11.291 -11.015  0.00  0.00    -0.064 C 
ATOM     27  C   UNL     1     -15.230 -11.132  -9.725  0.00  0.00    +0.066 C 
ENDBRANCH  19  20
ENDBRANCH  18  19
ENDBRANCH  14  15
ENDBRANCH  12  13
TORSDOF 6
ENDMDL
MODEL 3
REMARK VINA RESULT:     -11.2      6.554     12.719
REMARK  Name = C:\Users\Docking\Desktop\test protocol\1iep_ligandH.pdb
REMARK  8 active torsions:
REMARK  status: ('A' for Active; 'I' for Inactive)
REMARK    1  A    between atoms: _5  and  _11
REMARK    2  A    between atoms: _19  and  _21
REMARK    3  A    between atoms: _22  and  _66
REMARK    4  A    between atoms: _27  and  _30
REMARK    5  A    between atoms: _32  and  _33
REMARK    6  A    between atoms: _38  and  _43
REMARK    7  A    between atoms: _43  and  _46
REMARK    8  A    between atoms: _53  and  _55
REMARK                            x       y       z     vdW  Elec       q    Type
REMARK                         _______ _______ _______ _____ _____    ______ ____
ROOT
ATOM     10  C   UNL     1     -14.432 -10.513  -8.908  0.00  0.00    +0.038 A 
ATOM     11  C   UNL     1     -13.168  -9.899  -9.100  0.00  0.00    +0.047 A 
ATOM     12  C   UNL     1     -11.953 -10.494  -8.566  0.00  0.00    +0.035 A 
ATOM     32  C   UNL     1     -12.061 -11.718  -7.844  0.00  0.00    +0.024 A 
ATOM     33  C   UNL     1     -13.338 -12.356  -7.639  0.00  0.00    +0.007 A 
ATOM     34  C   UNL     1     -14.540 -11.772  -8.161  0.00  0.00    -0.029 A 
ATOM     35  C   UNL     1     -15.882 -12.497  -7.906  0.00  0.00    +0.045 C 
ENDROOT
BRANCH  10   9
ATOM      4  C   UNL     1     -17.650  -9.882 -12.413  0.00  0.00    +0.077 A 
ATOM      5  C   UNL     1     -17.002 -10.839 -13.262  0.00  0.00    +0.048 A 
ATOM      6  C   UNL     1     -15.839 -11.467 -12.762  0.00  0.00    +0.116 A 
ATOM      7  N   UNL     1     -15.368 -11.153 -11.505  0.00  0.00    -0.223 NA
ATOM      8  C   UNL     1     -16.017 -10.223 -10.713  0.00  0.00    +0.220 A 
ATOM      9  N   UNL     1     -15.566  -9.898  -9.443  0.00  0.00    -0.283 N 
ATOM     36  H   UNL     1     -16.068  -9.202  -8.892  0.00  0.00    +0.155 HD
ATOM     37  N   UNL     1     -17.129  -9.609 -11.168  0.00  0.00    -0.214 NA
BRANCH   4   3
ATOM      1  C   UNL     1     -20.926  -8.781 -14.246  0.00  0.00    +0.020 A 
ATOM      2  C   UNL     1     -19.738  -9.534 -13.916  0.00  0.00    +0.013 A 
ATOM      3  C   UNL     1     -18.891  -9.137 -12.798  0.00  0.00    +0.019 A 
ATOM     38  C   UNL     1     -19.278  -7.965 -12.027  0.00  0.00    +0.120 A 
ATOM     39  N   UNL     1     -20.426  -7.259 -12.369  0.00  0.00    -0.263 NA
ATOM     40  C   UNL     1     -21.248  -7.630 -13.444  0.00  0.00    +0.111 A 
ENDBRANCH   4   3
ENDBRANCH  10   9
BRANCH  12  13
ATOM     13  N   UNL     1     -10.643  -9.911  -8.722  0.00  0.00    -0.281 N 
ATOM     14  C   UNL     1     -10.245  -8.942  -9.628  0.00  0.00    +0.248 C 
ATOM     30  O   UNL     1     -10.907  -8.581 -10.589  0.00  0.00    -0.270 OA
ATOM     31  H   UNL     1      -9.922 -10.255  -8.087  0.00  0.00    +0.155 HD
BRANCH  14  15
ATOM     15  C   UNL     1      -8.912  -8.291  -9.448  0.00  0.00    +0.037 A 
ATOM     16  C   UNL     1      -8.553  -7.627  -8.192  0.00  0.00    +0.013 A 
ATOM     17  C   UNL     1      -7.267  -6.991  -8.051  0.00  0.00    +0.005 A 
ATOM     18  C   UNL     1      -6.329  -7.018  -9.170  0.00  0.00    -0.033 A 
ATOM     28  C   UNL     1      -6.708  -7.688 -10.403  0.00  0.00    +0.005 A 
ATOM     29  C   UNL     1      -7.968  -8.311 -10.545  0.00  0.00    +0.013 A 
BRANCH  18  19
ATOM     19  C   UNL     1      -4.943  -6.347  -9.116  0.00  0.00    +0.119 C 
BRANCH  19  20
ATOM     20  N   UNL     1      -4.407  -5.995  -7.768  0.00  0.00    -0.302 NA
ATOM     21  C   UNL     1      -3.238  -5.008  -7.854  0.00  0.00    +0.066 C 
ATOM     22  C   UNL     1      -2.704  -4.633  -6.434  0.00  0.00    -0.064 C 
ATOM     23  N   UNL     1      -2.284  -5.906  -5.697  0.00  0.00    +0.379 N 
ATOM     24  C   UNL     1      -1.727  -5.552  -4.384  0.00  0.00    -0.096 C 
ATOM     25  H   UNL     1      -1.472  -6.388  -6.290  0.00  0.00    -0.082 HD
ATOM     26  C   UNL     1      -3.439  -6.894  -5.609  0.00  0.00    -0.064 C 
ATOM     27  C   UNL     1      -3.982  -7.237  -7.024  0.00  0.00    +0.066 C 
ENDBRANCH  19  20
ENDBRANCH  18  19
ENDBRANCH  14  15
ENDBRANCH  12  13
TORSDOF 6
ENDMDL
MODEL 4
REMARK VINA RESULT:     -11.1      1.692      2.268
REMARK  Name = C:\Users\Docking\Desktop\test protocol\1iep_ligandH.pdb
REMARK  8 active torsions:
REMARK  status: ('A' for Active; 'I' for Inactive)
REMARK    1  A    between atoms: _5  and  _11
REMARK    2  A    between atoms: _19  and  _21
REMARK    3  A    between atoms: _22  and  _66
REMARK    4  A    between atoms: _27  and  _30
REMARK    5  A    between atoms: _32  and  _33
REMARK    6  A    between atoms: _38  and  _43
REMARK    7  A    between atoms: _43  and  _46
REMARK    8  A    between atoms: _53  and  _55
REMARK                            x       y       z     vdW  Elec       q    Type
REMARK                         _______ _______ _______ _____ _____    ______ ____
ROOT
ATOM     10  C   UNL     1      -3.218  -5.965  -4.692  0.00  0.00    +0.038 A 
ATOM     11  C   UNL     1      -2.983  -4.590  -4.437  0.00  0.00    +0.047 A 
ATOM     12  C   UNL     1      -1.734  -4.136  -3.847  0.00  0.00    +0.035 A 
ATOM     32  C   UNL     1      -0.743  -5.111  -3.531  0.00  0.00    +0.024 A 
ATOM     33  C   UNL     1      -0.965  -6.513  -3.783  0.00  0.00    +0.007 A 
ATOM     34  C   UNL     1      -2.196  -6.967  -4.363  0.00  0.00    -0.029 A 
ATOM     35  C   UNL     1      -2.383  -8.483  -4.605  0.00  0.00    +0.045 C 
ENDROOT
BRANCH  10   9
ATOM      4  C   UNL     1      -5.964  -7.070  -8.471  0.00  0.00    +0.077 A 
ATOM      5  C   UNL     1      -4.888  -6.846  -9.393  0.00  0.00    +0.048 A 
ATOM      6  C   UNL     1      -3.646  -6.441  -8.855  0.00  0.00    +0.116 A 
ATOM      7  N   UNL     1      -3.502  -6.275  -7.495  0.00  0.00    -0.223 NA
ATOM      8  C   UNL     1      -4.560  -6.498  -6.633  0.00  0.00    +0.220 A 
ATOM      9  N   UNL     1      -4.436  -6.345  -5.261  0.00  0.00    -0.283 N 
ATOM     36  H   UNL     1      -5.242  -6.512  -4.660  0.00  0.00    +0.155 HD
ATOM     37  N   UNL     1      -5.757  -6.884  -7.122  0.00  0.00    -0.214 NA
BRANCH   4   3
ATOM      1  C   UNL     1      -9.011  -8.281 -10.604  0.00  0.00    +0.020 A 
ATOM      2  C   UNL     1      -7.671  -7.867 -10.257  0.00  0.00    +0.013 A 
ATOM      3  C   UNL     1      -7.335  -7.505  -8.885  0.00  0.00    +0.019 A 
ATOM     38  C   UNL     1      -8.387  -7.573  -7.882  0.00  0.00    +0.120 A 
ATOM     39  N   UNL     1      -9.668  -7.974  -8.246  0.00  0.00    -0.263 NA
ATOM     40  C   UNL     1     -10.003  -8.323  -9.563  0.00  0.00    +0.111 A 
ENDBRANCH   4   3
ENDBRANCH  10   9
BRANCH  12  13
ATOM     13  N   UNL     1      -1.442  -2.754  -3.557  0.00  0.00    -0.281 N 
ATOM     14  C   UNL     1      -1.804  -1.636  -4.291  0.00  0.00    +0.248 C 
ATOM     30  O   UNL     1      -2.253  -1.670  -5.427  0.00  0.00    -0.270 OA
ATOM     31  H   UNL     1      -0.904  -2.579  -2.709  0.00  0.00    +0.155 HD
BRANCH  14  15
ATOM     15  C   UNL     1      -1.628  -0.284  -3.679  0.00  0.00    +0.037 A 
ATOM     16  C   UNL     1      -1.463   0.911  -4.511  0.00  0.00    +0.013 A 
ATOM     17  C   UNL     1      -1.278   2.201  -3.896  0.00  0.00    +0.005 A 
ATOM     18  C   UNL     1      -1.260   2.303  -2.439  0.00  0.00    -0.033 A 
ATOM     28  C   UNL     1      -1.431   1.103  -1.637  0.00  0.00    +0.005 A 
ATOM     29  C   UNL     1      -1.611  -0.164  -2.237  0.00  0.00    +0.013 A 
BRANCH  18  19
ATOM     19  C   UNL     1      -1.047   3.636  -1.696  0.00  0.00    +0.119 C 
BRANCH  19  20
ATOM     20  N   UNL     1      -0.731   4.838  -2.525  0.00  0.00    -0.302 NA
ATOM     21  C   UNL     1       0.409   5.665  -1.926  0.00  0.00    +0.066 C 
ATOM     22  C   UNL     1       0.741   6.906  -2.818  0.00  0.00    -0.064 C 
ATOM     23  N   UNL     1      -0.516   7.760  -2.987  0.00  0.00    +0.379 N 
ATOM     24  C   UNL     1      -0.193   8.957  -3.776  0.00  0.00    -0.096 C 
ATOM     25  H   UNL     1      -0.834   8.098  -1.973  0.00  0.00    -0.082 HD
ATOM     26  C   UNL     1      -1.657   6.944  -3.579  0.00  0.00    -0.064 C 
ATOM     27  C   UNL     1      -1.959   5.698  -2.702  0.00  0.00    +0.066 C 
ENDBRANCH  19  20
ENDBRANCH  18  19
ENDBRANCH  14  15
ENDBRANCH  12  13
TORSDOF 6
ENDMDL
MODEL 5
REMARK VINA RESULT:     -10.9      5.809     13.130
REMARK  Name = C:\Users\Docking\Desktop\test protocol\1iep_ligandH.pdb
REMARK  8 active torsions:
REMARK  status: ('A' for Active; 'I' for Inactive)
REMARK    1  A    between atoms: _5  and  _11
REMARK    2  A    between atoms: _19  and  _21
REMARK    3  A    between atoms: _22  and  _66
REMARK    4  A    between atoms: _27  and  _30
REMARK    5  A    between atoms: _32  and  _33
REMARK    6  A    between atoms: _38  and  _43
REMARK    7  A    between atoms: _43  and  _46
REMARK    8  A    between atoms: _53  and  _55
REMARK                            x       y       z     vdW  Elec       q    Type
REMARK                         _______ _______ _______ _____ _____    ______ ____
ROOT
ATOM     10  C   UNL     1      -3.683  -6.621  -6.765  0.00  0.00    +0.038 A 
ATOM     11  C   UNL     1      -5.038  -6.980  -6.977  0.00  0.00    +0.047 A 
ATOM     12  C   UNL     1      -5.755  -6.545  -8.166  0.00  0.00    +0.035 A 
ATOM     32  C   UNL     1      -5.060  -5.747  -9.120  0.00  0.00    +0.024 A 
ATOM     33  C   UNL     1      -3.682  -5.372  -8.920  0.00  0.00    +0.007 A 
ATOM     34  C   UNL     1      -2.970  -5.796  -7.748  0.00  0.00    -0.029 A 
ATOM     35  C   UNL     1      -1.496  -5.358  -7.583  0.00  0.00    +0.045 C 
ENDROOT
BRANCH  10   9
ATOM      4  C   UNL     1      -2.159  -5.981  -2.259  0.00  0.00    +0.077 A 
ATOM      5  C   UNL     1      -2.657  -4.636  -2.219  0.00  0.00    +0.048 A 
ATOM      6  C   UNL     1      -3.292  -4.144  -3.382  0.00  0.00    +0.116 A 
ATOM      7  N   UNL     1      -3.415  -4.947  -4.495  0.00  0.00    -0.223 NA
ATOM      8  C   UNL     1      -2.923  -6.239  -4.501  0.00  0.00    +0.220 A 
ATOM      9  N   UNL     1      -3.043  -7.067  -5.606  0.00  0.00    -0.283 N 
ATOM     36  H   UNL     1      -2.660  -8.011  -5.573  0.00  0.00    +0.155 HD
ATOM     37  N   UNL     1      -2.311  -6.731  -3.403  0.00  0.00    -0.214 NA
BRANCH   4   3
ATOM      1  C   UNL     1       0.120  -8.345  -0.134  0.00  0.00    +0.020 A 
ATOM      2  C   UNL     1      -0.522  -7.740  -1.278  0.00  0.00    +0.013 A 
ATOM      3  C   UNL     1      -1.468  -6.644  -1.109  0.00  0.00    +0.019 A 
ATOM     38  C   UNL     1      -1.744  -6.180   0.243  0.00  0.00    +0.120 A 
ATOM     39  N   UNL     1      -1.113  -6.783   1.326  0.00  0.00    -0.263 NA
ATOM     40  C   UNL     1      -0.202  -7.840   1.175  0.00  0.00    +0.111 A 
ENDBRANCH   4   3
ENDBRANCH  10   9
BRANCH  12  13
ATOM     13  N   UNL     1      -7.134  -6.872  -8.431  0.00  0.00    -0.281 N 
ATOM     14  C   UNL     1      -7.648  -7.605  -9.488  0.00  0.00    +0.248 C 
ATOM     30  O   UNL     1      -7.016  -7.911 -10.488  0.00  0.00    -0.270 OA
ATOM     31  H   UNL     1      -7.815  -6.521  -7.757  0.00  0.00    +0.155 HD
BRANCH  14  15
ATOM     15  C   UNL     1      -9.074  -8.049  -9.434  0.00  0.00    +0.037 A 
ATOM     16  C   UNL     1      -9.808  -8.093  -8.167  0.00  0.00    +0.013 A 
ATOM     17  C   UNL     1     -11.178  -8.542  -8.140  0.00  0.00    +0.005 A 
ATOM     18  C   UNL     1     -11.823  -8.949  -9.387  0.00  0.00    -0.033 A 
ATOM     28  C   UNL     1     -11.072  -8.890 -10.630  0.00  0.00    +0.005 A 
ATOM     29  C   UNL     1      -9.730  -8.452 -10.660  0.00  0.00    +0.013 A 
BRANCH  18  19
ATOM     19  C   UNL     1     -13.274  -9.461  -9.449  0.00  0.00    +0.119 C 
BRANCH  19  20
ATOM     20  N   UNL     1     -13.723 -10.377  -8.358  0.00  0.00    -0.302 NA
ATOM     21  C   UNL     1     -12.735 -11.524  -8.128  0.00  0.00    +0.066 C 
ATOM     22  C   UNL     1     -13.210 -12.459  -6.968  0.00  0.00    -0.064 C 
ATOM     23  N   UNL     1     -14.603 -13.001  -7.292  0.00  0.00    +0.379 N 
ATOM     24  C   UNL     1     -15.028 -13.926  -6.231  0.00  0.00    -0.096 C 
ATOM     25  H   UNL     1     -14.528 -13.584  -8.239  0.00  0.00    -0.082 HD
ATOM     26  C   UNL     1     -15.591 -11.867  -7.525  0.00  0.00    -0.064 C 
ATOM     27  C   UNL     1     -15.096 -10.927  -8.659  0.00  0.00    +0.066 C 
ENDBRANCH  19  20
ENDBRANCH  18  19
ENDBRANCH  14  15
ENDBRANCH  12  13
TORSDOF 6
ENDMDL
