MODEL 1
REMARK VINA RESULT:     -11.0      0.000      0.000
REMARK  Name = C:\Users\Docking\Desktop\test protocol\1iep_ligandH.pdb
REMARK  8 active torsions:
REMARK  status: ('A' for Active; 'I' for Inactive)
REMARK    1  A    between atoms: _5  and  _11
REMARK    2  A    between atoms: _19  and  _21
REMARK    3  A    between atoms: _22  and  _66
REMARK    4  A    between atoms: _27  and  _30
REMARK    5  A    between atoms: _32  and  _33
REMARK    6  A    between atoms: _38  and  _43
REMARK    7  A    between atoms: _43  and  _46
REMARK    8  A    between atoms: _53  and  _55
REMARK                            x       y       z     vdW  Elec       q    Type
REMARK                         _______ _______ _______ _____ _____    ______ ____
ROOT
ATOM     10  C   UNL     1     -14.780 -10.710  -9.220  0.00  0.00    +0.038 A 
ATOM     11  C   UNL     1     -13.521 -10.089  -9.419  0.00  0.00    +0.047 A 
ATOM     12  C   UNL     1     -12.295 -10.700  -8.930  0.00  0.00    +0.035 A 
ATOM     32  C   UNL     1     -12.388 -11.947  -8.245  0.00  0.00    +0.024 A 
ATOM     33  C   UNL     1     -13.660 -12.591  -8.033  0.00  0.00    +0.007 A 
ATOM     34  C   UNL     1     -14.873 -11.992  -8.511  0.00  0.00    -0.029 A 
ATOM     35  C   UNL     1     -16.210 -12.725  -8.250  0.00  0.00    +0.045 C 
ENDROOT
BRANCH  10   9
ATOM      4  C   UNL     1     -17.981  -9.850 -12.693  0.00  0.00    +0.077 A 
ATOM      5  C   UNL     1     -17.298 -10.710 -13.616  0.00  0.00    +0.048 A 
ATOM      6  C   UNL     1     -16.124 -11.350 -13.160  0.00  0.00    +0.116 A 
ATOM      7  N   UNL     1     -15.674 -11.138 -11.875  0.00  0.00    -0.223 NA
ATOM      8  C   UNL     1     -16.355 -10.300 -11.010  0.00  0.00    +0.220 A 
ATOM      9  N   UNL     1     -15.926 -10.079  -9.711  0.00  0.00    -0.283 N 
ATOM     36  H   UNL     1     -16.452  -9.448  -9.107  0.00  0.00    +0.155 HD
ATOM     37  N   UNL     1     -17.479  -9.677 -11.422  0.00  0.00    -0.214 NA
BRANCH   4   3
ATOM      1  C   UNL     1     -21.286  -8.698 -14.438  0.00  0.00    +0.020 A 
ATOM      2  C   UNL     1     -20.083  -9.448 -14.161  0.00  0.00    +0.013 A 
ATOM      3  C   UNL     1     -19.237  -9.106 -13.025  0.00  0.00    +0.019 A 
ATOM     38  C   UNL     1     -19.641  -7.992 -12.180  0.00  0.00    +0.120 A 
ATOM     39  N   UNL     1     -20.804  -7.287 -12.472  0.00  0.00    -0.263 NA
ATOM     40  C   UNL     1     -21.625  -7.606 -13.564  0.00  0.00    +0.111 A 
ENDBRANCH   4   3
ENDBRANCH  10   9
BRANCH  12  13
ATOM     13  N   UNL     1     -10.989 -10.112  -9.095  0.00  0.00    -0.281 N 
ATOM     14  C   UNL     1     -10.641  -9.009  -9.857  0.00  0.00    +0.248 C 
ATOM     30  O   UNL     1     -11.369  -8.486 -10.688  0.00  0.00    -0.270 OA
ATOM     31  H   UNL     1     -10.228 -10.564  -8.587  0.00  0.00    +0.155 HD
BRANCH  14  15
ATOM     15  C   UNL     1      -9.283  -8.410  -9.683  0.00  0.00    +0.037 A 
ATOM     16  C   UNL     1      -8.846  -7.884  -8.388  0.00  0.00    +0.013 A 
ATOM     17  C   UNL     1      -7.537  -7.295  -8.251  0.00  0.00    +0.005 A 
ATOM     18  C   UNL     1      -6.656  -7.230  -9.414  0.00  0.00    -0.033 A 
ATOM     28  C   UNL     1      -7.113  -7.764 -10.686  0.00  0.00    +0.005 A 
ATOM     29  C   UNL     1      -8.396  -8.341 -10.824  0.00  0.00    +0.013 A 
BRANCH  18  19
ATOM     19  C   UNL     1      -5.251  -6.600  -9.365  0.00  0.00    +0.119 C 
BRANCH  19  20
ATOM     20  N   UNL     1      -4.662  -6.346  -8.017  0.00  0.00    -0.302 NA
ATOM     21  C   UNL     1      -3.744  -5.121  -8.013  0.00  0.00    +0.066 C 
ATOM     22  C   UNL     1      -3.155  -4.856  -6.589  0.00  0.00    -0.064 C 
ATOM     23  N   UNL     1      -2.401  -6.099  -6.113  0.00  0.00    +0.379 N 
ATOM     24  C   UNL     1      -1.797  -5.833  -4.799  0.00  0.00    -0.096 C 
ATOM     25  H   UNL     1      -1.573  -6.289  -6.834  0.00  0.00    -0.082 HD
ATOM     26  C   UNL     1      -3.306  -7.322  -6.116  0.00  0.00    -0.064 C 
ATOM     27  C   UNL     1      -3.910  -7.559  -7.529  0.00  0.00    +0.066 C 
ENDBRANCH  19  20
ENDBRANCH  18  19
ENDBRANCH  14  15
ENDBRANCH  12  13
TORSDOF 6
ENDMDL
MODEL 2
REMARK VINA RESULT:     -11.0      3.994     15.127
REMARK  Name = C:\Users\Docking\Desktop\test protocol\1iep_ligandH.pdb
REMARK  8 active torsions:
REMARK  status: ('A' for Active; 'I' for Inactive)
REMARK    1  A    between atoms: _5  and  _11
REMARK    2  A    between atoms: _19  and  _21
REMARK    3  A    between atoms: _22  and  _66
REMARK    4  A    between atoms: _27  and  _30
REMARK    5  A    between atoms: _32  and  _33
REMARK    6  A    between atoms: _38  and  _43
REMARK    7  A    between atoms: _43  and  _46
REMARK    8  A    between atoms: _53  and  _55
REMARK                            x       y       z     vdW  Elec       q    Type
REMARK                         _______ _______ _______ _____ _____    ______ ____
ROOT
ATOM     10  C   UNL     1      -2.671  -4.715  -5.799  0.00  0.00    +0.038 A 
ATOM     11  C   UNL     1      -3.911  -4.926  -6.455  0.00  0.00    +0.047 A 
ATOM     12  C   UNL     1      -4.392  -6.269  -6.740  0.00  0.00    +0.035 A 
ATOM     32  C   UNL     1      -3.586  -7.375  -6.340  0.00  0.00    +0.024 A 
ATOM     33  C   UNL     1      -2.323  -7.178  -5.673  0.00  0.00    +0.007 A 
ATOM     34  C   UNL     1      -1.842  -5.856  -5.392  0.00  0.00    -0.029 A 
ATOM     35  C   UNL     1      -0.477  -5.704  -4.681  0.00  0.00    +0.045 C 
ENDROOT
BRANCH  10   9
ATOM      4  C   UNL     1      -1.578  -1.115  -2.819  0.00  0.00    +0.077 A 
ATOM      5  C   UNL     1      -1.882  -1.903  -1.660  0.00  0.00    +0.048 A 
ATOM      6  C   UNL     1      -2.324  -3.228  -1.874  0.00  0.00    +0.116 A 
ATOM      7  N   UNL     1      -2.448  -3.718  -3.156  0.00  0.00    -0.223 NA
ATOM      8  C   UNL     1      -2.148  -2.930  -4.252  0.00  0.00    +0.220 A 
ATOM      9  N   UNL     1      -2.258  -3.404  -5.551  0.00  0.00    -0.283 N 
ATOM     36  H   UNL     1      -2.034  -2.789  -6.333  0.00  0.00    +0.155 HD
ATOM     37  N   UNL     1      -1.726  -1.661  -4.075  0.00  0.00    -0.214 NA
BRANCH   4   3
ATOM      1  C   UNL     1       0.605   2.060  -2.144  0.00  0.00    +0.020 A 
ATOM      2  C   UNL     1       0.187   0.678  -2.180  0.00  0.00    +0.013 A 
ATOM      3  C   UNL     1      -1.097   0.302  -2.756  0.00  0.00    +0.019 A 
ATOM     38  C   UNL     1      -1.943   1.358  -3.293  0.00  0.00    +0.120 A 
ATOM     39  N   UNL     1      -1.515   2.681  -3.244  0.00  0.00    -0.263 NA
ATOM     40  C   UNL     1      -0.281   3.055  -2.690  0.00  0.00    +0.111 A 
ENDBRANCH   4   3
ENDBRANCH  10   9
BRANCH  12  13
ATOM     13  N   UNL     1      -5.639  -6.545  -7.410  0.00  0.00    -0.281 N 
ATOM     14  C   UNL     1      -5.828  -6.987  -8.709  0.00  0.00    +0.248 C 
ATOM     30  O   UNL     1      -4.956  -7.008  -9.565  0.00  0.00    -0.270 OA
ATOM     31  H   UNL     1      -6.485  -6.397  -6.859  0.00  0.00    +0.155 HD
BRANCH  14  15
ATOM     15  C   UNL     1      -7.184  -7.461  -9.120  0.00  0.00    +0.037 A 
ATOM     16  C   UNL     1      -8.289  -7.528  -8.161  0.00  0.00    +0.013 A 
ATOM     17  C   UNL     1      -9.583  -8.005  -8.580  0.00  0.00    +0.005 A 
ATOM     18  C   UNL     1      -9.779  -8.417  -9.968  0.00  0.00    -0.033 A 
ATOM     28  C   UNL     1      -8.667  -8.336 -10.900  0.00  0.00    +0.005 A 
ATOM     29  C   UNL     1      -7.397  -7.870 -10.492  0.00  0.00    +0.013 A 
BRANCH  18  19
ATOM     19  C   UNL     1     -11.120  -8.959 -10.498  0.00  0.00    +0.119 C 
BRANCH  19  20
ATOM     20  N   UNL     1     -12.039  -9.598  -9.508  0.00  0.00    -0.302 NA
ATOM     21  C   UNL     1     -11.469 -10.908  -8.958  0.00  0.00    +0.066 C 
ATOM     22  C   UNL     1     -12.432 -11.551  -7.908  0.00  0.00    -0.064 C 
ATOM     23  N   UNL     1     -13.801 -11.783  -8.550  0.00  0.00    +0.379 N 
ATOM     24  C   UNL     1     -14.691 -12.441  -7.583  0.00  0.00    -0.096 C 
ATOM     25  H   UNL     1     -13.657 -12.482  -9.408  0.00  0.00    -0.082 HD
ATOM     26  C   UNL     1     -14.373 -10.486  -9.103  0.00  0.00    -0.064 C 
ATOM     27  C   UNL     1     -13.395  -9.840 -10.123  0.00  0.00    +0.066 C 
ENDBRANCH  19  20
ENDBRANCH  18  19
ENDBRANCH  14  15
ENDBRANCH  12  13
TORSDOF 6
ENDMDL
MODEL 3
REMARK VINA RESULT:     -10.9      3.341      5.349
REMARK  Name = C:\Users\Docking\Desktop\test protocol\1iep_ligandH.pdb
REMARK  8 active torsions:
REMARK  status: ('A' for Active; 'I' for Inactive)
REMARK    1  A    between atoms: _5  and  _11
REMARK    2  A    between atoms: _19  and  _21
REMARK    3  A    between atoms: _22  and  _66
REMARK    4  A    between atoms: _27  and  _30
REMARK    5  A    between atoms: _32  and  _33
REMARK    6  A    between atoms: _38  and  _43
REMARK    7  A    between atoms: _43  and  _46
REMARK    8  A    between atoms: _53  and  _55
REMARK                            x       y       z     vdW  Elec       q    Type
REMARK                         _______ _______ _______ _____ _____    ______ ____
ROOT
ATOM     10  C   UNL     1     -13.064  -9.495  -9.107  0.00  0.00    +0.038 A 
ATOM     11  C   UNL     1     -11.804  -9.099  -8.591  0.00  0.00    +0.047 A 
ATOM     12  C   UNL     1     -10.744  -8.631  -9.470  0.00  0.00    +0.035 A 
ATOM     32  C   UNL     1     -11.003  -8.576 -10.871  0.00  0.00    +0.024 A 
ATOM     33  C   UNL     1     -12.278  -8.975 -11.413  0.00  0.00    +0.007 A 
ATOM     34  C   UNL     1     -13.326  -9.441 -10.551  0.00  0.00    -0.029 A 
ATOM     35  C   UNL     1     -14.671  -9.862 -11.188  0.00  0.00    +0.045 C 
ENDROOT
BRANCH  10   9
ATOM      4  C   UNL     1     -15.556 -12.979  -6.942  0.00  0.00    +0.077 A 
ATOM      5  C   UNL     1     -14.861 -14.006  -7.664  0.00  0.00    +0.048 A 
ATOM      6  C   UNL     1     -13.875 -13.595  -8.588  0.00  0.00    +0.116 A 
ATOM      7  N   UNL     1     -13.611 -12.255  -8.769  0.00  0.00    -0.223 NA
ATOM      8  C   UNL     1     -14.301 -11.290  -8.058  0.00  0.00    +0.220 A 
ATOM      9  N   UNL     1     -14.046  -9.936  -8.218  0.00  0.00    -0.283 N 
ATOM     36  H   UNL     1     -14.582  -9.256  -7.679  0.00  0.00    +0.155 HD
ATOM     37  N   UNL     1     -15.248 -11.656  -7.170  0.00  0.00    -0.214 NA
BRANCH   4   3
ATOM      1  C   UNL     1     -17.513 -13.272  -3.568  0.00  0.00    +0.020 A 
ATOM      2  C   UNL     1     -16.451 -12.988  -4.505  0.00  0.00    +0.013 A 
ATOM      3  C   UNL     1     -16.623 -13.254  -5.928  0.00  0.00    +0.019 A 
ATOM     38  C   UNL     1     -17.891 -13.811  -6.373  0.00  0.00    +0.120 A 
ATOM     39  N   UNL     1     -18.895 -14.076  -5.447  0.00  0.00    -0.263 NA
ATOM     40  C   UNL     1     -18.741 -13.825  -4.075  0.00  0.00    +0.111 A 
ENDBRANCH   4   3
ENDBRANCH  10   9
BRANCH  12  13
ATOM     13  N   UNL     1      -9.442  -8.223  -9.004  0.00  0.00    -0.281 N 
ATOM     14  C   UNL     1      -8.241  -8.259  -9.694  0.00  0.00    +0.248 C 
ATOM     30  O   UNL     1      -8.068  -8.850 -10.749  0.00  0.00    -0.270 OA
ATOM     31  H   UNL     1      -9.400  -7.865  -8.050  0.00  0.00    +0.155 HD
BRANCH  14  15
ATOM     15  C   UNL     1      -7.058  -7.548  -9.121  0.00  0.00    +0.037 A 
ATOM     16  C   UNL     1      -6.960  -7.269  -7.686  0.00  0.00    +0.013 A 
ATOM     17  C   UNL     1      -5.816  -6.566  -7.162  0.00  0.00    +0.005 A 
ATOM     18  C   UNL     1      -4.758  -6.139  -8.075  0.00  0.00    -0.033 A 
ATOM     28  C   UNL     1      -4.878  -6.434  -9.493  0.00  0.00    +0.005 A 
ATOM     29  C   UNL     1      -5.999  -7.121 -10.010  0.00  0.00    +0.013 A 
BRANCH  18  19
ATOM     19  C   UNL     1      -3.512  -5.365  -7.606  0.00  0.00    +0.119 C 
BRANCH  19  20
ATOM     20  N   UNL     1      -3.089  -5.545  -6.186  0.00  0.00    -0.302 NA
ATOM     21  C   UNL     1      -2.703  -4.217  -5.528  0.00  0.00    +0.066 C 
ATOM     22  C   UNL     1      -2.285  -4.422  -4.035  0.00  0.00    -0.064 C 
ATOM     23  N   UNL     1      -1.126  -5.418  -3.965  0.00  0.00    +0.379 N 
ATOM     24  C   UNL     1      -0.692  -5.568  -2.569  0.00  0.00    -0.096 C 
ATOM     25  H   UNL     1      -0.274  -4.986  -4.540  0.00  0.00    -0.082 HD
ATOM     26  C   UNL     1      -1.500  -6.740  -4.619  0.00  0.00    -0.064 C 
ATOM     27  C   UNL     1      -1.942  -6.522  -6.093  0.00  0.00    +0.066 C 
ENDBRANCH  19  20
ENDBRANCH  18  19
ENDBRANCH  14  15
ENDBRANCH  12  13
TORSDOF 6
ENDMDL
MODEL 4
REMARK VINA RESULT:     -10.8      7.237     13.625
REMARK  Name = C:\Users\Docking\Desktop\test protocol\1iep_ligandH.pdb
REMARK  8 active torsions:
REMARK  status: ('A' for Active; 'I' for Inactive)
REMARK    1  A    between atoms: _5  and  _11
REMARK    2  A    between atoms: _19  and  _21
REMARK    3  A    between atoms: _22  and  _66
REMARK    4  A    between atoms: _27  and  _30
REMARK    5  A    between atoms: _32  and  _33
REMARK    6  A    between atoms: _38  and  _43
REMARK    7  A    between atoms: _43  and  _46
REMARK    8  A    between atoms: _53  and  _55
REMARK                            x       y       z     vdW  Elec       q    Type
REMARK                         _______ _______ _______ _____ _____    ______ ____
ROOT
ATOM     10  C   UNL     1      -3.318  -5.115  -5.086  0.00  0.00    +0.038 A 
ATOM     11  C   UNL     1      -3.431  -3.736  -4.776  0.00  0.00    +0.047 A 
ATOM     12  C   UNL     1      -2.311  -2.996  -4.215  0.00  0.00    +0.035 A 
ATOM     32  C   UNL     1      -1.088  -3.692  -3.986  0.00  0.00    +0.024 A 
ATOM     33  C   UNL     1      -0.956  -5.095  -4.295  0.00  0.00    +0.007 A 
ATOM     34  C   UNL     1      -2.058  -5.830  -4.845  0.00  0.00    -0.029 A 
ATOM     35  C   UNL     1      -1.862  -7.333  -5.150  0.00  0.00    +0.045 C 
ENDROOT
BRANCH  10   9
ATOM      4  C   UNL     1      -5.928  -6.672  -8.800  0.00  0.00    +0.077 A 
ATOM      5  C   UNL     1      -5.023  -6.097  -9.753  0.00  0.00    +0.048 A 
ATOM      6  C   UNL     1      -3.902  -5.403  -9.247  0.00  0.00    +0.116 A 
ATOM      7  N   UNL     1      -3.710  -5.298  -7.886  0.00  0.00    -0.223 NA
ATOM      8  C   UNL     1      -4.603  -5.863  -6.994  0.00  0.00    +0.220 A 
ATOM      9  N   UNL     1      -4.425  -5.776  -5.622  0.00  0.00    -0.283 N 
ATOM     36  H   UNL     1      -5.110  -6.200  -4.997  0.00  0.00    +0.155 HD
ATOM     37  N   UNL     1      -5.682  -6.530  -7.453  0.00  0.00    -0.214 NA
BRANCH   4   3
ATOM      1  C   UNL     1      -8.577  -8.709 -10.834  0.00  0.00    +0.020 A 
ATOM      2  C   UNL     1      -7.373  -7.975 -10.519  0.00  0.00    +0.013 A 
ATOM      3  C   UNL     1      -7.156  -7.439  -9.181  0.00  0.00    +0.019 A 
ATOM     38  C   UNL     1      -8.185  -7.666  -8.176  0.00  0.00    +0.120 A 
ATOM     39  N   UNL     1      -9.334  -8.375  -8.509  0.00  0.00    -0.263 NA
ATOM     40  C   UNL     1      -9.555  -8.894  -9.794  0.00  0.00    +0.111 A 
ENDBRANCH   4   3
ENDBRANCH  10   9
BRANCH  12  13
ATOM     13  N   UNL     1      -2.369  -1.597  -3.873  0.00  0.00    -0.281 N 
ATOM     14  C   UNL     1      -1.659  -0.930  -2.888  0.00  0.00    +0.248 C 
ATOM     30  O   UNL     1      -1.018  -1.482  -2.005  0.00  0.00    -0.270 OA
ATOM     31  H   UNL     1      -3.012  -1.028  -4.424  0.00  0.00    +0.155 HD
BRANCH  14  15
ATOM     15  C   UNL     1      -1.673   0.564  -2.873  0.00  0.00    +0.037 A 
ATOM     16  C   UNL     1      -0.491   1.332  -2.474  0.00  0.00    +0.013 A 
ATOM     17  C   UNL     1      -0.537   2.772  -2.452  0.00  0.00    +0.005 A 
ATOM     18  C   UNL     1      -1.771   3.455  -2.831  0.00  0.00    -0.033 A 
ATOM     28  C   UNL     1      -2.928   2.669  -3.228  0.00  0.00    +0.005 A 
ATOM     29  C   UNL     1      -2.887   1.257  -3.250  0.00  0.00    +0.013 A 
BRANCH  18  19
ATOM     19  C   UNL     1      -1.918   4.988  -2.817  0.00  0.00    +0.119 C 
BRANCH  19  20
ATOM     20  N   UNL     1      -3.278   5.548  -3.076  0.00  0.00    -0.302 NA
ATOM     21  C   UNL     1      -3.518   5.807  -4.566  0.00  0.00    +0.066 C 
ATOM     22  C   UNL     1      -4.954   6.371  -4.821  0.00  0.00    -0.064 C 
ATOM     23  N   UNL     1      -5.147   7.653  -4.010  0.00  0.00    +0.379 N 
ATOM     24  C   UNL     1      -6.474   8.218  -4.292  0.00  0.00    -0.096 C 
ATOM     25  H   UNL     1      -4.385   8.390  -4.357  0.00  0.00    -0.082 HD
ATOM     26  C   UNL     1      -4.907   7.405  -2.527  0.00  0.00    -0.064 C 
ATOM     27  C   UNL     1      -3.488   6.817  -2.288  0.00  0.00    +0.066 C 
ENDBRANCH  19  20
ENDBRANCH  18  19
ENDBRANCH  14  15
ENDBRANCH  12  13
TORSDOF 6
ENDMDL
MODEL 5
REMARK VINA RESULT:     -10.8      2.714     14.823
REMARK  Name = C:\Users\Docking\Desktop\test protocol\1iep_ligandH.pdb
REMARK  8 active torsions:
REMARK  status: ('A' for Active; 'I' for Inactive)
REMARK    1  A    between atoms: _5  and  _11
REMARK    2  A    between atoms: _19  and  _21
REMARK    3  A    between atoms: _22  and  _66
REMARK    4  A    between atoms: _27  and  _30
REMARK    5  A    between atoms: _32  and  _33
REMARK    6  A    between atoms: _38  and  _43
REMARK    7  A    between atoms: _43  and  _46
REMARK    8  A    between atoms: _53  and  _55
REMARK                            x       y       z     vdW  Elec       q    Type
REMARK                         _______ _______ _______ _____ _____    ______ ____
ROOT
ATOM     10  C   UNL     1      -4.026  -5.721  -6.778  0.00  0.00    +0.038 A 
ATOM     11  C   UNL     1      -5.368  -6.178  -6.805  0.00  0.00    +0.047 A 
ATOM     12  C   UNL     1      -5.875  -6.957  -7.924  0.00  0.00    +0.035 A 
ATOM     32  C   UNL     1      -4.986  -7.255  -8.997  0.00  0.00    +0.024 A 
ATOM     33  C   UNL     1      -3.619  -6.797  -8.986  0.00  0.00    +0.007 A 
ATOM     34  C   UNL     1      -3.114  -6.026  -7.887  0.00  0.00    -0.029 A 
ATOM     35  C   UNL     1      -1.641  -5.556  -7.931  0.00  0.00    +0.045 C 
ENDROOT
BRANCH  10   9
ATOM      4  C   UNL     1      -1.379  -5.180  -2.811  0.00  0.00    +0.077 A 
ATOM      5  C   UNL     1      -0.834  -6.502  -2.923  0.00  0.00    +0.048 A 
ATOM      6  C   UNL     1      -1.267  -7.292  -4.011  0.00  0.00    +0.116 A 
ATOM      7  N   UNL     1      -2.176  -6.787  -4.915  0.00  0.00    -0.223 NA
ATOM      8  C   UNL     1      -2.683  -5.508  -4.777  0.00  0.00    +0.220 A 
ATOM      9  N   UNL     1      -3.592  -4.976  -5.678  0.00  0.00    -0.283 N 
ATOM     36  H   UNL     1      -3.948  -4.031  -5.537  0.00  0.00    +0.155 HD
ATOM     37  N   UNL     1      -2.287  -4.734  -3.745  0.00  0.00    -0.214 NA
BRANCH   4   3
ATOM      1  C   UNL     1       0.333  -2.313  -0.772  0.00  0.00    +0.020 A 
ATOM      2  C   UNL     1       0.023  -3.213  -1.860  0.00  0.00    +0.013 A 
ATOM      3  C   UNL     1      -1.017  -4.224  -1.717  0.00  0.00    +0.019 A 
ATOM     38  C   UNL     1      -1.732  -4.298  -0.451  0.00  0.00    +0.120 A 
ATOM     39  N   UNL     1      -1.411  -3.419   0.579  0.00  0.00    -0.263 NA
ATOM     40  C   UNL     1      -0.410  -2.444   0.453  0.00  0.00    +0.111 A 
ENDBRANCH   4   3
ENDBRANCH  10   9
BRANCH  12  13
ATOM     13  N   UNL     1      -7.231  -7.441  -8.011  0.00  0.00    -0.281 N 
ATOM     14  C   UNL     1      -8.110  -7.326  -9.075  0.00  0.00    +0.248 C 
ATOM     30  O   UNL     1      -7.934  -6.597 -10.040  0.00  0.00    -0.270 OA
ATOM     31  H   UNL     1      -7.585  -7.928  -7.188  0.00  0.00    +0.155 HD
BRANCH  14  15
ATOM     15  C   UNL     1      -9.373  -8.124  -9.058  0.00  0.00    +0.037 A 
ATOM     16  C   UNL     1      -9.876  -8.776 -10.270  0.00  0.00    +0.013 A 
ATOM     17  C   UNL     1     -11.107  -9.526 -10.230  0.00  0.00    +0.005 A 
ATOM     18  C   UNL     1     -11.842  -9.629  -8.971  0.00  0.00    -0.033 A 
ATOM     28  C   UNL     1     -11.317  -8.977  -7.783  0.00  0.00    +0.005 A 
ATOM     29  C   UNL     1     -10.112  -8.240  -7.819  0.00  0.00    +0.013 A 
BRANCH  18  19
ATOM     19  C   UNL     1     -13.174 -10.391  -8.841  0.00  0.00    +0.119 C 
BRANCH  19  20
ATOM     20  N   UNL     1     -14.031 -10.483 -10.060  0.00  0.00    -0.302 NA
ATOM     21  C   UNL     1     -14.268  -9.112 -10.700  0.00  0.00    +0.066 C 
ATOM     22  C   UNL     1     -15.149  -9.228 -11.987  0.00  0.00    -0.064 C 
ATOM     23  N   UNL     1     -16.478  -9.898 -11.633  0.00  0.00    +0.379 N 
ATOM     24  C   UNL     1     -17.331  -9.957 -12.829  0.00  0.00    -0.096 C 
ATOM     25  H   UNL     1     -16.991  -9.254 -10.882  0.00  0.00    -0.082 HD
ATOM     26  C   UNL     1     -16.251 -11.261 -10.994  0.00  0.00    -0.064 C 
ATOM     27  C   UNL     1     -15.351 -11.137  -9.733  0.00  0.00    +0.066 C 
ENDBRANCH  19  20
ENDBRANCH  18  19
ENDBRANCH  14  15
ENDBRANCH  12  13
TORSDOF 6
ENDMDL
