MODEL 1
REMARK VINA RESULT:     -11.2      0.000      0.000
REMARK  Name = C:\Users\Docking\Desktop\test protocol\1iep_ligandH.pdb
REMARK  8 active torsions:
REMARK  status: ('A' for Active; 'I' for Inactive)
REMARK    1  A    between atoms: _5  and  _11
REMARK    2  A    between atoms: _19  and  _21
REMARK    3  A    between atoms: _22  and  _66
REMARK    4  A    between atoms: _27  and  _30
REMARK    5  A    between atoms: _32  and  _33
REMARK    6  A    between atoms: _38  and  _43
REMARK    7  A    between atoms: _43  and  _46
REMARK    8  A    between atoms: _53  and  _55
REMARK                            x       y       z     vdW  Elec       q    Type
REMARK                         _______ _______ _______ _____ _____    ______ ____
ROOT
ATOM     10  C   UNL     1       3.194  -5.756   4.511  0.00  0.00    +0.038 A 
ATOM     11  C   UNL     1       3.082  -4.364   4.266  0.00  0.00    +0.047 A 
ATOM     12  C   UNL     1       1.922  -3.812   3.583  0.00  0.00    +0.035 A 
ATOM     32  C   UNL     1       0.894  -4.707   3.166  0.00  0.00    +0.024 A 
ATOM     33  C   UNL     1       0.993  -6.125   3.406  0.00  0.00    +0.007 A 
ATOM     34  C   UNL     1       2.135  -6.676   4.077  0.00  0.00    -0.029 A 
ATOM     35  C   UNL     1       2.191  -8.205   4.302  0.00  0.00    +0.045 C 
ENDROOT
BRANCH  10   9
ATOM      4  C   UNL     1       5.536  -7.084   8.485  0.00  0.00    +0.077 A 
ATOM      5  C   UNL     1       4.411  -6.779   9.321  0.00  0.00    +0.048 A 
ATOM      6  C   UNL     1       3.251  -6.275   8.690  0.00  0.00    +0.116 A 
ATOM      7  N   UNL     1       3.229  -6.095   7.324  0.00  0.00    -0.223 NA
ATOM      8  C   UNL     1       4.332  -6.398   6.547  0.00  0.00    +0.220 A 
ATOM      9  N   UNL     1       4.330  -6.232   5.170  0.00  0.00    -0.283 N 
ATOM     36  H   UNL     1       5.166  -6.461   4.634  0.00  0.00    +0.155 HD
ATOM     37  N   UNL     1       5.452  -6.879   7.126  0.00  0.00    -0.214 NA
BRANCH   4   3
ATOM      1  C   UNL     1       8.264  -8.650  10.810  0.00  0.00    +0.020 A 
ATOM      2  C   UNL     1       6.991  -8.136  10.359  0.00  0.00    +0.013 A 
ATOM      3  C   UNL     1       6.831  -7.627   9.003  0.00  0.00    +0.019 A 
ATOM     38  C   UNL     1       7.988  -7.653   8.120  0.00  0.00    +0.120 A 
ATOM     39  N   UNL     1       9.202  -8.152   8.582  0.00  0.00    -0.263 NA
ATOM     40  C   UNL     1       9.368  -8.643   9.886  0.00  0.00    +0.111 A 
ENDBRANCH   4   3
ENDBRANCH  10   9
BRANCH  12  13
ATOM     13  N   UNL     1       1.756  -2.408   3.299  0.00  0.00    -0.281 N 
ATOM     14  C   UNL     1       1.609  -1.368   4.202  0.00  0.00    +0.248 C 
ATOM     30  O   UNL     1       1.383  -1.515   5.394  0.00  0.00    -0.270 OA
ATOM     31  H   UNL     1       1.745  -2.149   2.312  0.00  0.00    +0.155 HD
BRANCH  14  15
ATOM     15  C   UNL     1       1.714   0.039   3.708  0.00  0.00    +0.037 A 
ATOM     16  C   UNL     1       2.506   0.369   2.520  0.00  0.00    +0.013 A 
ATOM     17  C   UNL     1       2.605   1.736   2.074  0.00  0.00    +0.005 A 
ATOM     18  C   UNL     1       1.907   2.784   2.816  0.00  0.00    -0.033 A 
ATOM     28  C   UNL     1       1.124   2.427   3.988  0.00  0.00    +0.005 A 
ATOM     29  C   UNL     1       1.026   1.088   4.429  0.00  0.00    +0.013 A 
BRANCH  18  19
ATOM     19  C   UNL     1       1.974   4.272   2.425  0.00  0.00    +0.119 C 
BRANCH  19  20
ATOM     20  N   UNL     1       3.177   5.041   2.863  0.00  0.00    -0.302 NA
ATOM     21  C   UNL     1       3.129   5.381   4.355  0.00  0.00    +0.066 C 
ATOM     22  C   UNL     1       4.405   6.166   4.801  0.00  0.00    -0.064 C 
ATOM     23  N   UNL     1       4.539   7.437   3.960  0.00  0.00    +0.379 N 
ATOM     24  C   UNL     1       5.706   8.206   4.416  0.00  0.00    -0.096 C 
ATOM     25  H   UNL     1       3.632   8.059   4.140  0.00  0.00    -0.082 HD
ATOM     26  C   UNL     1       4.585   7.107   2.475  0.00  0.00    -0.064 C 
ATOM     27  C   UNL     1       3.326   6.302   2.048  0.00  0.00    +0.066 C 
ENDBRANCH  19  20
ENDBRANCH  18  19
ENDBRANCH  14  15
ENDBRANCH  12  13
TORSDOF 6
ENDMDL
MODEL 2
REMARK VINA RESULT:     -10.9      1.773      2.152
REMARK  Name = C:\Users\Docking\Desktop\test protocol\1iep_ligandH.pdb
REMARK  8 active torsions:
REMARK  status: ('A' for Active; 'I' for Inactive)
REMARK    1  A    between atoms: _5  and  _11
REMARK    2  A    between atoms: _19  and  _21
REMARK    3  A    between atoms: _22  and  _66
REMARK    4  A    between atoms: _27  and  _30
REMARK    5  A    between atoms: _32  and  _33
REMARK    6  A    between atoms: _38  and  _43
REMARK    7  A    between atoms: _43  and  _46
REMARK    8  A    between atoms: _53  and  _55
REMARK                            x       y       z     vdW  Elec       q    Type
REMARK                         _______ _______ _______ _____ _____    ______ ____
ROOT
ATOM     10  C   UNL     1       3.331  -6.150   5.162  0.00  0.00    +0.038 A 
ATOM     11  C   UNL     1       3.112  -4.758   5.006  0.00  0.00    +0.047 A 
ATOM     12  C   UNL     1       1.859  -4.249   4.470  0.00  0.00    +0.035 A 
ATOM     32  C   UNL     1       0.850  -5.187   4.105  0.00  0.00    +0.024 A 
ATOM     33  C   UNL     1       1.056  -6.605   4.256  0.00  0.00    +0.007 A 
ATOM     34  C   UNL     1       2.291  -7.114   4.782  0.00  0.00    -0.029 A 
ATOM     35  C   UNL     1       2.460  -8.645   4.916  0.00  0.00    +0.045 C 
ENDROOT
BRANCH  10   9
ATOM      4  C   UNL     1       6.187  -7.338   8.832  0.00  0.00    +0.077 A 
ATOM      5  C   UNL     1       5.167  -7.045   9.798  0.00  0.00    +0.048 A 
ATOM      6  C   UNL     1       3.924  -6.584   9.309  0.00  0.00    +0.116 A 
ATOM      7  N   UNL     1       3.727  -6.431   7.953  0.00  0.00    -0.223 NA
ATOM      8  C   UNL     1       4.732  -6.722   7.049  0.00  0.00    +0.220 A 
ATOM      9  N   UNL     1       4.553  -6.584   5.682  0.00  0.00    -0.283 N 
ATOM     36  H   UNL     1       5.322  -6.801   5.048  0.00  0.00    +0.155 HD
ATOM     37  N   UNL     1       5.928  -7.162   7.491  0.00  0.00    -0.214 NA
BRANCH   4   3
ATOM      1  C   UNL     1       9.246  -8.724  10.838  0.00  0.00    +0.020 A 
ATOM      2  C   UNL     1       7.913  -8.249  10.543  0.00  0.00    +0.013 A 
ATOM      3  C   UNL     1       7.552  -7.837   9.193  0.00  0.00    +0.019 A 
ATOM     38  C   UNL     1       8.569  -7.918   8.156  0.00  0.00    +0.120 A 
ATOM     39  N   UNL     1       9.844  -8.378   8.470  0.00  0.00    -0.263 NA
ATOM     40  C   UNL     1      10.204  -8.776   9.766  0.00  0.00    +0.111 A 
ENDBRANCH   4   3
ENDBRANCH  10   9
BRANCH  12  13
ATOM     13  N   UNL     1       1.583  -2.846   4.281  0.00  0.00    -0.281 N 
ATOM     14  C   UNL     1       1.399  -2.167   3.087  0.00  0.00    +0.248 C 
ATOM     30  O   UNL     1       1.658  -2.626   1.985  0.00  0.00    -0.270 OA
ATOM     31  H   UNL     1       1.513  -2.286   5.130  0.00  0.00    +0.155 HD
BRANCH  14  15
ATOM     15  C   UNL     1       0.865  -0.772   3.125  0.00  0.00    +0.037 A 
ATOM     16  C   UNL     1       1.337   0.196   4.117  0.00  0.00    +0.013 A 
ATOM     17  C   UNL     1       0.792   1.531   4.142  0.00  0.00    +0.005 A 
ATOM     18  C   UNL     1      -0.231   1.905   3.169  0.00  0.00    -0.033 A 
ATOM     28  C   UNL     1      -0.678   0.925   2.192  0.00  0.00    +0.005 A 
ATOM     29  C   UNL     1      -0.147  -0.384   2.165  0.00  0.00    +0.013 A 
BRANCH  18  19
ATOM     19  C   UNL     1      -0.884   3.299   3.136  0.00  0.00    +0.119 C 
BRANCH  19  20
ATOM     20  N   UNL     1       0.019   4.480   3.276  0.00  0.00    -0.302 NA
ATOM     21  C   UNL     1      -0.763   5.791   3.397  0.00  0.00    +0.066 C 
ATOM     22  C   UNL     1       0.197   7.013   3.566  0.00  0.00    -0.064 C 
ATOM     23  N   UNL     1       1.162   7.067   2.381  0.00  0.00    +0.379 N 
ATOM     24  C   UNL     1       2.028   8.249   2.506  0.00  0.00    -0.096 C 
ATOM     25  H   UNL     1       0.554   7.190   1.454  0.00  0.00    -0.082 HD
ATOM     26  C   UNL     1       1.943   5.767   2.251  0.00  0.00    -0.064 C 
ATOM     27  C   UNL     1       0.979   4.555   2.114  0.00  0.00    +0.066 C 
ENDBRANCH  19  20
ENDBRANCH  18  19
ENDBRANCH  14  15
ENDBRANCH  12  13
TORSDOF 6
ENDMDL
MODEL 3
REMARK VINA RESULT:     -10.9      6.020     13.419
REMARK  Name = C:\Users\Docking\Desktop\test protocol\1iep_ligandH.pdb
REMARK  8 active torsions:
REMARK  status: ('A' for Active; 'I' for Inactive)
REMARK    1  A    between atoms: _5  and  _11
REMARK    2  A    between atoms: _19  and  _21
REMARK    3  A    between atoms: _22  and  _66
REMARK    4  A    between atoms: _27  and  _30
REMARK    5  A    between atoms: _32  and  _33
REMARK    6  A    between atoms: _38  and  _43
REMARK    7  A    between atoms: _43  and  _46
REMARK    8  A    between atoms: _53  and  _55
REMARK                            x       y       z     vdW  Elec       q    Type
REMARK                         _______ _______ _______ _____ _____    ______ ____
ROOT
ATOM     10  C   UNL     1       4.004  -6.081   6.626  0.00  0.00    +0.038 A 
ATOM     11  C   UNL     1       5.338  -6.558   6.685  0.00  0.00    +0.047 A 
ATOM     12  C   UNL     1       5.860  -7.188   7.887  0.00  0.00    +0.035 A 
ATOM     32  C   UNL     1       4.993  -7.319   9.012  0.00  0.00    +0.024 A 
ATOM     33  C   UNL     1       3.634  -6.838   8.969  0.00  0.00    +0.007 A 
ATOM     34  C   UNL     1       3.115  -6.213   7.786  0.00  0.00    -0.029 A 
ATOM     35  C   UNL     1       1.653  -5.711   7.800  0.00  0.00    +0.045 C 
ENDROOT
BRANCH  10   9
ATOM      4  C   UNL     1       1.768  -6.249   2.382  0.00  0.00    +0.077 A 
ATOM      5  C   UNL     1       1.494  -7.651   2.515  0.00  0.00    +0.048 A 
ATOM      6  C   UNL     1       1.951  -8.293   3.688  0.00  0.00    +0.116 A 
ATOM      7  N   UNL     1       2.631  -7.576   4.649  0.00  0.00    -0.223 NA
ATOM      8  C   UNL     1       2.881  -6.226   4.488  0.00  0.00    +0.220 A 
ATOM      9  N   UNL     1       3.555  -5.484   5.445  0.00  0.00    -0.283 N 
ATOM     36  H   UNL     1       3.726  -4.491   5.286  0.00  0.00    +0.155 HD
ATOM     37  N   UNL     1       2.455  -5.590   3.376  0.00  0.00    -0.214 NA
BRANCH   4   3
ATOM      1  C   UNL     1       0.749  -3.242   0.097  0.00  0.00    +0.020 A 
ATOM      2  C   UNL     1       1.157  -3.987   1.266  0.00  0.00    +0.013 A 
ATOM      3  C   UNL     1       1.347  -5.430   1.202  0.00  0.00    +0.019 A 
ATOM     38  C   UNL     1       1.115  -6.095  -0.072  0.00  0.00    +0.120 A 
ATOM     39  N   UNL     1       0.721  -5.353  -1.181  0.00  0.00    -0.263 NA
ATOM     40  C   UNL     1       0.534  -3.963  -1.130  0.00  0.00    +0.111 A 
ENDBRANCH   4   3
ENDBRANCH  10   9
BRANCH  12  13
ATOM     13  N   UNL     1       7.208  -7.685   8.009  0.00  0.00    -0.281 N 
ATOM     14  C   UNL     1       7.992  -7.750   9.149  0.00  0.00    +0.248 C 
ATOM     30  O   UNL     1       7.727  -7.192  10.203  0.00  0.00    -0.270 OA
ATOM     31  H   UNL     1       7.636  -8.029   7.149  0.00  0.00    +0.155 HD
BRANCH  14  15
ATOM     15  C   UNL     1       9.261  -8.539   9.108  0.00  0.00    +0.037 A 
ATOM     16  C   UNL     1       9.814  -9.153  10.318  0.00  0.00    +0.013 A 
ATOM     17  C   UNL     1      11.048  -9.894  10.254  0.00  0.00    +0.005 A 
ATOM     18  C   UNL     1      11.738 -10.026   8.973  0.00  0.00    -0.033 A 
ATOM     28  C   UNL     1      11.165  -9.412   7.787  0.00  0.00    +0.005 A 
ATOM     29  C   UNL     1       9.956  -8.684   7.846  0.00  0.00    +0.013 A 
BRANCH  18  19
ATOM     19  C   UNL     1      13.072 -10.781   8.816  0.00  0.00    +0.119 C 
BRANCH  19  20
ATOM     20  N   UNL     1      13.985 -10.809   9.997  0.00  0.00    -0.302 NA
ATOM     21  C   UNL     1      14.023  -9.463  10.725  0.00  0.00    +0.066 C 
ATOM     22  C   UNL     1      14.967  -9.516  11.971  0.00  0.00    -0.064 C 
ATOM     23  N   UNL     1      16.370  -9.932  11.527  0.00  0.00    +0.379 N 
ATOM     24  C   UNL     1      17.273  -9.927  12.687  0.00  0.00    -0.096 C 
ATOM     25  H   UNL     1      16.738  -9.164  10.808  0.00  0.00    -0.082 HD
ATOM     26  C   UNL     1      16.341 -11.268  10.799  0.00  0.00    -0.064 C 
ATOM     27  C   UNL     1      15.378 -11.213   9.580  0.00  0.00    +0.066 C 
ENDBRANCH  19  20
ENDBRANCH  18  19
ENDBRANCH  14  15
ENDBRANCH  12  13
TORSDOF 6
ENDMDL
MODEL 4
REMARK VINA RESULT:     -10.7      1.340      1.797
REMARK  Name = C:\Users\Docking\Desktop\test protocol\1iep_ligandH.pdb
REMARK  8 active torsions:
REMARK  status: ('A' for Active; 'I' for Inactive)
REMARK    1  A    between atoms: _5  and  _11
REMARK    2  A    between atoms: _19  and  _21
REMARK    3  A    between atoms: _22  and  _66
REMARK    4  A    between atoms: _27  and  _30
REMARK    5  A    between atoms: _32  and  _33
REMARK    6  A    between atoms: _38  and  _43
REMARK    7  A    between atoms: _43  and  _46
REMARK    8  A    between atoms: _53  and  _55
REMARK                            x       y       z     vdW  Elec       q    Type
REMARK                         _______ _______ _______ _____ _____    ______ ____
ROOT
ATOM     10  C   UNL     1       3.212  -5.688   4.619  0.00  0.00    +0.038 A 
ATOM     11  C   UNL     1       3.087  -4.305   4.331  0.00  0.00    +0.047 A 
ATOM     12  C   UNL     1       1.918  -3.783   3.639  0.00  0.00    +0.035 A 
ATOM     32  C   UNL     1       0.894  -4.698   3.257  0.00  0.00    +0.024 A 
ATOM     33  C   UNL     1       1.005  -6.108   3.541  0.00  0.00    +0.007 A 
ATOM     34  C   UNL     1       2.157  -6.629   4.221  0.00  0.00    -0.029 A 
ATOM     35  C   UNL     1       2.226  -8.149   4.493  0.00  0.00    +0.045 C 
ENDROOT
BRANCH  10   9
ATOM      4  C   UNL     1       5.510  -7.137   8.576  0.00  0.00    +0.077 A 
ATOM      5  C   UNL     1       4.341  -6.963   9.389  0.00  0.00    +0.048 A 
ATOM      6  C   UNL     1       3.171  -6.493   8.752  0.00  0.00    +0.116 A 
ATOM      7  N   UNL     1       3.180  -6.220   7.402  0.00  0.00    -0.223 NA
ATOM      8  C   UNL     1       4.325  -6.396   6.646  0.00  0.00    +0.220 A 
ATOM      9  N   UNL     1       4.355  -6.135   5.285  0.00  0.00    -0.283 N 
ATOM     36  H   UNL     1       5.221  -6.271   4.765  0.00  0.00    +0.155 HD
ATOM     37  N   UNL     1       5.456  -6.843   7.231  0.00  0.00    -0.214 NA
BRANCH   4   3
ATOM      1  C   UNL     1       8.338  -8.392  10.969  0.00  0.00    +0.020 A 
ATOM      2  C   UNL     1       7.052  -7.917  10.512  0.00  0.00    +0.013 A 
ATOM      3  C   UNL     1       6.822  -7.629   9.102  0.00  0.00    +0.019 A 
ATOM     38  C   UNL     1       7.922  -7.835   8.173  0.00  0.00    +0.120 A 
ATOM     39  N   UNL     1       9.150  -8.291   8.641  0.00  0.00    -0.263 NA
ATOM     40  C   UNL     1       9.384  -8.570   9.996  0.00  0.00    +0.111 A 
ENDBRANCH   4   3
ENDBRANCH  10   9
BRANCH  12  13
ATOM     13  N   UNL     1       1.740  -2.390   3.313  0.00  0.00    -0.281 N 
ATOM     14  C   UNL     1       1.574  -1.326   4.184  0.00  0.00    +0.248 C 
ATOM     30  O   UNL     1       1.340  -1.440   5.377  0.00  0.00    -0.270 OA
ATOM     31  H   UNL     1       1.735  -2.161   2.319  0.00  0.00    +0.155 HD
BRANCH  14  15
ATOM     15  C   UNL     1       1.668   0.067   3.648  0.00  0.00    +0.037 A 
ATOM     16  C   UNL     1       1.335   1.225   4.481  0.00  0.00    +0.013 A 
ATOM     17  C   UNL     1       1.418   2.556   3.934  0.00  0.00    +0.005 A 
ATOM     18  C   UNL     1       1.838   2.736   2.547  0.00  0.00    -0.033 A 
ATOM     28  C   UNL     1       2.169   1.570   1.745  0.00  0.00    +0.005 A 
ATOM     29  C   UNL     1       2.087   0.263   2.277  0.00  0.00    +0.013 A 
BRANCH  18  19
ATOM     19  C   UNL     1       1.935   4.118   1.875  0.00  0.00    +0.119 C 
BRANCH  19  20
ATOM     20  N   UNL     1       1.630   5.312   2.719  0.00  0.00    -0.302 NA
ATOM     21  C   UNL     1       0.123   5.550   2.853  0.00  0.00    +0.066 C 
ATOM     22  C   UNL     1      -0.179   6.789   3.758  0.00  0.00    -0.064 C 
ATOM     23  N   UNL     1       0.514   8.022   3.176  0.00  0.00    +0.379 N 
ATOM     24  C   UNL     1       0.184   9.200   3.992  0.00  0.00    -0.096 C 
ATOM     25  H   UNL     1       0.101   8.192   2.155  0.00  0.00    -0.082 HD
ATOM     26  C   UNL     1       2.012   7.793   3.036  0.00  0.00    -0.064 C 
ATOM     27  C   UNL     1       2.301   6.543   2.160  0.00  0.00    +0.066 C 
ENDBRANCH  19  20
ENDBRANCH  18  19
ENDBRANCH  14  15
ENDBRANCH  12  13
TORSDOF 6
ENDMDL
MODEL 5
REMARK VINA RESULT:     -10.5      6.203     14.106
REMARK  Name = C:\Users\Docking\Desktop\test protocol\1iep_ligandH.pdb
REMARK  8 active torsions:
REMARK  status: ('A' for Active; 'I' for Inactive)
REMARK    1  A    between atoms: _5  and  _11
REMARK    2  A    between atoms: _19  and  _21
REMARK    3  A    between atoms: _22  and  _66
REMARK    4  A    between atoms: _27  and  _30
REMARK    5  A    between atoms: _32  and  _33
REMARK    6  A    between atoms: _38  and  _43
REMARK    7  A    between atoms: _43  and  _46
REMARK    8  A    between atoms: _53  and  _55
REMARK                            x       y       z     vdW  Elec       q    Type
REMARK                         _______ _______ _______ _____ _____    ______ ____
ROOT
ATOM     10  C   UNL     1       4.546  -6.320   7.004  0.00  0.00    +0.038 A 
ATOM     11  C   UNL     1       5.893  -6.761   7.053  0.00  0.00    +0.047 A 
ATOM     12  C   UNL     1       6.457  -7.324   8.270  0.00  0.00    +0.035 A 
ATOM     32  C   UNL     1       5.619  -7.426   9.419  0.00  0.00    +0.024 A 
ATOM     33  C   UNL     1       4.248  -6.981   9.387  0.00  0.00    +0.007 A 
ATOM     34  C   UNL     1       3.687  -6.423   8.190  0.00  0.00    -0.029 A 
ATOM     35  C   UNL     1       2.213  -5.957   8.216  0.00  0.00    +0.045 C 
ENDROOT
BRANCH  10   9
ATOM      4  C   UNL     1       1.975  -6.646   2.965  0.00  0.00    +0.077 A 
ATOM      5  C   UNL     1       1.597  -8.001   3.245  0.00  0.00    +0.048 A 
ATOM      6  C   UNL     1       2.091  -8.580   4.435  0.00  0.00    +0.116 A 
ATOM      7  N   UNL     1       2.902  -7.849   5.276  0.00  0.00    -0.223 NA
ATOM      8  C   UNL     1       3.249  -6.544   4.975  0.00  0.00    +0.220 A 
ATOM      9  N   UNL     1       4.057  -5.787   5.810  0.00  0.00    -0.283 N 
ATOM     36  H   UNL     1       4.296  -4.831   5.549  0.00  0.00    +0.155 HD
ATOM     37  N   UNL     1       2.791  -5.969   3.843  0.00  0.00    -0.214 NA
BRANCH   4   3
ATOM      1  C   UNL     1       0.950  -5.752  -0.703  0.00  0.00    +0.020 A 
ATOM      2  C   UNL     1       1.383  -6.522   0.440  0.00  0.00    +0.013 A 
ATOM      3  C   UNL     1       1.531  -5.895   1.748  0.00  0.00    +0.019 A 
ATOM     38  C   UNL     1       1.229  -4.477   1.866  0.00  0.00    +0.120 A 
ATOM     39  N   UNL     1       0.816  -3.760   0.747  0.00  0.00    -0.263 NA
ATOM     40  C   UNL     1       0.671  -4.352  -0.516  0.00  0.00    +0.111 A 
ENDBRANCH   4   3
ENDBRANCH  10   9
BRANCH  12  13
ATOM     13  N   UNL     1       7.820  -7.781   8.382  0.00  0.00    -0.281 N 
ATOM     14  C   UNL     1       8.357  -8.635   9.331  0.00  0.00    +0.248 C 
ATOM     30  O   UNL     1       7.789  -8.969  10.361  0.00  0.00    -0.270 OA
ATOM     31  H   UNL     1       8.468  -7.432   7.675  0.00  0.00    +0.155 HD
BRANCH  14  15
ATOM     15  C   UNL     1       9.729  -9.186   9.113  0.00  0.00    +0.037 A 
ATOM     16  C   UNL     1       9.971 -10.258   8.144  0.00  0.00    +0.013 A 
ATOM     17  C   UNL     1      11.302 -10.784   7.965  0.00  0.00    +0.005 A 
ATOM     18  C   UNL     1      12.401 -10.237   8.757  0.00  0.00    -0.033 A 
ATOM     28  C   UNL     1      12.133  -9.170   9.707  0.00  0.00    +0.005 A 
ATOM     29  C   UNL     1      10.830  -8.653   9.886  0.00  0.00    +0.013 A 
BRANCH  18  19
ATOM     19  C   UNL     1      13.848 -10.752   8.647  0.00  0.00    +0.119 C 
BRANCH  19  20
ATOM     20  N   UNL     1      14.038 -12.216   8.427  0.00  0.00    -0.302 NA
ATOM     21  C   UNL     1      14.925 -12.848   9.504  0.00  0.00    +0.066 C 
ATOM     22  C   UNL     1      15.095 -14.385   9.271  0.00  0.00    -0.064 C 
ATOM     23  N   UNL     1      15.678 -14.626   7.878  0.00  0.00    +0.379 N 
ATOM     24  C   UNL     1      15.893 -16.067   7.679  0.00  0.00    -0.096 C 
ATOM     25  H   UNL     1      16.674 -14.127   7.838  0.00  0.00    -0.082 HD
ATOM     26  C   UNL     1      14.804 -13.999   6.802  0.00  0.00    -0.064 C 
ATOM     27  C   UNL     1      14.617 -12.477   7.059  0.00  0.00    +0.066 C 
ENDBRANCH  19  20
ENDBRANCH  18  19
ENDBRANCH  14  15
ENDBRANCH  12  13
TORSDOF 6
ENDMDL
