MODEL 1
REMARK VINA RESULT:     -11.1      0.000      0.000
REMARK  Name = C:\Users\Docking\Desktop\test protocol\1iep_ligandH.pdb
REMARK  8 active torsions:
REMARK  status: ('A' for Active; 'I' for Inactive)
REMARK    1  A    between atoms: _5  and  _11
REMARK    2  A    between atoms: _19  and  _21
REMARK    3  A    between atoms: _22  and  _66
REMARK    4  A    between atoms: _27  and  _30
REMARK    5  A    between atoms: _32  and  _33
REMARK    6  A    between atoms: _38  and  _43
REMARK    7  A    between atoms: _43  and  _46
REMARK    8  A    between atoms: _53  and  _55
REMARK                            x       y       z     vdW  Elec       q    Type
REMARK                         _______ _______ _______ _____ _____    ______ ____
ROOT
ATOM     10  C   UNL     1     -11.523  -5.505 -19.611  0.00  0.00    +0.038 A 
ATOM     11  C   UNL     1     -11.576  -4.134 -19.969  0.00  0.00    +0.047 A 
ATOM     12  C   UNL     1     -12.776  -3.554 -20.553  0.00  0.00    +0.035 A 
ATOM     32  C   UNL     1     -13.905  -4.400 -20.756  0.00  0.00    +0.024 A 
ATOM     33  C   UNL     1     -13.868  -5.796 -20.398  0.00  0.00    +0.007 A 
ATOM     34  C   UNL     1     -12.687  -6.374 -19.824  0.00  0.00    -0.029 A 
ATOM     35  C   UNL     1     -12.702  -7.878 -19.466  0.00  0.00    +0.045 C 
ENDROOT
BRANCH  10   9
ATOM      4  C   UNL     1      -8.823  -6.768 -15.850  0.00  0.00    +0.077 A 
ATOM      5  C   UNL     1      -9.833  -6.365 -14.914  0.00  0.00    +0.048 A 
ATOM      6  C   UNL     1     -11.030  -5.831 -15.441  0.00  0.00    +0.116 A 
ATOM      7  N   UNL     1     -11.194  -5.714 -16.804  0.00  0.00    -0.223 NA
ATOM      8  C   UNL     1     -10.199  -6.111 -17.679  0.00  0.00    +0.220 A 
ATOM      9  N   UNL     1     -10.346  -6.009 -19.054  0.00  0.00    -0.283 N 
ATOM     36  H   UNL     1      -9.586  -6.306 -19.665  0.00  0.00    +0.155 HD
ATOM     37  N   UNL     1      -9.046  -6.622 -17.201  0.00  0.00    -0.214 NA
BRANCH   4   3
ATOM      1  C   UNL     1      -5.942  -8.395 -13.763  0.00  0.00    +0.020 A 
ATOM      2  C   UNL     1      -7.232  -7.838 -14.100  0.00  0.00    +0.013 A 
ATOM      3  C   UNL     1      -7.505  -7.354 -15.447  0.00  0.00    +0.019 A 
ATOM     38  C   UNL     1      -6.444  -7.450 -16.438  0.00  0.00    +0.120 A 
ATOM     39  N   UNL     1      -5.211  -7.990 -16.084  0.00  0.00    -0.263 NA
ATOM     40  C   UNL     1      -4.936  -8.457 -14.791  0.00  0.00    +0.111 A 
ENDBRANCH   4   3
ENDBRANCH  10   9
BRANCH  12  13
ATOM     13  N   UNL     1     -12.885  -2.170 -20.944  0.00  0.00    -0.281 N 
ATOM     14  C   UNL     1     -12.794  -1.048 -20.138  0.00  0.00    +0.248 C 
ATOM     30  O   UNL     1     -12.817  -1.071 -18.916  0.00  0.00    -0.270 OA
ATOM     31  H   UNL     1     -13.049  -1.998 -21.936  0.00  0.00    +0.155 HD
BRANCH  14  15
ATOM     15  C   UNL     1     -12.674   0.296 -20.781  0.00  0.00    +0.037 A 
ATOM     16  C   UNL     1     -13.164   1.505 -20.114  0.00  0.00    +0.013 A 
ATOM     17  C   UNL     1     -13.051   2.786 -20.764  0.00  0.00    +0.005 A 
ATOM     18  C   UNL     1     -12.444   2.865 -22.091  0.00  0.00    -0.033 A 
ATOM     28  C   UNL     1     -11.962   1.651 -22.728  0.00  0.00    +0.005 A 
ATOM     29  C   UNL     1     -12.071   0.393 -22.094  0.00  0.00    +0.013 A 
BRANCH  18  19
ATOM     19  C   UNL     1     -12.302   4.187 -22.868  0.00  0.00    +0.119 C 
BRANCH  19  20
ATOM     20  N   UNL     1     -11.264   5.151 -22.394  0.00  0.00    -0.302 NA
ATOM     21  C   UNL     1     -10.089   4.442 -21.716  0.00  0.00    +0.066 C 
ATOM     22  C   UNL     1      -9.002   5.463 -21.246  0.00  0.00    -0.064 C 
ATOM     23  N   UNL     1      -9.639   6.482 -20.300  0.00  0.00    +0.379 N 
ATOM     24  C   UNL     1      -8.608   7.409 -19.811  0.00  0.00    -0.096 C 
ATOM     25  H   UNL     1     -10.037   5.924 -19.421  0.00  0.00    -0.082 HD
ATOM     26  C   UNL     1     -10.811   7.190 -20.966  0.00  0.00    -0.064 C 
ATOM     27  C   UNL     1     -11.871   6.164 -21.455  0.00  0.00    +0.066 C 
ENDBRANCH  19  20
ENDBRANCH  18  19
ENDBRANCH  14  15
ENDBRANCH  12  13
TORSDOF 6
ENDMDL
MODEL 2
REMARK VINA RESULT:     -10.9      1.817      2.260
REMARK  Name = C:\Users\Docking\Desktop\test protocol\1iep_ligandH.pdb
REMARK  8 active torsions:
REMARK  status: ('A' for Active; 'I' for Inactive)
REMARK    1  A    between atoms: _5  and  _11
REMARK    2  A    between atoms: _19  and  _21
REMARK    3  A    between atoms: _22  and  _66
REMARK    4  A    between atoms: _27  and  _30
REMARK    5  A    between atoms: _32  and  _33
REMARK    6  A    between atoms: _38  and  _43
REMARK    7  A    between atoms: _43  and  _46
REMARK    8  A    between atoms: _53  and  _55
REMARK                            x       y       z     vdW  Elec       q    Type
REMARK                         _______ _______ _______ _____ _____    ______ ____
ROOT
ATOM     10  C   UNL     1     -11.321  -6.170 -19.194  0.00  0.00    +0.038 A 
ATOM     11  C   UNL     1     -11.519  -4.777 -19.369  0.00  0.00    +0.047 A 
ATOM     12  C   UNL     1     -12.785  -4.252 -19.856  0.00  0.00    +0.035 A 
ATOM     32  C   UNL     1     -13.830  -5.175 -20.151  0.00  0.00    +0.024 A 
ATOM     33  C   UNL     1     -13.646  -6.594 -19.980  0.00  0.00    +0.007 A 
ATOM     34  C   UNL     1     -12.398  -7.118 -19.503  0.00  0.00    -0.029 A 
ATOM     35  C   UNL     1     -12.255  -8.650 -19.344  0.00  0.00    +0.045 C 
ENDROOT
BRANCH  10   9
ATOM      4  C   UNL     1      -8.215  -7.071 -15.648  0.00  0.00    +0.077 A 
ATOM      5  C   UNL     1      -9.121  -6.580 -14.650  0.00  0.00    +0.048 A 
ATOM      6  C   UNL     1     -10.373  -6.098 -15.091  0.00  0.00    +0.116 A 
ATOM      7  N   UNL     1     -10.686  -6.111 -16.433  0.00  0.00    -0.223 NA
ATOM      8  C   UNL     1      -9.788  -6.590 -17.370  0.00  0.00    +0.220 A 
ATOM      9  N   UNL     1     -10.085  -6.619 -18.724  0.00  0.00    -0.283 N 
ATOM     36  H   UNL     1      -9.393  -6.973 -19.384  0.00  0.00    +0.155 HD
ATOM     37  N   UNL     1      -8.585  -7.054 -16.974  0.00  0.00    -0.214 NA
BRANCH   4   3
ATOM      1  C   UNL     1      -5.141  -8.586 -13.762  0.00  0.00    +0.020 A 
ATOM      2  C   UNL     1      -6.466  -8.067 -14.008  0.00  0.00    +0.013 A 
ATOM      3  C   UNL     1      -6.855  -7.616 -15.338  0.00  0.00    +0.019 A 
ATOM     38  C   UNL     1      -5.871  -7.705 -16.406  0.00  0.00    +0.120 A 
ATOM     39  N   UNL     1      -4.601  -8.208 -16.139  0.00  0.00    -0.263 NA
ATOM     40  C   UNL     1      -4.216  -8.643 -14.863  0.00  0.00    +0.111 A 
ENDBRANCH   4   3
ENDBRANCH  10   9
BRANCH  12  13
ATOM     13  N   UNL     1     -13.041  -2.848 -20.061  0.00  0.00    -0.281 N 
ATOM     14  C   UNL     1     -13.111  -2.162 -21.263  0.00  0.00    +0.248 C 
ATOM     30  O   UNL     1     -12.750  -2.614 -22.339  0.00  0.00    -0.270 OA
ATOM     31  H   UNL     1     -13.189  -2.292 -19.219  0.00  0.00    +0.155 HD
BRANCH  14  15
ATOM     15  C   UNL     1     -13.645  -0.766 -21.268  0.00  0.00    +0.037 A 
ATOM     16  C   UNL     1     -14.744  -0.376 -22.155  0.00  0.00    +0.013 A 
ATOM     17  C   UNL     1     -15.229   0.982 -22.152  0.00  0.00    +0.005 A 
ATOM     18  C   UNL     1     -14.615   1.959 -21.255  0.00  0.00    -0.033 A 
ATOM     28  C   UNL     1     -13.531   1.544 -20.382  0.00  0.00    +0.005 A 
ATOM     29  C   UNL     1     -13.052   0.215 -20.383  0.00  0.00    +0.013 A 
BRANCH  18  19
ATOM     19  C   UNL     1     -15.055   3.434 -21.200  0.00  0.00    +0.119 C 
BRANCH  19  20
ATOM     20  N   UNL     1     -14.000   4.470 -21.411  0.00  0.00    -0.302 NA
ATOM     21  C   UNL     1     -14.510   5.881 -21.101  0.00  0.00    +0.066 C 
ATOM     22  C   UNL     1     -13.387   6.949 -21.304  0.00  0.00    -0.064 C 
ATOM     23  N   UNL     1     -12.863   6.867 -22.739  0.00  0.00    +0.379 N 
ATOM     24  C   UNL     1     -11.848   7.909 -22.951  0.00  0.00    -0.096 C 
ATOM     25  H   UNL     1     -13.716   7.081 -23.424  0.00  0.00    -0.082 HD
ATOM     26  C   UNL     1     -12.356   5.467 -23.057  0.00  0.00    -0.064 C 
ATOM     27  C   UNL     1     -13.471   4.409 -22.823  0.00  0.00    +0.066 C 
ENDBRANCH  19  20
ENDBRANCH  18  19
ENDBRANCH  14  15
ENDBRANCH  12  13
TORSDOF 6
ENDMDL
MODEL 3
REMARK VINA RESULT:     -10.9      3.121     12.592
REMARK  Name = C:\Users\Docking\Desktop\test protocol\1iep_ligandH.pdb
REMARK  8 active torsions:
REMARK  status: ('A' for Active; 'I' for Inactive)
REMARK    1  A    between atoms: _5  and  _11
REMARK    2  A    between atoms: _19  and  _21
REMARK    3  A    between atoms: _22  and  _66
REMARK    4  A    between atoms: _27  and  _30
REMARK    5  A    between atoms: _32  and  _33
REMARK    6  A    between atoms: _38  and  _43
REMARK    7  A    between atoms: _43  and  _46
REMARK    8  A    between atoms: _53  and  _55
REMARK                            x       y       z     vdW  Elec       q    Type
REMARK                         _______ _______ _______ _____ _____    ______ ____
ROOT
ATOM     10  C   UNL     1     -12.438  -4.923 -19.149  0.00  0.00    +0.038 A 
ATOM     11  C   UNL     1     -11.222  -5.110 -18.443  0.00  0.00    +0.047 A 
ATOM     12  C   UNL     1     -10.660  -6.437 -18.252  0.00  0.00    +0.035 A 
ATOM     32  C   UNL     1     -11.361  -7.553 -18.795  0.00  0.00    +0.024 A 
ATOM     33  C   UNL     1     -12.599  -7.381 -19.514  0.00  0.00    +0.007 A 
ATOM     34  C   UNL     1     -13.160  -6.074 -19.704  0.00  0.00    -0.029 A 
ATOM     35  C   UNL     1     -14.493  -5.950 -20.478  0.00  0.00    +0.045 C 
ENDROOT
BRANCH  10   9
ATOM      4  C   UNL     1     -13.502  -1.090 -21.836  0.00  0.00    +0.077 A 
ATOM      5  C   UNL     1     -13.007  -1.715 -23.028  0.00  0.00    +0.048 A 
ATOM      6  C   UNL     1     -12.480  -3.020 -22.906  0.00  0.00    +0.116 A 
ATOM      7  N   UNL     1     -12.455  -3.645 -21.678  0.00  0.00    -0.223 NA
ATOM      8  C   UNL     1     -12.940  -3.013 -20.547  0.00  0.00    +0.220 A 
ATOM      9  N   UNL     1     -12.932  -3.625 -19.303  0.00  0.00    -0.283 N 
ATOM     36  H   UNL     1     -13.292  -3.123 -18.492  0.00  0.00    +0.155 HD
ATOM     37  N   UNL     1     -13.447  -1.766 -20.637  0.00  0.00    -0.214 NA
BRANCH   4   3
ATOM      1  C   UNL     1     -15.625   2.082 -22.690  0.00  0.00    +0.020 A 
ATOM      2  C   UNL     1     -15.086   0.744 -22.766  0.00  0.00    +0.013 A 
ATOM      3  C   UNL     1     -14.093   0.285 -21.803  0.00  0.00    +0.019 A 
ATOM     38  C   UNL     1     -13.663   1.213 -20.768  0.00  0.00    +0.120 A 
ATOM     39  N   UNL     1     -14.198   2.496 -20.720  0.00  0.00    -0.263 NA
ATOM     40  C   UNL     1     -15.154   2.949 -21.642  0.00  0.00    +0.111 A 
ENDBRANCH   4   3
ENDBRANCH  10   9
BRANCH  12  13
ATOM     13  N   UNL     1      -9.433  -6.690 -17.538  0.00  0.00    -0.281 N 
ATOM     14  C   UNL     1      -9.222  -6.656 -16.169  0.00  0.00    +0.248 C 
ATOM     30  O   UNL     1     -10.011  -6.192 -15.359  0.00  0.00    -0.270 OA
ATOM     31  H   UNL     1      -8.621  -6.921 -18.111  0.00  0.00    +0.155 HD
BRANCH  14  15
ATOM     15  C   UNL     1      -7.944  -7.204 -15.621  0.00  0.00    +0.037 A 
ATOM     16  C   UNL     1      -6.768  -7.387 -16.476  0.00  0.00    +0.013 A 
ATOM     17  C   UNL     1      -5.552  -7.934 -15.926  0.00  0.00    +0.005 A 
ATOM     18  C   UNL     1      -5.507  -8.299 -14.513  0.00  0.00    -0.033 A 
ATOM     28  C   UNL     1      -6.686  -8.102 -13.686  0.00  0.00    +0.005 A 
ATOM     29  C   UNL     1      -7.880  -7.568 -14.222  0.00  0.00    +0.013 A 
BRANCH  18  19
ATOM     19  C   UNL     1      -4.259  -8.909 -13.846  0.00  0.00    +0.119 C 
BRANCH  19  20
ATOM     20  N   UNL     1      -3.149  -9.345 -14.744  0.00  0.00    -0.302 NA
ATOM     21  C   UNL     1      -3.444 -10.691 -15.412  0.00  0.00    +0.066 C 
ATOM     22  C   UNL     1      -2.282 -11.121 -16.365  0.00  0.00    -0.064 C 
ATOM     23  N   UNL     1      -0.975 -11.185 -15.574  0.00  0.00    +0.379 N 
ATOM     24  C   UNL     1       0.109 -11.645 -16.454  0.00  0.00    -0.096 C 
ATOM     25  H   UNL     1      -1.103 -11.946 -14.769  0.00  0.00    -0.082 HD
ATOM     26  C   UNL     1      -0.674  -9.851 -14.904  0.00  0.00    -0.064 C 
ATOM     27  C   UNL     1      -1.848  -9.419 -13.982  0.00  0.00    +0.066 C 
ENDBRANCH  19  20
ENDBRANCH  18  19
ENDBRANCH  14  15
ENDBRANCH  12  13
TORSDOF 6
ENDMDL
MODEL 4
REMARK VINA RESULT:     -10.6      6.124     11.902
REMARK  Name = C:\Users\Docking\Desktop\test protocol\1iep_ligandH.pdb
REMARK  8 active torsions:
REMARK  status: ('A' for Active; 'I' for Inactive)
REMARK    1  A    between atoms: _5  and  _11
REMARK    2  A    between atoms: _19  and  _21
REMARK    3  A    between atoms: _22  and  _66
REMARK    4  A    between atoms: _27  and  _30
REMARK    5  A    between atoms: _32  and  _33
REMARK    6  A    between atoms: _38  and  _43
REMARK    7  A    between atoms: _43  and  _46
REMARK    8  A    between atoms: _53  and  _55
REMARK                            x       y       z     vdW  Elec       q    Type
REMARK                         _______ _______ _______ _____ _____    ______ ____
ROOT
ATOM     10  C   UNL     1      -1.608  -9.672 -15.469  0.00  0.00    +0.038 A 
ATOM     11  C   UNL     1      -2.904  -9.332 -15.933  0.00  0.00    +0.047 A 
ATOM     12  C   UNL     1      -3.912  -8.801 -15.028  0.00  0.00    +0.035 A 
ATOM     32  C   UNL     1      -3.563  -8.626 -13.657  0.00  0.00    +0.024 A 
ATOM     33  C   UNL     1      -2.250  -8.967 -13.169  0.00  0.00    +0.007 A 
ATOM     34  C   UNL     1      -1.253  -9.494 -14.056  0.00  0.00    -0.029 A 
ATOM     35  C   UNL     1       0.136  -9.848 -13.476  0.00  0.00    +0.045 C 
ENDROOT
BRANCH  10   9
ATOM      4  C   UNL     1       0.612 -13.315 -17.669  0.00  0.00    +0.077 A 
ATOM      5  C   UNL     1      -0.120 -14.293 -16.917  0.00  0.00    +0.048 A 
ATOM      6  C   UNL     1      -1.054 -13.817 -15.969  0.00  0.00    +0.116 A 
ATOM      7  N   UNL     1      -1.233 -12.462 -15.795  0.00  0.00    -0.223 NA
ATOM      8  C   UNL     1      -0.509 -11.545 -16.535  0.00  0.00    +0.220 A 
ATOM      9  N   UNL     1      -0.679 -10.178 -16.382  0.00  0.00    -0.283 N 
ATOM     36  H   UNL     1      -0.121  -9.535 -16.942  0.00  0.00    +0.155 HD
ATOM     37  N   UNL     1       0.389 -11.975 -17.446  0.00  0.00    -0.214 NA
BRANCH   4   3
ATOM      1  C   UNL     1       3.036 -13.116 -20.733  0.00  0.00    +0.020 A 
ATOM      2  C   UNL     1       2.047 -12.731 -19.752  0.00  0.00    +0.013 A 
ATOM      3  C   UNL     1       1.631 -13.661 -18.709  0.00  0.00    +0.019 A 
ATOM     38  C   UNL     1       2.240 -14.983 -18.687  0.00  0.00    +0.120 A 
ATOM     39  N   UNL     1       3.189 -15.325 -19.646  0.00  0.00    -0.263 NA
ATOM     40  C   UNL     1       3.596 -14.439 -20.655  0.00  0.00    +0.111 A 
ENDBRANCH   4   3
ENDBRANCH  10   9
BRANCH  12  13
ATOM     13  N   UNL     1      -5.247  -8.446 -15.439  0.00  0.00    -0.281 N 
ATOM     14  C   UNL     1      -6.274  -7.944 -14.657  0.00  0.00    +0.248 C 
ATOM     30  O   UNL     1      -6.266  -7.925 -13.435  0.00  0.00    -0.270 OA
ATOM     31  H   UNL     1      -5.461  -8.581 -16.427  0.00  0.00    +0.155 HD
BRANCH  14  15
ATOM     15  C   UNL     1      -7.493  -7.398 -15.328  0.00  0.00    +0.037 A 
ATOM     16  C   UNL     1      -7.521  -7.158 -16.773  0.00  0.00    +0.013 A 
ATOM     17  C   UNL     1      -8.703  -6.614 -17.393  0.00  0.00    +0.005 A 
ATOM     18  C   UNL     1      -9.869  -6.308 -16.567  0.00  0.00    -0.033 A 
ATOM     28  C   UNL     1      -9.815  -6.561 -15.137  0.00  0.00    +0.005 A 
ATOM     29  C   UNL     1      -8.658  -7.093 -14.525  0.00  0.00    +0.013 A 
BRANCH  18  19
ATOM     19  C   UNL     1     -11.165  -5.706 -17.140  0.00  0.00    +0.119 C 
BRANCH  19  20
ATOM     20  N   UNL     1     -11.385  -5.830 -18.612  0.00  0.00    -0.302 NA
ATOM     21  C   UNL     1     -11.597  -4.468 -19.278  0.00  0.00    +0.066 C 
ATOM     22  C   UNL     1     -11.803  -4.615 -20.821  0.00  0.00    -0.064 C 
ATOM     23  N   UNL     1     -12.991  -5.540 -21.089  0.00  0.00    +0.379 N 
ATOM     24  C   UNL     1     -13.223  -5.634 -22.538  0.00  0.00    -0.096 C 
ATOM     25  H   UNL     1     -13.893  -5.072 -20.631  0.00  0.00    -0.082 HD
ATOM     26  C   UNL     1     -12.789  -6.896 -20.428  0.00  0.00    -0.064 C 
ATOM     27  C   UNL     1     -12.556  -6.736 -18.899  0.00  0.00    +0.066 C 
ENDBRANCH  19  20
ENDBRANCH  18  19
ENDBRANCH  14  15
ENDBRANCH  12  13
TORSDOF 6
ENDMDL
MODEL 5
REMARK VINA RESULT:     -10.5      2.772     12.306
REMARK  Name = C:\Users\Docking\Desktop\test protocol\1iep_ligandH.pdb
REMARK  8 active torsions:
REMARK  status: ('A' for Active; 'I' for Inactive)
REMARK    1  A    between atoms: _5  and  _11
REMARK    2  A    between atoms: _19  and  _21
REMARK    3  A    between atoms: _22  and  _66
REMARK    4  A    between atoms: _27  and  _30
REMARK    5  A    between atoms: _32  and  _33
REMARK    6  A    between atoms: _38  and  _43
REMARK    7  A    between atoms: _43  and  _46
REMARK    8  A    between atoms: _53  and  _55
REMARK                            x       y       z     vdW  Elec       q    Type
REMARK                         _______ _______ _______ _____ _____    ______ ____
ROOT
ATOM     10  C   UNL     1     -13.413  -2.688 -20.461  0.00  0.00    +0.038 A 
ATOM     11  C   UNL     1     -12.479  -3.071 -19.465  0.00  0.00    +0.047 A 
ATOM     12  C   UNL     1     -11.937  -4.420 -19.421  0.00  0.00    +0.035 A 
ATOM     32  C   UNL     1     -12.366  -5.353 -20.409  0.00  0.00    +0.024 A 
ATOM     33  C   UNL     1     -13.315  -4.981 -21.429  0.00  0.00    +0.007 A 
ATOM     34  C   UNL     1     -13.855  -3.652 -21.476  0.00  0.00    -0.029 A 
ATOM     35  C   UNL     1     -14.875  -3.310 -22.587  0.00  0.00    +0.045 C 
ENDROOT
BRANCH  10   9
ATOM      4  C   UNL     1     -13.639   1.752 -22.271  0.00  0.00    +0.077 A 
ATOM      5  C   UNL     1     -12.683   1.446 -23.297  0.00  0.00    +0.048 A 
ATOM      6  C   UNL     1     -12.152   0.137 -23.319  0.00  0.00    +0.116 A 
ATOM      7  N   UNL     1     -12.554  -0.789 -22.382  0.00  0.00    -0.223 NA
ATOM      8  C   UNL     1     -13.476  -0.461 -21.405  0.00  0.00    +0.220 A 
ATOM      9  N   UNL     1     -13.901  -1.379 -20.457  0.00  0.00    -0.283 N 
ATOM     36  H   UNL     1     -14.577  -1.096 -19.748  0.00  0.00    +0.155 HD
ATOM     37  N   UNL     1     -13.997   0.783 -21.361  0.00  0.00    -0.214 NA
BRANCH   4   3
ATOM      1  C   UNL     1     -14.623   5.505 -22.772  0.00  0.00    +0.020 A 
ATOM      2  C   UNL     1     -13.962   4.234 -22.960  0.00  0.00    +0.013 A 
ATOM      3  C   UNL     1     -14.292   3.091 -22.118  0.00  0.00    +0.019 A 
ATOM     38  C   UNL     1     -15.303   3.268 -21.087  0.00  0.00    +0.120 A 
ATOM     39  N   UNL     1     -15.921   4.504 -20.927  0.00  0.00    -0.263 NA
ATOM     40  C   UNL     1     -15.611   5.612 -21.731  0.00  0.00    +0.111 A 
ENDBRANCH   4   3
ENDBRANCH  10   9
BRANCH  12  13
ATOM     13  N   UNL     1     -10.993  -4.869 -18.428  0.00  0.00    -0.281 N 
ATOM     14  C   UNL     1     -11.189  -5.808 -17.429  0.00  0.00    +0.248 C 
ATOM     30  O   UNL     1     -12.280  -6.252 -17.102  0.00  0.00    -0.270 OA
ATOM     31  H   UNL     1     -10.067  -4.443 -18.467  0.00  0.00    +0.155 HD
BRANCH  14  15
ATOM     15  C   UNL     1     -10.004  -6.318 -16.674  0.00  0.00    +0.037 A 
ATOM     16  C   UNL     1      -8.746  -6.631 -17.356  0.00  0.00    +0.013 A 
ATOM     17  C   UNL     1      -7.623  -7.138 -16.606  0.00  0.00    +0.005 A 
ATOM     18  C   UNL     1      -7.754  -7.332 -15.164  0.00  0.00    -0.033 A 
ATOM     28  C   UNL     1      -9.012  -7.008 -14.512  0.00  0.00    +0.005 A 
ATOM     29  C   UNL     1     -10.115  -6.512 -15.244  0.00  0.00    +0.013 A 
BRANCH  18  19
ATOM     19  C   UNL     1      -6.616  -7.888 -14.289  0.00  0.00    +0.119 C 
BRANCH  19  20
ATOM     20  N   UNL     1      -5.300  -8.132 -14.951  0.00  0.00    -0.302 NA
ATOM     21  C   UNL     1      -5.341  -9.349 -15.879  0.00  0.00    +0.066 C 
ATOM     22  C   UNL     1      -3.963  -9.576 -16.581  0.00  0.00    -0.064 C 
ATOM     23  N   UNL     1      -2.874  -9.741 -15.520  0.00  0.00    +0.379 N 
ATOM     24  C   UNL     1      -1.586 -10.012 -16.176  0.00  0.00    -0.096 C 
ATOM     25  H   UNL     1      -3.134 -10.632 -14.904  0.00  0.00    -0.082 HD
ATOM     26  C   UNL     1      -2.828  -8.535 -14.592  0.00  0.00    -0.064 C 
ATOM     27  C   UNL     1      -4.210  -8.301 -13.921  0.00  0.00    +0.066 C 
ENDBRANCH  19  20
ENDBRANCH  18  19
ENDBRANCH  14  15
ENDBRANCH  12  13
TORSDOF 6
ENDMDL
