MODEL 1
REMARK VINA RESULT:     -11.5      0.000      0.000
REMARK  Name = C:\Users\Docking\Desktop\test protocol\1iep_ligandH.pdb
REMARK  8 active torsions:
REMARK  status: ('A' for Active; 'I' for Inactive)
REMARK    1  A    between atoms: _5  and  _11
REMARK    2  A    between atoms: _19  and  _21
REMARK    3  A    between atoms: _22  and  _66
REMARK    4  A    between atoms: _27  and  _30
REMARK    5  A    between atoms: _32  and  _33
REMARK    6  A    between atoms: _38  and  _43
REMARK    7  A    between atoms: _43  and  _46
REMARK    8  A    between atoms: _53  and  _55
REMARK                            x       y       z     vdW  Elec       q    Type
REMARK                         _______ _______ _______ _____ _____    ______ ____
ROOT
ATOM     10  C   UNL     1     -11.035  -5.922 -19.824  0.00  0.00    +0.038 A 
ATOM     11  C   UNL     1     -11.128  -4.544 -20.146  0.00  0.00    +0.047 A 
ATOM     12  C   UNL     1     -12.333  -3.991 -20.744  0.00  0.00    +0.035 A 
ATOM     32  C   UNL     1     -13.426  -4.870 -20.998  0.00  0.00    +0.024 A 
ATOM     33  C   UNL     1     -13.348  -6.274 -20.677  0.00  0.00    +0.007 A 
ATOM     34  C   UNL     1     -12.160  -6.825 -20.089  0.00  0.00    -0.029 A 
ATOM     35  C   UNL     1     -12.130  -8.338 -19.772  0.00  0.00    +0.045 C 
ENDROOT
BRANCH  10   9
ATOM      4  C   UNL     1      -8.281  -6.935 -16.025  0.00  0.00    +0.077 A 
ATOM      5  C   UNL     1      -9.268  -6.448 -15.105  0.00  0.00    +0.048 A 
ATOM      6  C   UNL     1     -10.468  -5.939 -15.650  0.00  0.00    +0.116 A 
ATOM      7  N   UNL     1     -10.656  -5.922 -17.016  0.00  0.00    -0.223 NA
ATOM      8  C   UNL     1      -9.683  -6.398 -17.875  0.00  0.00    +0.220 A 
ATOM      9  N   UNL     1      -9.853  -6.399 -19.251  0.00  0.00    -0.283 N 
ATOM     36  H   UNL     1      -9.109  -6.751 -19.851  0.00  0.00    +0.155 HD
ATOM     37  N   UNL     1      -8.527  -6.889 -17.379  0.00  0.00    -0.214 NA
BRANCH   4   3
ATOM      1  C   UNL     1      -5.410  -8.516 -13.890  0.00  0.00    +0.020 A 
ATOM      2  C   UNL     1      -6.700  -7.971 -14.246  0.00  0.00    +0.013 A 
ATOM      3  C   UNL     1      -6.964  -7.507 -15.603  0.00  0.00    +0.019 A 
ATOM     38  C   UNL     1      -5.893  -7.610 -16.582  0.00  0.00    +0.120 A 
ATOM     39  N   UNL     1      -4.660  -8.138 -16.210  0.00  0.00    -0.263 NA
ATOM     40  C   UNL     1      -4.394  -8.586 -14.907  0.00  0.00    +0.111 A 
ENDBRANCH   4   3
ENDBRANCH  10   9
BRANCH  12  13
ATOM     13  N   UNL     1     -12.483  -2.602 -21.101  0.00  0.00    -0.281 N 
ATOM     14  C   UNL     1     -13.654  -1.867 -21.189  0.00  0.00    +0.248 C 
ATOM     30  O   UNL     1     -14.776  -2.350 -21.181  0.00  0.00    -0.270 OA
ATOM     31  H   UNL     1     -11.621  -2.100 -21.315  0.00  0.00    +0.155 HD
BRANCH  14  15
ATOM     15  C   UNL     1     -13.565  -0.380 -21.318  0.00  0.00    +0.037 A 
ATOM     16  C   UNL     1     -14.049   0.308 -22.517  0.00  0.00    +0.013 A 
ATOM     17  C   UNL     1     -13.936   1.741 -22.624  0.00  0.00    +0.005 A 
ATOM     18  C   UNL     1     -13.337   2.496 -21.526  0.00  0.00    -0.033 A 
ATOM     28  C   UNL     1     -12.869   1.788 -20.345  0.00  0.00    +0.005 A 
ATOM     29  C   UNL     1     -12.978   0.383 -20.238  0.00  0.00    +0.013 A 
BRANCH  18  19
ATOM     19  C   UNL     1     -13.156   4.025 -21.562  0.00  0.00    +0.119 C 
BRANCH  19  20
ATOM     20  N   UNL     1     -11.843   4.570 -21.105  0.00  0.00    -0.302 NA
ATOM     21  C   UNL     1     -11.915   6.071 -20.810  0.00  0.00    +0.066 C 
ATOM     22  C   UNL     1     -10.539   6.619 -20.311  0.00  0.00    -0.064 C 
ATOM     23  N   UNL     1      -9.465   6.324 -21.360  0.00  0.00    +0.379 N 
ATOM     24  C   UNL     1      -8.181   6.890 -20.920  0.00  0.00    -0.096 C 
ATOM     25  H   UNL     1      -9.760   6.845 -22.300  0.00  0.00    -0.082 HD
ATOM     26  C   UNL     1      -9.388   4.834 -21.661  0.00  0.00    -0.064 C 
ATOM     27  C   UNL     1     -10.769   4.293 -22.128  0.00  0.00    +0.066 C 
ENDBRANCH  19  20
ENDBRANCH  18  19
ENDBRANCH  14  15
ENDBRANCH  12  13
TORSDOF 6
ENDMDL
MODEL 2
REMARK VINA RESULT:     -11.2      1.390      1.910
REMARK  Name = C:\Users\Docking\Desktop\test protocol\1iep_ligandH.pdb
REMARK  8 active torsions:
REMARK  status: ('A' for Active; 'I' for Inactive)
REMARK    1  A    between atoms: _5  and  _11
REMARK    2  A    between atoms: _19  and  _21
REMARK    3  A    between atoms: _22  and  _66
REMARK    4  A    between atoms: _27  and  _30
REMARK    5  A    between atoms: _32  and  _33
REMARK    6  A    between atoms: _38  and  _43
REMARK    7  A    between atoms: _43  and  _46
REMARK    8  A    between atoms: _53  and  _55
REMARK                            x       y       z     vdW  Elec       q    Type
REMARK                         _______ _______ _______ _____ _____    ______ ____
ROOT
ATOM     10  C   UNL     1     -11.135  -5.800 -19.835  0.00  0.00    +0.038 A 
ATOM     11  C   UNL     1     -11.269  -4.441 -20.219  0.00  0.00    +0.047 A 
ATOM     12  C   UNL     1     -12.509  -3.940 -20.791  0.00  0.00    +0.035 A 
ATOM     32  C   UNL     1     -13.594  -4.849 -20.955  0.00  0.00    +0.024 A 
ATOM     33  C   UNL     1     -13.474  -6.234 -20.571  0.00  0.00    +0.007 A 
ATOM     34  C   UNL     1     -12.253  -6.735 -20.009  0.00  0.00    -0.029 A 
ATOM     35  C   UNL     1     -12.179  -8.230 -19.622  0.00  0.00    +0.045 C 
ENDROOT
BRANCH  10   9
ATOM      4  C   UNL     1      -8.329  -6.918 -16.105  0.00  0.00    +0.077 A 
ATOM      5  C   UNL     1      -9.358  -6.598 -15.159  0.00  0.00    +0.048 A 
ATOM      6  C   UNL     1     -10.593  -6.142 -15.673  0.00  0.00    +0.116 A 
ATOM      7  N   UNL     1     -10.774  -6.020 -17.033  0.00  0.00    -0.223 NA
ATOM      8  C   UNL     1      -9.759  -6.335 -17.919  0.00  0.00    +0.220 A 
ATOM      9  N   UNL     1      -9.922  -6.228 -19.291  0.00  0.00    -0.283 N 
ATOM     36  H   UNL     1      -9.147  -6.463 -19.911  0.00  0.00    +0.155 HD
ATOM     37  N   UNL     1      -8.571  -6.772 -17.453  0.00  0.00    -0.214 NA
BRANCH   4   3
ATOM      1  C   UNL     1      -5.298  -8.263 -14.030  0.00  0.00    +0.020 A 
ATOM      2  C   UNL     1      -6.624  -7.788 -14.352  0.00  0.00    +0.013 A 
ATOM      3  C   UNL     1      -6.971  -7.416 -15.717  0.00  0.00    +0.019 A 
ATOM     38  C   UNL     1      -5.946  -7.538 -16.743  0.00  0.00    +0.120 A 
ATOM     39  N   UNL     1      -4.677  -7.997 -16.403  0.00  0.00    -0.263 NA
ATOM     40  C   UNL     1      -4.331  -8.356 -15.092  0.00  0.00    +0.111 A 
ENDBRANCH   4   3
ENDBRANCH  10   9
BRANCH  12  13
ATOM     13  N   UNL     1     -12.701  -2.572 -21.207  0.00  0.00    -0.281 N 
ATOM     14  C   UNL     1     -12.703  -1.434 -20.417  0.00  0.00    +0.248 C 
ATOM     30  O   UNL     1     -12.753  -1.441 -19.196  0.00  0.00    -0.270 OA
ATOM     31  H   UNL     1     -12.854  -2.426 -22.204  0.00  0.00    +0.155 HD
BRANCH  14  15
ATOM     15  C   UNL     1     -12.658  -0.095 -21.079  0.00  0.00    +0.037 A 
ATOM     16  C   UNL     1     -12.526   0.029 -22.533  0.00  0.00    +0.013 A 
ATOM     17  C   UNL     1     -12.467   1.333 -23.145  0.00  0.00    +0.005 A 
ATOM     18  C   UNL     1     -12.544   2.524 -22.302  0.00  0.00    -0.033 A 
ATOM     28  C   UNL     1     -12.680   2.371 -20.863  0.00  0.00    +0.005 A 
ATOM     29  C   UNL     1     -12.737   1.095 -20.260  0.00  0.00    +0.013 A 
BRANCH  18  19
ATOM     19  C   UNL     1     -12.468   3.955 -22.867  0.00  0.00    +0.119 C 
BRANCH  19  20
ATOM     20  N   UNL     1     -12.924   5.065 -21.979  0.00  0.00    -0.302 NA
ATOM     21  C   UNL     1     -14.324   5.561 -22.351  0.00  0.00    +0.066 C 
ATOM     22  C   UNL     1     -14.794   6.707 -21.398  0.00  0.00    -0.064 C 
ATOM     23  N   UNL     1     -13.783   7.854 -21.447  0.00  0.00    +0.379 N 
ATOM     24  C   UNL     1     -14.252   8.958 -20.596  0.00  0.00    -0.096 C 
ATOM     25  H   UNL     1     -13.747   8.228 -22.497  0.00  0.00    -0.082 HD
ATOM     26  C   UNL     1     -12.387   7.370 -21.081  0.00  0.00    -0.064 C 
ATOM     27  C   UNL     1     -11.942   6.211 -22.015  0.00  0.00    +0.066 C 
ENDBRANCH  19  20
ENDBRANCH  18  19
ENDBRANCH  14  15
ENDBRANCH  12  13
TORSDOF 6
ENDMDL
MODEL 3
REMARK VINA RESULT:     -11.2      6.090     13.292
REMARK  Name = C:\Users\Docking\Desktop\test protocol\1iep_ligandH.pdb
REMARK  8 active torsions:
REMARK  status: ('A' for Active; 'I' for Inactive)
REMARK    1  A    between atoms: _5  and  _11
REMARK    2  A    between atoms: _19  and  _21
REMARK    3  A    between atoms: _22  and  _66
REMARK    4  A    between atoms: _27  and  _30
REMARK    5  A    between atoms: _32  and  _33
REMARK    6  A    between atoms: _38  and  _43
REMARK    7  A    between atoms: _43  and  _46
REMARK    8  A    between atoms: _53  and  _55
REMARK                            x       y       z     vdW  Elec       q    Type
REMARK                         _______ _______ _______ _____ _____    ______ ____
ROOT
ATOM     10  C   UNL     1     -10.452  -5.847 -18.184  0.00  0.00    +0.038 A 
ATOM     11  C   UNL     1      -9.107  -6.286 -18.095  0.00  0.00    +0.047 A 
ATOM     12  C   UNL     1      -8.601  -6.922 -16.888  0.00  0.00    +0.035 A 
ATOM     32  C   UNL     1      -9.494  -7.097 -15.792  0.00  0.00    +0.024 A 
ATOM     33  C   UNL     1     -10.865  -6.656 -15.864  0.00  0.00    +0.007 A 
ATOM     34  C   UNL     1     -11.369  -6.025 -17.051  0.00  0.00    -0.029 A 
ATOM     35  C   UNL     1     -12.845  -5.566 -17.071  0.00  0.00    +0.045 C 
ENDROOT
BRANCH  10   9
ATOM      4  C   UNL     1     -12.270  -6.049 -22.621  0.00  0.00    +0.077 A 
ATOM      5  C   UNL     1     -12.339  -7.482 -22.591  0.00  0.00    +0.048 A 
ATOM      6  C   UNL     1     -11.890  -8.129 -21.418  0.00  0.00    +0.116 A 
ATOM      7  N   UNL     1     -11.410  -7.388 -20.360  0.00  0.00    -0.223 NA
ATOM      8  C   UNL     1     -11.356  -6.008 -20.422  0.00  0.00    +0.220 A 
ATOM      9  N   UNL     1     -10.885  -5.242 -19.366  0.00  0.00    -0.283 N 
ATOM     36  H   UNL     1     -10.854  -4.227 -19.454  0.00  0.00    +0.155 HD
ATOM     37  N   UNL     1     -11.777  -5.367 -21.532  0.00  0.00    -0.214 NA
BRANCH   4   3
ATOM      1  C   UNL     1     -14.482  -4.235 -25.289  0.00  0.00    +0.020 A 
ATOM      2  C   UNL     1     -14.111  -5.045 -24.152  0.00  0.00    +0.013 A 
ATOM      3  C   UNL     1     -12.710  -5.222 -23.789  0.00  0.00    +0.019 A 
ATOM     38  C   UNL     1     -11.702  -4.559 -24.602  0.00  0.00    +0.120 A 
ATOM     39  N   UNL     1     -12.090  -3.786 -25.693  0.00  0.00    -0.263 NA
ATOM     40  C   UNL     1     -13.434  -3.610 -26.053  0.00  0.00    +0.111 A 
ENDBRANCH   4   3
ENDBRANCH  10   9
BRANCH  12  13
ATOM     13  N   UNL     1      -7.242  -7.381 -16.737  0.00  0.00    -0.281 N 
ATOM     14  C   UNL     1      -6.446  -7.328 -15.604  0.00  0.00    +0.248 C 
ATOM     30  O   UNL     1      -6.712  -6.680 -14.603  0.00  0.00    -0.270 OA
ATOM     31  H   UNL     1      -6.815  -7.795 -17.566  0.00  0.00    +0.155 HD
BRANCH  14  15
ATOM     15  C   UNL     1      -5.163  -8.094 -15.587  0.00  0.00    +0.037 A 
ATOM     16  C   UNL     1      -4.641  -8.674 -14.347  0.00  0.00    +0.013 A 
ATOM     17  C   UNL     1      -3.392  -9.394 -14.355  0.00  0.00    +0.005 A 
ATOM     18  C   UNL     1      -2.657  -9.539 -15.609  0.00  0.00    -0.033 A 
ATOM     28  C   UNL     1      -3.201  -8.959 -16.826  0.00  0.00    +0.005 A 
ATOM     29  C   UNL     1      -4.424  -8.252 -16.822  0.00  0.00    +0.013 A 
BRANCH  18  19
ATOM     19  C   UNL     1      -1.307 -10.273 -15.707  0.00  0.00    +0.119 C 
BRANCH  19  20
ATOM     20  N   UNL     1      -0.522 -10.432 -14.446  0.00  0.00    -0.302 NA
ATOM     21  C   UNL     1      -0.235  -9.085 -13.775  0.00  0.00    +0.066 C 
ATOM     22  C   UNL     1       0.567  -9.272 -12.446  0.00  0.00    -0.064 C 
ATOM     23  N   UNL     1       1.869 -10.018 -12.740  0.00  0.00    +0.379 N 
ATOM     24  C   UNL     1       2.653 -10.144 -11.503  0.00  0.00    -0.096 C 
ATOM     25  H   UNL     1       2.460  -9.398 -13.454  0.00  0.00    -0.082 HD
ATOM     26  C   UNL     1       1.594 -11.357 -13.410  0.00  0.00    -0.064 C 
ATOM     27  C   UNL     1       0.771 -11.163 -14.715  0.00  0.00    +0.066 C 
ENDBRANCH  19  20
ENDBRANCH  18  19
ENDBRANCH  14  15
ENDBRANCH  12  13
TORSDOF 6
ENDMDL
MODEL 4
REMARK VINA RESULT:     -11.1      6.637     12.929
REMARK  Name = C:\Users\Docking\Desktop\test protocol\1iep_ligandH.pdb
REMARK  8 active torsions:
REMARK  status: ('A' for Active; 'I' for Inactive)
REMARK    1  A    between atoms: _5  and  _11
REMARK    2  A    between atoms: _19  and  _21
REMARK    3  A    between atoms: _22  and  _66
REMARK    4  A    between atoms: _27  and  _30
REMARK    5  A    between atoms: _32  and  _33
REMARK    6  A    between atoms: _38  and  _43
REMARK    7  A    between atoms: _43  and  _46
REMARK    8  A    between atoms: _53  and  _55
REMARK                            x       y       z     vdW  Elec       q    Type
REMARK                         _______ _______ _______ _____ _____    ______ ____
ROOT
ATOM     10  C   UNL     1     -10.795  -6.115 -18.658  0.00  0.00    +0.038 A 
ATOM     11  C   UNL     1      -9.489  -6.457 -18.222  0.00  0.00    +0.047 A 
ATOM     12  C   UNL     1      -9.115  -6.360 -16.820  0.00  0.00    +0.035 A 
ATOM     32  C   UNL     1     -10.096  -5.914 -15.888  0.00  0.00    +0.024 A 
ATOM     33  C   UNL     1     -11.428  -5.562 -16.314  0.00  0.00    +0.007 A 
ATOM     34  C   UNL     1     -11.802  -5.653 -17.696  0.00  0.00    -0.029 A 
ATOM     35  C   UNL     1     -13.242  -5.256 -18.097  0.00  0.00    +0.045 C 
ENDROOT
BRANCH  10   9
ATOM      4  C   UNL     1     -12.582  -8.515 -22.411  0.00  0.00    +0.077 A 
ATOM      5  C   UNL     1     -12.911  -9.653 -21.602  0.00  0.00    +0.048 A 
ATOM      6  C   UNL     1     -12.598  -9.584 -20.226  0.00  0.00    +0.116 A 
ATOM      7  N   UNL     1     -12.000  -8.455 -19.708  0.00  0.00    -0.223 NA
ATOM      8  C   UNL     1     -11.694  -7.376 -20.517  0.00  0.00    +0.220 A 
ATOM      9  N   UNL     1     -11.100  -6.227 -20.016  0.00  0.00    -0.283 N 
ATOM     36  H   UNL     1     -10.884  -5.456 -20.647  0.00  0.00    +0.155 HD
ATOM     37  N   UNL     1     -11.982  -7.418 -21.834  0.00  0.00    -0.214 NA
BRANCH   4   3
ATOM      1  C   UNL     1     -12.759  -7.263 -26.112  0.00  0.00    +0.020 A 
ATOM      2  C   UNL     1     -12.473  -7.289 -24.696  0.00  0.00    +0.013 A 
ATOM      3  C   UNL     1     -12.854  -8.436 -23.881  0.00  0.00    +0.019 A 
ATOM     38  C   UNL     1     -13.527  -9.548 -24.535  0.00  0.00    +0.120 A 
ATOM     39  N   UNL     1     -13.790  -9.494 -25.900  0.00  0.00    -0.263 NA
ATOM     40  C   UNL     1     -13.429  -8.395 -26.694  0.00  0.00    +0.111 A 
ENDBRANCH   4   3
ENDBRANCH  10   9
BRANCH  12  13
ATOM     13  N   UNL     1      -7.802  -6.685 -16.319  0.00  0.00    -0.281 N 
ATOM     14  C   UNL     1      -7.478  -7.370 -15.159  0.00  0.00    +0.248 C 
ATOM     30  O   UNL     1      -8.269  -7.621 -14.262  0.00  0.00    -0.270 OA
ATOM     31  H   UNL     1      -7.016  -6.373 -16.890  0.00  0.00    +0.155 HD
BRANCH  14  15
ATOM     15  C   UNL     1      -6.070  -7.828 -14.961  0.00  0.00    +0.037 A 
ATOM     16  C   UNL     1      -5.586  -8.250 -13.643  0.00  0.00    +0.013 A 
ATOM     17  C   UNL     1      -4.218  -8.672 -13.476  0.00  0.00    +0.005 A 
ATOM     18  C   UNL     1      -3.323  -8.674 -14.631  0.00  0.00    -0.033 A 
ATOM     28  C   UNL     1      -3.830  -8.255 -15.927  0.00  0.00    +0.005 A 
ATOM     29  C   UNL     1      -5.170  -7.840 -16.095  0.00  0.00    +0.013 A 
BRANCH  18  19
ATOM     19  C   UNL     1      -1.842  -9.088 -14.540  0.00  0.00    +0.119 C 
BRANCH  19  20
ATOM     20  N   UNL     1      -1.316  -9.985 -15.612  0.00  0.00    -0.302 NA
ATOM     21  C   UNL     1      -2.279 -11.134 -15.924  0.00  0.00    +0.066 C 
ATOM     22  C   UNL     1      -1.723 -12.049 -17.063  0.00  0.00    -0.064 C 
ATOM     23  N   UNL     1      -0.350 -12.588 -16.657  0.00  0.00    +0.379 N 
ATOM     24  C   UNL     1       0.149 -13.495 -17.700  0.00  0.00    -0.096 C 
ATOM     25  H   UNL     1      -0.484 -13.185 -15.725  0.00  0.00    -0.082 HD
ATOM     26  C   UNL     1       0.612 -11.451 -16.343  0.00  0.00    -0.064 C 
ATOM     27  C   UNL     1       0.037 -10.531 -15.230  0.00  0.00    +0.066 C 
ENDBRANCH  19  20
ENDBRANCH  18  19
ENDBRANCH  14  15
ENDBRANCH  12  13
TORSDOF 6
ENDMDL
MODEL 5
REMARK VINA RESULT:     -11.0      5.747     11.098
REMARK  Name = C:\Users\Docking\Desktop\test protocol\1iep_ligandH.pdb
REMARK  8 active torsions:
REMARK  status: ('A' for Active; 'I' for Inactive)
REMARK    1  A    between atoms: _5  and  _11
REMARK    2  A    between atoms: _19  and  _21
REMARK    3  A    between atoms: _22  and  _66
REMARK    4  A    between atoms: _27  and  _30
REMARK    5  A    between atoms: _32  and  _33
REMARK    6  A    between atoms: _38  and  _43
REMARK    7  A    between atoms: _43  and  _46
REMARK    8  A    between atoms: _53  and  _55
REMARK                            x       y       z     vdW  Elec       q    Type
REMARK                         _______ _______ _______ _____ _____    ______ ____
ROOT
ATOM     10  C   UNL     1      -1.877  -9.137 -15.524  0.00  0.00    +0.038 A 
ATOM     11  C   UNL     1      -3.108  -8.748 -16.110  0.00  0.00    +0.047 A 
ATOM     12  C   UNL     1      -4.206  -8.251 -15.295  0.00  0.00    +0.035 A 
ATOM     32  C   UNL     1      -4.013  -8.159 -13.886  0.00  0.00    +0.024 A 
ATOM     33  C   UNL     1      -2.768  -8.551 -13.273  0.00  0.00    +0.007 A 
ATOM     34  C   UNL     1      -1.683  -9.045 -14.072  0.00  0.00    -0.029 A 
ATOM     35  C   UNL     1      -0.373  -9.457 -13.361  0.00  0.00    +0.045 C 
ENDROOT
BRANCH  10   9
ATOM      4  C   UNL     1       0.508 -12.687 -17.704  0.00  0.00    +0.077 A 
ATOM      5  C   UNL     1      -0.333 -13.691 -17.118  0.00  0.00    +0.048 A 
ATOM      6  C   UNL     1      -1.363 -13.252 -16.256  0.00  0.00    +0.116 A 
ATOM      7  N   UNL     1      -1.531 -11.908 -16.006  0.00  0.00    -0.223 NA
ATOM      8  C   UNL     1      -0.701 -10.966 -16.585  0.00  0.00    +0.220 A 
ATOM      9  N   UNL     1      -0.857  -9.608 -16.354  0.00  0.00    -0.283 N 
ATOM     36  H   UNL     1      -0.219  -8.945 -16.795  0.00  0.00    +0.155 HD
ATOM     37  N   UNL     1       0.291 -11.359 -17.411  0.00  0.00    -0.214 NA
BRANCH   4   3
ATOM      1  C   UNL     1       2.756 -12.904 -20.897  0.00  0.00    +0.020 A 
ATOM      2  C   UNL     1       1.640 -12.584 -20.037  0.00  0.00    +0.013 A 
ATOM      3  C   UNL     1       1.637 -12.992 -18.638  0.00  0.00    +0.019 A 
ATOM     38  C   UNL     1       2.788 -13.727 -18.136  0.00  0.00    +0.120 A 
ATOM     39  N   UNL     1       3.848 -14.022 -18.988  0.00  0.00    -0.263 NA
ATOM     40  C   UNL     1       3.861 -13.636 -20.337  0.00  0.00    +0.111 A 
ENDBRANCH   4   3
ENDBRANCH  10   9
BRANCH  12  13
ATOM     13  N   UNL     1      -5.482  -7.849 -15.833  0.00  0.00    -0.281 N 
ATOM     14  C   UNL     1      -6.744  -8.197 -15.382  0.00  0.00    +0.248 C 
ATOM     30  O   UNL     1      -6.968  -9.085 -14.572  0.00  0.00    -0.270 OA
ATOM     31  H   UNL     1      -5.450  -7.233 -16.646  0.00  0.00    +0.155 HD
BRANCH  14  15
ATOM     15  C   UNL     1      -7.931  -7.464 -15.919  0.00  0.00    +0.037 A 
ATOM     16  C   UNL     1      -7.998  -7.052 -17.323  0.00  0.00    +0.013 A 
ATOM     17  C   UNL     1      -9.147  -6.331 -17.811  0.00  0.00    +0.005 A 
ATOM     18  C   UNL     1     -10.239  -6.018 -16.893  0.00  0.00    -0.033 A 
ATOM     28  C   UNL     1     -10.148  -6.443 -15.506  0.00  0.00    +0.005 A 
ATOM     29  C   UNL     1      -9.024  -7.149 -15.024  0.00  0.00    +0.013 A 
BRANCH  18  19
ATOM     19  C   UNL     1     -11.494  -5.234 -17.321  0.00  0.00    +0.119 C 
BRANCH  19  20
ATOM     20  N   UNL     1     -11.924  -5.359 -18.746  0.00  0.00    -0.302 NA
ATOM     21  C   UNL     1     -12.060  -3.994 -19.426  0.00  0.00    +0.066 C 
ATOM     22  C   UNL     1     -12.490  -4.144 -20.922  0.00  0.00    -0.064 C 
ATOM     23  N   UNL     1     -13.806  -4.920 -20.996  0.00  0.00    +0.379 N 
ATOM     24  C   UNL     1     -14.243  -5.013 -22.397  0.00  0.00    -0.096 C 
ATOM     25  H   UNL     1     -14.575  -4.335 -20.440  0.00  0.00    -0.082 HD
ATOM     26  C   UNL     1     -13.681  -6.277 -20.319  0.00  0.00    -0.064 C 
ATOM     27  C   UNL     1     -13.225  -6.118 -18.842  0.00  0.00    +0.066 C 
ENDBRANCH  19  20
ENDBRANCH  18  19
ENDBRANCH  14  15
ENDBRANCH  12  13
TORSDOF 6
ENDMDL
