MODEL 1
REMARK VINA RESULT:     -11.4      0.000      0.000
REMARK  Name = C:\Users\Docking\Desktop\test protocol\1iep_ligandH.pdb
REMARK  8 active torsions:
REMARK  status: ('A' for Active; 'I' for Inactive)
REMARK    1  A    between atoms: _5  and  _11
REMARK    2  A    between atoms: _19  and  _21
REMARK    3  A    between atoms: _22  and  _66
REMARK    4  A    between atoms: _27  and  _30
REMARK    5  A    between atoms: _32  and  _33
REMARK    6  A    between atoms: _38  and  _43
REMARK    7  A    between atoms: _43  and  _46
REMARK    8  A    between atoms: _53  and  _55
REMARK                            x       y       z     vdW  Elec       q    Type
REMARK                         _______ _______ _______ _____ _____    ______ ____
ROOT
ATOM     10  C   UNL     1      -3.104  -5.467  -4.885  0.00  0.00    +0.038 A 
ATOM     11  C   UNL     1      -3.060  -4.102  -4.502  0.00  0.00    +0.047 A 
ATOM     12  C   UNL     1      -1.865  -3.525  -3.906  0.00  0.00    +0.035 A 
ATOM     32  C   UNL     1      -0.730  -4.368  -3.718  0.00  0.00    +0.024 A 
ATOM     33  C   UNL     1      -0.758  -5.757  -4.101  0.00  0.00    +0.007 A 
ATOM     34  C   UNL     1      -1.935  -6.332  -4.687  0.00  0.00    -0.029 A 
ATOM     35  C   UNL     1      -1.910  -7.830  -5.072  0.00  0.00    +0.045 C 
ENDROOT
BRANCH  10   9
ATOM      4  C   UNL     1      -5.776  -6.720  -8.670  0.00  0.00    +0.077 A 
ATOM      5  C   UNL     1      -4.757  -6.318  -9.597  0.00  0.00    +0.048 A 
ATOM      6  C   UNL     1      -3.564  -5.786  -9.059  0.00  0.00    +0.116 A 
ATOM      7  N   UNL     1      -3.411  -5.671  -7.695  0.00  0.00    -0.223 NA
ATOM      8  C   UNL     1      -4.413  -6.067  -6.829  0.00  0.00    +0.220 A 
ATOM      9  N   UNL     1      -4.278  -5.968  -5.452  0.00  0.00    -0.283 N 
ATOM     36  H   UNL     1      -5.043  -6.264  -4.848  0.00  0.00    +0.155 HD
ATOM     37  N   UNL     1      -5.563  -6.577  -7.317  0.00  0.00    -0.214 NA
BRANCH   4   3
ATOM      1  C   UNL     1      -8.652  -8.312 -10.790  0.00  0.00    +0.020 A 
ATOM      2  C   UNL     1      -7.365  -7.756 -10.442  0.00  0.00    +0.013 A 
ATOM      3  C   UNL     1      -7.091  -7.303  -9.084  0.00  0.00    +0.019 A 
ATOM     38  C   UNL     1      -8.150  -7.428  -8.094  0.00  0.00    +0.120 A 
ATOM     39  N   UNL     1      -9.381  -7.966  -8.459  0.00  0.00    -0.263 NA
ATOM     40  C   UNL     1      -9.656  -8.403  -9.763  0.00  0.00    +0.111 A 
ENDBRANCH   4   3
ENDBRANCH  10   9
BRANCH  12  13
ATOM     13  N   UNL     1      -1.765  -2.149  -3.490  0.00  0.00    -0.281 N 
ATOM     14  C   UNL     1      -1.727  -1.018  -4.289  0.00  0.00    +0.248 C 
ATOM     30  O   UNL     1      -1.558  -1.032  -5.499  0.00  0.00    -0.270 OA
ATOM     31  H   UNL     1      -1.716  -1.988  -2.483  0.00  0.00    +0.155 HD
BRANCH  14  15
ATOM     15  C   UNL     1      -1.886   0.324  -3.649  0.00  0.00    +0.037 A 
ATOM     16  C   UNL     1      -2.368   0.457  -2.272  0.00  0.00    +0.013 A 
ATOM     17  C   UNL     1      -2.529   1.764  -1.685  0.00  0.00    +0.005 A 
ATOM     18  C   UNL     1      -2.204   2.949  -2.476  0.00  0.00    -0.033 A 
ATOM     28  C   UNL     1      -1.722   2.787  -3.838  0.00  0.00    +0.005 A 
ATOM     29  C   UNL     1      -1.565   1.508  -4.417  0.00  0.00    +0.013 A 
BRANCH  18  19
ATOM     19  C   UNL     1      -2.365   4.383  -1.938  0.00  0.00    +0.119 C 
BRANCH  19  20
ATOM     20  N   UNL     1      -3.025   5.379  -2.834  0.00  0.00    -0.302 NA
ATOM     21  C   UNL     1      -2.918   6.805  -2.285  0.00  0.00    +0.066 C 
ATOM     22  C   UNL     1      -3.595   7.836  -3.245  0.00  0.00    -0.064 C 
ATOM     23  N   UNL     1      -5.058   7.447  -3.458  0.00  0.00    +0.379 N 
ATOM     24  C   UNL     1      -5.712   8.447  -4.314  0.00  0.00    -0.096 C 
ATOM     25  H   UNL     1      -5.563   7.470  -2.465  0.00  0.00    -0.082 HD
ATOM     26  C   UNL     1      -5.174   6.030  -4.002  0.00  0.00    -0.064 C 
ATOM     27  C   UNL     1      -4.473   5.016  -3.055  0.00  0.00    +0.066 C 
ENDBRANCH  19  20
ENDBRANCH  18  19
ENDBRANCH  14  15
ENDBRANCH  12  13
TORSDOF 6
ENDMDL
MODEL 2
REMARK VINA RESULT:     -10.8      1.523      2.363
REMARK  Name = C:\Users\Docking\Desktop\test protocol\1iep_ligandH.pdb
REMARK  8 active torsions:
REMARK  status: ('A' for Active; 'I' for Inactive)
REMARK    1  A    between atoms: _5  and  _11
REMARK    2  A    between atoms: _19  and  _21
REMARK    3  A    between atoms: _22  and  _66
REMARK    4  A    between atoms: _27  and  _30
REMARK    5  A    between atoms: _32  and  _33
REMARK    6  A    between atoms: _38  and  _43
REMARK    7  A    between atoms: _43  and  _46
REMARK    8  A    between atoms: _53  and  _55
REMARK                            x       y       z     vdW  Elec       q    Type
REMARK                         _______ _______ _______ _____ _____    ______ ____
ROOT
ATOM     10  C   UNL     1      -2.916  -5.181  -4.807  0.00  0.00    +0.038 A 
ATOM     11  C   UNL     1      -2.961  -3.831  -4.375  0.00  0.00    +0.047 A 
ATOM     12  C   UNL     1      -1.794  -3.189  -3.791  0.00  0.00    +0.035 A 
ATOM     32  C   UNL     1      -0.595  -3.951  -3.665  0.00  0.00    +0.024 A 
ATOM     33  C   UNL     1      -0.532  -5.324  -4.098  0.00  0.00    +0.007 A 
ATOM     34  C   UNL     1      -1.682  -5.964  -4.673  0.00  0.00    -0.029 A 
ATOM     35  C   UNL     1      -1.559  -7.441  -5.114  0.00  0.00    +0.045 C 
ENDROOT
BRANCH  10   9
ATOM      4  C   UNL     1      -5.552  -6.598  -8.560  0.00  0.00    +0.077 A 
ATOM      5  C   UNL     1      -4.565  -6.147  -9.499  0.00  0.00    +0.048 A 
ATOM      6  C   UNL     1      -3.396  -5.549  -8.975  0.00  0.00    +0.116 A 
ATOM      7  N   UNL     1      -3.237  -5.418  -7.612  0.00  0.00    -0.223 NA
ATOM      8  C   UNL     1      -4.209  -5.862  -6.735  0.00  0.00    +0.220 A 
ATOM      9  N   UNL     1      -4.066  -5.748  -5.361  0.00  0.00    -0.283 N 
ATOM     36  H   UNL     1      -4.809  -6.081  -4.747  0.00  0.00    +0.155 HD
ATOM     37  N   UNL     1      -5.335  -6.435  -7.210  0.00  0.00    -0.214 NA
BRANCH   4   3
ATOM      1  C   UNL     1      -8.344  -8.385 -10.635  0.00  0.00    +0.020 A 
ATOM      2  C   UNL     1      -7.085  -7.761 -10.302  0.00  0.00    +0.013 A 
ATOM      3  C   UNL     1      -6.838  -7.252  -8.959  0.00  0.00    +0.019 A 
ATOM     38  C   UNL     1      -7.894  -7.393  -7.968  0.00  0.00    +0.120 A 
ATOM     39  N   UNL     1      -9.097  -7.998  -8.318  0.00  0.00    -0.263 NA
ATOM     40  C   UNL     1      -9.347  -8.489  -9.608  0.00  0.00    +0.111 A 
ENDBRANCH   4   3
ENDBRANCH  10   9
BRANCH  12  13
ATOM     13  N   UNL     1      -1.782  -1.824  -3.326  0.00  0.00    -0.281 N 
ATOM     14  C   UNL     1      -1.702  -0.667  -4.084  0.00  0.00    +0.248 C 
ATOM     30  O   UNL     1      -1.412  -0.637  -5.271  0.00  0.00    -0.270 OA
ATOM     31  H   UNL     1      -1.839  -1.695  -2.316  0.00  0.00    +0.155 HD
BRANCH  14  15
ATOM     15  C   UNL     1      -1.969   0.648  -3.425  0.00  0.00    +0.037 A 
ATOM     16  C   UNL     1      -2.270   0.733  -1.994  0.00  0.00    +0.013 A 
ATOM     17  C   UNL     1      -2.541   2.012  -1.387  0.00  0.00    +0.005 A 
ATOM     18  C   UNL     1      -2.510   3.218  -2.212  0.00  0.00    -0.033 A 
ATOM     28  C   UNL     1      -2.203   3.105  -3.628  0.00  0.00    +0.005 A 
ATOM     29  C   UNL     1      -1.938   1.852  -4.227  0.00  0.00    +0.013 A 
BRANCH  18  19
ATOM     19  C   UNL     1      -2.806   4.622  -1.653  0.00  0.00    +0.119 C 
BRANCH  19  20
ATOM     20  N   UNL     1      -1.646   5.543  -1.468  0.00  0.00    -0.302 NA
ATOM     21  C   UNL     1      -1.221   6.203  -2.782  0.00  0.00    +0.066 C 
ATOM     22  C   UNL     1      -0.020   7.181  -2.566  0.00  0.00    -0.064 C 
ATOM     23  N   UNL     1       1.149   6.418  -1.940  0.00  0.00    +0.379 N 
ATOM     24  C   UNL     1       2.299   7.322  -1.789  0.00  0.00    -0.096 C 
ATOM     25  H   UNL     1       1.444   5.611  -2.650  0.00  0.00    -0.082 HD
ATOM     26  C   UNL     1       0.734   5.756  -0.634  0.00  0.00    -0.064 C 
ATOM     27  C   UNL     1      -0.478   4.809  -0.855  0.00  0.00    +0.066 C 
ENDBRANCH  19  20
ENDBRANCH  18  19
ENDBRANCH  14  15
ENDBRANCH  12  13
TORSDOF 6
ENDMDL
MODEL 3
REMARK VINA RESULT:     -10.8      5.120     13.306
REMARK  Name = C:\Users\Docking\Desktop\test protocol\1iep_ligandH.pdb
REMARK  8 active torsions:
REMARK  status: ('A' for Active; 'I' for Inactive)
REMARK    1  A    between atoms: _5  and  _11
REMARK    2  A    between atoms: _19  and  _21
REMARK    3  A    between atoms: _22  and  _66
REMARK    4  A    between atoms: _27  and  _30
REMARK    5  A    between atoms: _32  and  _33
REMARK    6  A    between atoms: _38  and  _43
REMARK    7  A    between atoms: _43  and  _46
REMARK    8  A    between atoms: _53  and  _55
REMARK                            x       y       z     vdW  Elec       q    Type
REMARK                         _______ _______ _______ _____ _____    ______ ____
ROOT
ATOM     10  C   UNL     1      -3.646  -6.089  -6.349  0.00  0.00    +0.038 A 
ATOM     11  C   UNL     1      -5.014  -6.380  -6.579  0.00  0.00    +0.047 A 
ATOM     12  C   UNL     1      -5.525  -6.581  -7.926  0.00  0.00    +0.035 A 
ATOM     32  C   UNL     1      -4.611  -6.481  -9.016  0.00  0.00    +0.024 A 
ATOM     33  C   UNL     1      -3.217  -6.185  -8.800  0.00  0.00    +0.007 A 
ATOM     34  C   UNL     1      -2.709  -5.983  -7.474  0.00  0.00    -0.029 A 
ATOM     35  C   UNL     1      -1.206  -5.662  -7.302  0.00  0.00    +0.045 C 
ENDROOT
BRANCH  10   9
ATOM      4  C   UNL     1      -1.940  -3.345  -2.799  0.00  0.00    +0.077 A 
ATOM      5  C   UNL     1      -1.888  -2.185  -3.641  0.00  0.00    +0.048 A 
ATOM      6  C   UNL     1      -2.301  -2.339  -4.984  0.00  0.00    +0.116 A 
ATOM      7  N   UNL     1      -2.734  -3.565  -5.439  0.00  0.00    -0.223 NA
ATOM      8  C   UNL     1      -2.771  -4.664  -4.600  0.00  0.00    +0.220 A 
ATOM      9  N   UNL     1      -3.210  -5.906  -5.034  0.00  0.00    -0.283 N 
ATOM     36  H   UNL     1      -3.215  -6.693  -4.387  0.00  0.00    +0.155 HD
ATOM     37  N   UNL     1      -2.380  -4.544  -3.315  0.00  0.00    -0.214 NA
BRANCH   4   3
ATOM      1  C   UNL     1      -0.062  -2.607   0.552  0.00  0.00    +0.020 A 
ATOM      2  C   UNL     1      -0.407  -2.576  -0.851  0.00  0.00    +0.013 A 
ATOM      3  C   UNL     1      -1.539  -3.342  -1.357  0.00  0.00    +0.019 A 
ATOM     38  C   UNL     1      -2.309  -4.134  -0.409  0.00  0.00    +0.120 A 
ATOM     39  N   UNL     1      -1.953  -4.145   0.936  0.00  0.00    -0.263 NA
ATOM     40  C   UNL     1      -0.864  -3.414   1.434  0.00  0.00    +0.111 A 
ENDBRANCH   4   3
ENDBRANCH  10   9
BRANCH  12  13
ATOM     13  N   UNL     1      -6.906  -6.871  -8.222  0.00  0.00    -0.281 N 
ATOM     14  C   UNL     1      -7.425  -7.479  -9.354  0.00  0.00    +0.248 C 
ATOM     30  O   UNL     1      -6.796  -7.673 -10.384  0.00  0.00    -0.270 OA
ATOM     31  H   UNL     1      -7.583  -6.595  -7.511  0.00  0.00    +0.155 HD
BRANCH  14  15
ATOM     15  C   UNL     1      -8.852  -7.921  -9.346  0.00  0.00    +0.037 A 
ATOM     16  C   UNL     1      -9.551  -8.256 -10.589  0.00  0.00    +0.013 A 
ATOM     17  C   UNL     1     -10.934  -8.663 -10.554  0.00  0.00    +0.005 A 
ATOM     18  C   UNL     1     -11.626  -8.740  -9.270  0.00  0.00    -0.033 A 
ATOM     28  C   UNL     1     -10.907  -8.407  -8.051  0.00  0.00    +0.005 A 
ATOM     29  C   UNL     1      -9.552  -8.006  -8.082  0.00  0.00    +0.013 A 
BRANCH  18  19
ATOM     19  C   UNL     1     -13.106  -9.145  -9.140  0.00  0.00    +0.119 C 
BRANCH  19  20
ATOM     20  N   UNL     1     -13.752  -9.765 -10.335  0.00  0.00    -0.302 NA
ATOM     21  C   UNL     1     -14.272  -8.712 -11.318  0.00  0.00    +0.066 C 
ATOM     22  C   UNL     1     -14.925  -9.379 -12.573  0.00  0.00    -0.064 C 
ATOM     23  N   UNL     1     -16.056 -10.306 -12.124  0.00  0.00    +0.379 N 
ATOM     24  C   UNL     1     -16.710 -10.889 -13.305  0.00  0.00    -0.096 C 
ATOM     25  H   UNL     1     -16.812  -9.683 -11.592  0.00  0.00    -0.082 HD
ATOM     26  C   UNL     1     -15.548 -11.354 -11.144  0.00  0.00    -0.064 C 
ATOM     27  C   UNL     1     -14.875 -10.681  -9.915  0.00  0.00    +0.066 C 
ENDBRANCH  19  20
ENDBRANCH  18  19
ENDBRANCH  14  15
ENDBRANCH  12  13
TORSDOF 6
ENDMDL
MODEL 4
REMARK VINA RESULT:     -10.6      7.399     13.433
REMARK  Name = C:\Users\Docking\Desktop\test protocol\1iep_ligandH.pdb
REMARK  8 active torsions:
REMARK  status: ('A' for Active; 'I' for Inactive)
REMARK    1  A    between atoms: _5  and  _11
REMARK    2  A    between atoms: _19  and  _21
REMARK    3  A    between atoms: _22  and  _66
REMARK    4  A    between atoms: _27  and  _30
REMARK    5  A    between atoms: _32  and  _33
REMARK    6  A    between atoms: _38  and  _43
REMARK    7  A    between atoms: _43  and  _46
REMARK    8  A    between atoms: _53  and  _55
REMARK                            x       y       z     vdW  Elec       q    Type
REMARK                         _______ _______ _______ _____ _____    ______ ____
ROOT
ATOM     10  C   UNL     1     -14.768 -10.543  -9.135  0.00  0.00    +0.038 A 
ATOM     11  C   UNL     1     -13.490  -9.949  -9.299  0.00  0.00    +0.047 A 
ATOM     12  C   UNL     1     -12.309 -10.520  -8.671  0.00  0.00    +0.035 A 
ATOM     32  C   UNL     1     -12.465 -11.697  -7.883  0.00  0.00    +0.024 A 
ATOM     33  C   UNL     1     -13.756 -12.313  -7.705  0.00  0.00    +0.007 A 
ATOM     34  C   UNL     1     -14.925 -11.754  -8.320  0.00  0.00    -0.029 A 
ATOM     35  C   UNL     1     -16.285 -12.452  -8.088  0.00  0.00    +0.045 C 
ENDROOT
BRANCH  10   9
ATOM      4  C   UNL     1     -17.655  -9.923 -12.918  0.00  0.00    +0.077 A 
ATOM      5  C   UNL     1     -16.891 -10.831 -13.725  0.00  0.00    +0.048 A 
ATOM      6  C   UNL     1     -15.759 -11.431 -13.130  0.00  0.00    +0.116 A 
ATOM      7  N   UNL     1     -15.424 -11.138 -11.826  0.00  0.00    -0.223 NA
ATOM      8  C   UNL     1     -16.182 -10.256 -11.077  0.00  0.00    +0.220 A 
ATOM      9  N   UNL     1     -15.868  -9.953  -9.761  0.00  0.00    -0.283 N 
ATOM     36  H   UNL     1     -16.448  -9.292  -9.244  0.00  0.00    +0.155 HD
ATOM     37  N   UNL     1     -17.267  -9.669 -11.622  0.00  0.00    -0.214 NA
BRANCH   4   3
ATOM      1  C   UNL     1     -20.880  -8.988 -14.925  0.00  0.00    +0.020 A 
ATOM      2  C   UNL     1     -19.706  -9.712 -14.495  0.00  0.00    +0.013 A 
ATOM      3  C   UNL     1     -18.881  -9.212 -13.403  0.00  0.00    +0.019 A 
ATOM     38  C   UNL     1     -19.274  -7.968 -12.760  0.00  0.00    +0.120 A 
ATOM     39  N   UNL     1     -20.409  -7.291 -13.196  0.00  0.00    -0.263 NA
ATOM     40  C   UNL     1     -21.210  -7.761 -14.248  0.00  0.00    +0.111 A 
ENDBRANCH   4   3
ENDBRANCH  10   9
BRANCH  12  13
ATOM     13  N   UNL     1     -10.987  -9.957  -8.796  0.00  0.00    -0.281 N 
ATOM     14  C   UNL     1     -10.419  -9.357  -9.908  0.00  0.00    +0.248 C 
ATOM     30  O   UNL     1     -10.888  -9.405 -11.035  0.00  0.00    -0.270 OA
ATOM     31  H   UNL     1     -10.400 -10.006  -7.964  0.00  0.00    +0.155 HD
BRANCH  14  15
ATOM     15  C   UNL     1      -9.136  -8.607  -9.747  0.00  0.00    +0.037 A 
ATOM     16  C   UNL     1      -8.834  -7.872  -8.516  0.00  0.00    +0.013 A 
ATOM     17  C   UNL     1      -7.597  -7.143  -8.394  0.00  0.00    +0.005 A 
ATOM     18  C   UNL     1      -6.650  -7.147  -9.506  0.00  0.00    -0.033 A 
ATOM     28  C   UNL     1      -6.972  -7.889 -10.714  0.00  0.00    +0.005 A 
ATOM     29  C   UNL     1      -8.185  -8.604 -10.838  0.00  0.00    +0.013 A 
BRANCH  18  19
ATOM     19  C   UNL     1      -5.315  -6.380  -9.471  0.00  0.00    +0.119 C 
BRANCH  19  20
ATOM     20  N   UNL     1      -4.388  -6.672  -8.337  0.00  0.00    -0.302 NA
ATOM     21  C   UNL     1      -5.018  -6.340  -6.981  0.00  0.00    +0.066 C 
ATOM     22  C   UNL     1      -4.043  -6.672  -5.805  0.00  0.00    -0.064 C 
ATOM     23  N   UNL     1      -2.735  -5.903  -5.997  0.00  0.00    +0.379 N 
ATOM     24  C   UNL     1      -1.839  -6.168  -4.863  0.00  0.00    -0.096 C 
ATOM     25  H   UNL     1      -2.978  -4.815  -5.990  0.00  0.00    -0.082 HD
ATOM     26  C   UNL     1      -2.104  -6.225  -7.345  0.00  0.00    -0.064 C 
ATOM     27  C   UNL     1      -3.091  -5.919  -8.505  0.00  0.00    +0.066 C 
ENDBRANCH  19  20
ENDBRANCH  18  19
ENDBRANCH  14  15
ENDBRANCH  12  13
TORSDOF 6
ENDMDL
MODEL 5
REMARK VINA RESULT:     -10.5      5.042     13.214
REMARK  Name = C:\Users\Docking\Desktop\test protocol\1iep_ligandH.pdb
REMARK  8 active torsions:
REMARK  status: ('A' for Active; 'I' for Inactive)
REMARK    1  A    between atoms: _5  and  _11
REMARK    2  A    between atoms: _19  and  _21
REMARK    3  A    between atoms: _22  and  _66
REMARK    4  A    between atoms: _27  and  _30
REMARK    5  A    between atoms: _32  and  _33
REMARK    6  A    between atoms: _38  and  _43
REMARK    7  A    between atoms: _43  and  _46
REMARK    8  A    between atoms: _53  and  _55
REMARK                            x       y       z     vdW  Elec       q    Type
REMARK                         _______ _______ _______ _____ _____    ______ ____
ROOT
ATOM     10  C   UNL     1      -3.662  -6.063  -6.369  0.00  0.00    +0.038 A 
ATOM     11  C   UNL     1      -5.012  -6.354  -6.694  0.00  0.00    +0.047 A 
ATOM     12  C   UNL     1      -5.426  -6.564  -8.073  0.00  0.00    +0.035 A 
ATOM     32  C   UNL     1      -4.438  -6.472  -9.096  0.00  0.00    +0.024 A 
ATOM     33  C   UNL     1      -3.062  -6.176  -8.784  0.00  0.00    +0.007 A 
ATOM     34  C   UNL     1      -2.648  -5.966  -7.426  0.00  0.00    -0.029 A 
ATOM     35  C   UNL     1      -1.161  -5.645  -7.150  0.00  0.00    +0.045 C 
ENDROOT
BRANCH  10   9
ATOM      4  C   UNL     1      -2.136  -3.315  -2.742  0.00  0.00    +0.077 A 
ATOM      5  C   UNL     1      -1.981  -2.172  -3.595  0.00  0.00    +0.048 A 
ATOM      6  C   UNL     1      -2.298  -2.335  -4.963  0.00  0.00    +0.116 A 
ATOM      7  N   UNL     1      -2.737  -3.555  -5.431  0.00  0.00    -0.223 NA
ATOM      8  C   UNL     1      -2.873  -4.638  -4.581  0.00  0.00    +0.220 A 
ATOM      9  N   UNL     1      -3.320  -5.871  -5.029  0.00  0.00    -0.283 N 
ATOM     36  H   UNL     1      -3.401  -6.647  -4.372  0.00  0.00    +0.155 HD
ATOM     37  N   UNL     1      -2.576  -4.508  -3.272  0.00  0.00    -0.214 NA
BRANCH   4   3
ATOM      1  C   UNL     1      -1.772  -4.384   1.003  0.00  0.00    +0.020 A 
ATOM      2  C   UNL     1      -2.071  -4.451  -0.409  0.00  0.00    +0.013 A 
ATOM      3  C   UNL     1      -1.844  -3.300  -1.274  0.00  0.00    +0.019 A 
ATOM     38  C   UNL     1      -1.310  -2.087  -0.674  0.00  0.00    +0.120 A 
ATOM     39  N   UNL     1      -1.033  -2.051   0.689  0.00  0.00    -0.263 NA
ATOM     40  C   UNL     1      -1.248  -3.152   1.532  0.00  0.00    +0.111 A 
ENDBRANCH   4   3
ENDBRANCH  10   9
BRANCH  12  13
ATOM     13  N   UNL     1      -6.783  -6.854  -8.464  0.00  0.00    -0.281 N 
ATOM     14  C   UNL     1      -7.223  -7.453  -9.633  0.00  0.00    +0.248 C 
ATOM     30  O   UNL     1      -6.526  -7.637 -10.619  0.00  0.00    -0.270 OA
ATOM     31  H   UNL     1      -7.507  -6.586  -7.797  0.00  0.00    +0.155 HD
BRANCH  14  15
ATOM     15  C   UNL     1      -8.647  -7.898  -9.725  0.00  0.00    +0.037 A 
ATOM     16  C   UNL     1      -9.224  -8.341 -10.996  0.00  0.00    +0.013 A 
ATOM     17  C   UNL     1     -10.605  -8.749 -11.060  0.00  0.00    +0.005 A 
ATOM     18  C   UNL     1     -11.418  -8.718  -9.847  0.00  0.00    -0.033 A 
ATOM     28  C   UNL     1     -10.819  -8.279  -8.598  0.00  0.00    +0.005 A 
ATOM     29  C   UNL     1      -9.466  -7.877  -8.531  0.00  0.00    +0.013 A 
BRANCH  18  19
ATOM     19  C   UNL     1     -12.906  -9.116  -9.827  0.00  0.00    +0.119 C 
BRANCH  19  20
ATOM     20  N   UNL     1     -13.353 -10.037  -8.740  0.00  0.00    -0.302 NA
ATOM     21  C   UNL     1     -12.317 -11.126  -8.448  0.00  0.00    +0.066 C 
ATOM     22  C   UNL     1     -12.791 -12.067  -7.293  0.00  0.00    -0.064 C 
ATOM     23  N   UNL     1     -14.140 -12.687  -7.664  0.00  0.00    +0.379 N 
ATOM     24  C   UNL     1     -14.560 -13.617  -6.606  0.00  0.00    -0.096 C 
ATOM     25  H   UNL     1     -13.994 -13.279  -8.597  0.00  0.00    -0.082 HD
ATOM     26  C   UNL     1     -15.174 -11.610  -7.958  0.00  0.00    -0.064 C 
ATOM     27  C   UNL     1     -14.681 -10.663  -9.087  0.00  0.00    +0.066 C 
ENDBRANCH  19  20
ENDBRANCH  18  19
ENDBRANCH  14  15
ENDBRANCH  12  13
TORSDOF 6
ENDMDL
