MODEL 1
REMARK VINA RESULT:      -9.8      0.000      0.000
REMARK  Name = C:\Users\Docking\Desktop\test protocol\1iep_ligandH.pdb
REMARK  8 active torsions:
REMARK  status: ('A' for Active; 'I' for Inactive)
REMARK    1  A    between atoms: _5  and  _11
REMARK    2  A    between atoms: _19  and  _21
REMARK    3  A    between atoms: _22  and  _66
REMARK    4  A    between atoms: _27  and  _30
REMARK    5  A    between atoms: _32  and  _33
REMARK    6  A    between atoms: _38  and  _43
REMARK    7  A    between atoms: _43  and  _46
REMARK    8  A    between atoms: _53  and  _55
REMARK                            x       y       z     vdW  Elec       q    Type
REMARK                         _______ _______ _______ _____ _____    ______ ____
ROOT
ATOM     10  C   UNL     1      20.158  -8.514  12.944  0.00  0.00    +0.038 A 
ATOM     11  C   UNL     1      21.390  -7.827  13.097  0.00  0.00    +0.047 A 
ATOM     12  C   UNL     1      22.124  -7.332  11.942  0.00  0.00    +0.035 A 
ATOM     32  C   UNL     1      21.572  -7.552  10.647  0.00  0.00    +0.024 A 
ATOM     33  C   UNL     1      20.323  -8.249  10.473  0.00  0.00    +0.007 A 
ATOM     34  C   UNL     1      19.595  -8.742  11.608  0.00  0.00    -0.029 A 
ATOM     35  C   UNL     1      18.263  -9.488  11.362  0.00  0.00    +0.045 C 
ENDROOT
BRANCH  10   9
ATOM      4  C   UNL     1      17.690  -7.749  16.989  0.00  0.00    +0.077 A 
ATOM      5  C   UNL     1      17.747  -6.325  16.825  0.00  0.00    +0.048 A 
ATOM      6  C   UNL     1      18.428  -5.830  15.690  0.00  0.00    +0.116 A 
ATOM      7  N   UNL     1      19.004  -6.703  14.793  0.00  0.00    -0.223 NA
ATOM      8  C   UNL     1      18.931  -8.071  14.981  0.00  0.00    +0.220 A 
ATOM      9  N   UNL     1      19.496  -8.967  14.087  0.00  0.00    -0.283 N 
ATOM     36  H   UNL     1      19.427  -9.969  14.266  0.00  0.00    +0.155 HD
ATOM     37  N   UNL     1      18.288  -8.569  16.058  0.00  0.00    -0.214 NA
BRANCH   4   3
ATOM      1  C   UNL     1      16.181  -8.501  20.519  0.00  0.00    +0.020 A 
ATOM      2  C   UNL     1      16.853  -7.806  19.445  0.00  0.00    +0.013 A 
ATOM      3  C   UNL     1      17.003  -8.425  18.135  0.00  0.00    +0.019 A 
ATOM     38  C   UNL     1      16.458  -9.761  17.942  0.00  0.00    +0.120 A 
ATOM     39  N   UNL     1      15.817 -10.407  18.994  0.00  0.00    -0.263 NA
ATOM     40  C   UNL     1      15.668  -9.821  20.260  0.00  0.00    +0.111 A 
ENDBRANCH   4   3
ENDBRANCH  10   9
BRANCH  12  13
ATOM     13  N   UNL     1      23.382  -6.635  12.035  0.00  0.00    -0.281 N 
ATOM     14  C   UNL     1      23.800  -5.532  11.309  0.00  0.00    +0.248 C 
ATOM     30  O   UNL     1      23.235  -5.105  10.313  0.00  0.00    -0.270 OA
ATOM     31  H   UNL     1      24.046  -6.999  12.720  0.00  0.00    +0.155 HD
BRANCH  14  15
ATOM     15  C   UNL     1      25.033  -4.806  11.743  0.00  0.00    +0.037 A 
ATOM     16  C   UNL     1      24.965  -3.694  12.694  0.00  0.00    +0.013 A 
ATOM     17  C   UNL     1      26.167  -3.000  13.083  0.00  0.00    +0.005 A 
ATOM     18  C   UNL     1      27.449  -3.419  12.521  0.00  0.00    -0.033 A 
ATOM     28  C   UNL     1      27.488  -4.529  11.584  0.00  0.00    +0.005 A 
ATOM     29  C   UNL     1      26.312  -5.210  11.199  0.00  0.00    +0.013 A 
BRANCH  18  19
ATOM     19  C   UNL     1      28.779  -2.722  12.863  0.00  0.00    +0.119 C 
BRANCH  19  20
ATOM     20  N   UNL     1      30.030  -3.525  12.712  0.00  0.00    -0.302 NA
ATOM     21  C   UNL     1      30.862  -3.540  13.997  0.00  0.00    +0.066 C 
ATOM     22  C   UNL     1      32.155  -4.402  13.827  0.00  0.00    -0.064 C 
ATOM     23  N   UNL     1      32.977  -3.859  12.656  0.00  0.00    +0.379 N 
ATOM     24  C   UNL     1      34.222  -4.632  12.531  0.00  0.00    -0.096 C 
ATOM     25  H   UNL     1      33.254  -2.807  12.897  0.00  0.00    -0.082 HD
ATOM     26  C   UNL     1      32.156  -3.838  11.375  0.00  0.00    -0.064 C 
ATOM     27  C   UNL     1      30.859  -3.003  11.563  0.00  0.00    +0.066 C 
ENDBRANCH  19  20
ENDBRANCH  18  19
ENDBRANCH  14  15
ENDBRANCH  12  13
TORSDOF 6
ENDMDL
MODEL 2
REMARK VINA RESULT:      -9.2      1.462      2.025
REMARK  Name = C:\Users\Docking\Desktop\test protocol\1iep_ligandH.pdb
REMARK  8 active torsions:
REMARK  status: ('A' for Active; 'I' for Inactive)
REMARK    1  A    between atoms: _5  and  _11
REMARK    2  A    between atoms: _19  and  _21
REMARK    3  A    between atoms: _22  and  _66
REMARK    4  A    between atoms: _27  and  _30
REMARK    5  A    between atoms: _32  and  _33
REMARK    6  A    between atoms: _38  and  _43
REMARK    7  A    between atoms: _43  and  _46
REMARK    8  A    between atoms: _53  and  _55
REMARK                            x       y       z     vdW  Elec       q    Type
REMARK                         _______ _______ _______ _____ _____    ______ ____
ROOT
ATOM     10  C   UNL     1      20.144  -8.319  11.464  0.00  0.00    +0.038 A 
ATOM     11  C   UNL     1      21.431  -7.761  11.673  0.00  0.00    +0.047 A 
ATOM     12  C   UNL     1      22.238  -7.293  10.557  0.00  0.00    +0.035 A 
ATOM     32  C   UNL     1      21.702  -7.407   9.241  0.00  0.00    +0.024 A 
ATOM     33  C   UNL     1      20.396  -7.973   9.011  0.00  0.00    +0.007 A 
ATOM     34  C   UNL     1      19.596  -8.438  10.107  0.00  0.00    -0.029 A 
ATOM     35  C   UNL     1      18.206  -9.041   9.801  0.00  0.00    +0.045 C 
ENDROOT
BRANCH  10   9
ATOM      4  C   UNL     1      18.782  -7.934  16.051  0.00  0.00    +0.077 A 
ATOM      5  C   UNL     1      19.621  -6.791  16.266  0.00  0.00    +0.048 A 
ATOM      6  C   UNL     1      20.393  -6.337  15.172  0.00  0.00    +0.116 A 
ATOM      7  N   UNL     1      20.322  -6.987  13.959  0.00  0.00    -0.223 NA
ATOM      8  C   UNL     1      19.504  -8.088  13.786  0.00  0.00    +0.220 A 
ATOM      9  N   UNL     1      19.411  -8.751  12.572  0.00  0.00    -0.283 N 
ATOM     36  H   UNL     1      18.802  -9.564  12.487  0.00  0.00    +0.155 HD
ATOM     37  N   UNL     1      18.758  -8.541  14.815  0.00  0.00    -0.214 NA
BRANCH   4   3
ATOM      1  C   UNL     1      16.941  -8.596  19.438  0.00  0.00    +0.020 A 
ATOM      2  C   UNL     1      17.804  -7.983  18.454  0.00  0.00    +0.013 A 
ATOM      3  C   UNL     1      17.905  -8.530  17.108  0.00  0.00    +0.019 A 
ATOM     38  C   UNL     1      17.114  -9.709  16.786  0.00  0.00    +0.120 A 
ATOM     39  N   UNL     1      16.294 -10.279  17.754  0.00  0.00    -0.263 NA
ATOM     40  C   UNL     1      16.189  -9.761  19.054  0.00  0.00    +0.111 A 
ENDBRANCH   4   3
ENDBRANCH  10   9
BRANCH  12  13
ATOM     13  N   UNL     1      23.555  -6.725  10.707  0.00  0.00    -0.281 N 
ATOM     14  C   UNL     1      23.909  -5.386  10.711  0.00  0.00    +0.248 C 
ATOM     30  O   UNL     1      23.170  -4.474  10.371  0.00  0.00    -0.270 OA
ATOM     31  H   UNL     1      24.319  -7.391  10.824  0.00  0.00    +0.155 HD
BRANCH  14  15
ATOM     15  C   UNL     1      25.289  -5.006  11.142  0.00  0.00    +0.037 A 
ATOM     16  C   UNL     1      26.472  -5.608  10.522  0.00  0.00    +0.013 A 
ATOM     17  C   UNL     1      27.791  -5.236  10.968  0.00  0.00    +0.005 A 
ATOM     18  C   UNL     1      27.934  -4.254  12.040  0.00  0.00    -0.033 A 
ATOM     28  C   UNL     1      26.744  -3.668  12.634  0.00  0.00    +0.005 A 
ATOM     29  C   UNL     1      25.449  -4.031  12.200  0.00  0.00    +0.013 A 
BRANCH  18  19
ATOM     19  C   UNL     1      29.302  -3.813  12.594  0.00  0.00    +0.119 C 
BRANCH  19  20
ATOM     20  N   UNL     1      30.100  -2.861  11.765  0.00  0.00    -0.302 NA
ATOM     21  C   UNL     1      30.964  -3.585  10.728  0.00  0.00    +0.066 C 
ATOM     22  C   UNL     1      31.775  -2.572   9.856  0.00  0.00    -0.064 C 
ATOM     23  N   UNL     1      32.640  -1.698  10.766  0.00  0.00    +0.379 N 
ATOM     24  C   UNL     1      33.447  -0.784   9.944  0.00  0.00    -0.096 C 
ATOM     25  H   UNL     1      33.341  -2.370  11.313  0.00  0.00    -0.082 HD
ATOM     26  C   UNL     1      31.789  -0.976  11.801  0.00  0.00    -0.064 C 
ATOM     27  C   UNL     1      30.965  -1.990  12.643  0.00  0.00    +0.066 C 
ENDBRANCH  19  20
ENDBRANCH  18  19
ENDBRANCH  14  15
ENDBRANCH  12  13
TORSDOF 6
ENDMDL
MODEL 3
REMARK VINA RESULT:      -9.1      7.122     12.191
REMARK  Name = C:\Users\Docking\Desktop\test protocol\1iep_ligandH.pdb
REMARK  8 active torsions:
REMARK  status: ('A' for Active; 'I' for Inactive)
REMARK    1  A    between atoms: _5  and  _11
REMARK    2  A    between atoms: _19  and  _21
REMARK    3  A    between atoms: _22  and  _66
REMARK    4  A    between atoms: _27  and  _30
REMARK    5  A    between atoms: _32  and  _33
REMARK    6  A    between atoms: _38  and  _43
REMARK    7  A    between atoms: _43  and  _46
REMARK    8  A    between atoms: _53  and  _55
REMARK                            x       y       z     vdW  Elec       q    Type
REMARK                         _______ _______ _______ _____ _____    ______ ____
ROOT
ATOM     10  C   UNL     1      15.809  -6.986  23.947  0.00  0.00    +0.038 A 
ATOM     11  C   UNL     1      16.573  -7.200  22.771  0.00  0.00    +0.047 A 
ATOM     12  C   UNL     1      16.006  -7.887  21.621  0.00  0.00    +0.035 A 
ATOM     32  C   UNL     1      14.657  -8.340  21.701  0.00  0.00    +0.024 A 
ATOM     33  C   UNL     1      13.867  -8.132  22.889  0.00  0.00    +0.007 A 
ATOM     34  C   UNL     1      14.421  -7.458  24.028  0.00  0.00    -0.029 A 
ATOM     35  C   UNL     1      13.530  -7.268  25.278  0.00  0.00    +0.045 C 
ENDROOT
BRANCH  10   9
ATOM      4  C   UNL     1      17.090  -2.980  26.260  0.00  0.00    +0.077 A 
ATOM      5  C   UNL     1      16.554  -2.142  25.227  0.00  0.00    +0.048 A 
ATOM      6  C   UNL     1      15.964  -2.781  24.114  0.00  0.00    +0.116 A 
ATOM      7  N   UNL     1      15.918  -4.157  24.049  0.00  0.00    -0.223 NA
ATOM      8  C   UNL     1      16.445  -4.936  25.062  0.00  0.00    +0.220 A 
ATOM      9  N   UNL     1      16.403  -6.321  25.022  0.00  0.00    -0.283 N 
ATOM     36  H   UNL     1      16.810  -6.860  25.786  0.00  0.00    +0.155 HD
ATOM     37  N   UNL     1      17.016  -4.350  26.136  0.00  0.00    -0.214 NA
BRANCH   4   3
ATOM      1  C   UNL     1      19.702  -1.478  28.755  0.00  0.00    +0.020 A 
ATOM      2  C   UNL     1      19.119  -1.977  27.531  0.00  0.00    +0.013 A 
ATOM      3  C   UNL     1      17.742  -2.454  27.501  0.00  0.00    +0.019 A 
ATOM     38  C   UNL     1      16.976  -2.412  28.737  0.00  0.00    +0.120 A 
ATOM     39  N   UNL     1      17.563  -1.927  29.901  0.00  0.00    -0.263 NA
ATOM     40  C   UNL     1      18.888  -1.467  29.942  0.00  0.00    +0.111 A 
ENDBRANCH   4   3
ENDBRANCH  10   9
BRANCH  12  13
ATOM     13  N   UNL     1      16.736  -8.139  20.403  0.00  0.00    -0.281 N 
ATOM     14  C   UNL     1      16.445  -9.063  19.412  0.00  0.00    +0.248 C 
ATOM     30  O   UNL     1      15.628  -9.965  19.526  0.00  0.00    -0.270 OA
ATOM     31  H   UNL     1      17.568  -7.568  20.253  0.00  0.00    +0.155 HD
BRANCH  14  15
ATOM     15  C   UNL     1      17.179  -8.983  18.113  0.00  0.00    +0.037 A 
ATOM     16  C   UNL     1      17.001 -10.002  17.076  0.00  0.00    +0.013 A 
ATOM     17  C   UNL     1      17.734  -9.910  15.838  0.00  0.00    +0.005 A 
ATOM     18  C   UNL     1      18.650  -8.791  15.630  0.00  0.00    -0.033 A 
ATOM     28  C   UNL     1      18.803  -7.791  16.673  0.00  0.00    +0.005 A 
ATOM     29  C   UNL     1      18.088  -7.879  17.888  0.00  0.00    +0.013 A 
BRANCH  18  19
ATOM     19  C   UNL     1      19.489  -8.624  14.348  0.00  0.00    +0.119 C 
BRANCH  19  20
ATOM     20  N   UNL     1      18.825  -7.978  13.177  0.00  0.00    -0.302 NA
ATOM     21  C   UNL     1      18.012  -8.980  12.352  0.00  0.00    +0.066 C 
ATOM     22  C   UNL     1      17.306  -8.283  11.144  0.00  0.00    -0.064 C 
ATOM     23  N   UNL     1      18.357  -7.592  10.273  0.00  0.00    +0.379 N 
ATOM     24  C   UNL     1      17.703  -6.985   9.104  0.00  0.00    -0.096 C 
ATOM     25  H   UNL     1      19.056  -8.377   9.900  0.00  0.00    -0.082 HD
ATOM     26  C   UNL     1      19.172  -6.596  11.085  0.00  0.00    -0.064 C 
ATOM     27  C   UNL     1      19.845  -7.293  12.301  0.00  0.00    +0.066 C 
ENDBRANCH  19  20
ENDBRANCH  18  19
ENDBRANCH  14  15
ENDBRANCH  12  13
TORSDOF 6
ENDMDL
MODEL 4
REMARK VINA RESULT:      -8.6      5.317     12.840
REMARK  Name = C:\Users\Docking\Desktop\test protocol\1iep_ligandH.pdb
REMARK  8 active torsions:
REMARK  status: ('A' for Active; 'I' for Inactive)
REMARK    1  A    between atoms: _5  and  _11
REMARK    2  A    between atoms: _19  and  _21
REMARK    3  A    between atoms: _22  and  _66
REMARK    4  A    between atoms: _27  and  _30
REMARK    5  A    between atoms: _32  and  _33
REMARK    6  A    between atoms: _38  and  _43
REMARK    7  A    between atoms: _43  and  _46
REMARK    8  A    between atoms: _53  and  _55
REMARK                            x       y       z     vdW  Elec       q    Type
REMARK                         _______ _______ _______ _____ _____    ______ ____
ROOT
ATOM     10  C   UNL     1      30.766  -5.076  12.718  0.00  0.00    +0.038 A 
ATOM     11  C   UNL     1      29.357  -5.237  12.737  0.00  0.00    +0.047 A 
ATOM     12  C   UNL     1      28.625  -5.605  11.534  0.00  0.00    +0.035 A 
ATOM     32  C   UNL     1      29.361  -5.803  10.330  0.00  0.00    +0.024 A 
ATOM     33  C   UNL     1      30.793  -5.642  10.292  0.00  0.00    +0.007 A 
ATOM     34  C   UNL     1      31.520  -5.277  11.475  0.00  0.00    -0.029 A 
ATOM     35  C   UNL     1      33.055  -5.113  11.374  0.00  0.00    +0.045 C 
ENDROOT
BRANCH  10   9
ATOM      4  C   UNL     1      32.470  -1.815  15.799  0.00  0.00    +0.077 A 
ATOM      5  C   UNL     1      32.051  -0.723  14.968  0.00  0.00    +0.048 A 
ATOM      6  C   UNL     1      31.406  -1.044  13.753  0.00  0.00    +0.116 A 
ATOM      7  N   UNL     1      31.201  -2.362  13.404  0.00  0.00    -0.223 NA
ATOM      8  C   UNL     1      31.620  -3.390  14.228  0.00  0.00    +0.220 A 
ATOM      9  N   UNL     1      31.418  -4.722  13.901  0.00  0.00    -0.283 N 
ATOM     36  H   UNL     1      31.748  -5.452  14.532  0.00  0.00    +0.155 HD
ATOM     37  N   UNL     1      32.239  -3.110  15.393  0.00  0.00    -0.214 NA
BRANCH   4   3
ATOM      1  C   UNL     1      33.862  -0.253  19.105  0.00  0.00    +0.020 A 
ATOM      2  C   UNL     1      33.180  -0.371  17.836  0.00  0.00    +0.013 A 
ATOM      3  C   UNL     1      33.162  -1.637  17.116  0.00  0.00    +0.019 A 
ATOM     38  C   UNL     1      33.848  -2.774  17.710  0.00  0.00    +0.120 A 
ATOM     39  N   UNL     1      34.497  -2.631  18.932  0.00  0.00    -0.263 NA
ATOM     40  C   UNL     1      34.523  -1.416  19.634  0.00  0.00    +0.111 A 
ENDBRANCH   4   3
ENDBRANCH  10   9
BRANCH  12  13
ATOM     13  N   UNL     1      27.194  -5.774  11.491  0.00  0.00    -0.281 N 
ATOM     14  C   UNL     1      26.244  -4.880  11.027  0.00  0.00    +0.248 C 
ATOM     30  O   UNL     1      26.466  -3.705  10.774  0.00  0.00    -0.270 OA
ATOM     31  H   UNL     1      26.838  -6.662  11.846  0.00  0.00    +0.155 HD
BRANCH  14  15
ATOM     15  C   UNL     1      24.841  -5.355  10.829  0.00  0.00    +0.037 A 
ATOM     16  C   UNL     1      23.821  -4.486  10.236  0.00  0.00    +0.013 A 
ATOM     17  C   UNL     1      22.470  -4.963  10.072  0.00  0.00    +0.005 A 
ATOM     18  C   UNL     1      22.133  -6.319  10.501  0.00  0.00    -0.033 A 
ATOM     28  C   UNL     1      23.166  -7.161  11.081  0.00  0.00    +0.005 A 
ATOM     29  C   UNL     1      24.490  -6.696  11.244  0.00  0.00    +0.013 A 
BRANCH  18  19
ATOM     19  C   UNL     1      20.713  -6.904  10.383  0.00  0.00    +0.119 C 
BRANCH  19  20
ATOM     20  N   UNL     1      20.103  -6.948   9.021  0.00  0.00    -0.302 NA
ATOM     21  C   UNL     1      18.765  -7.693   9.015  0.00  0.00    +0.066 C 
ATOM     22  C   UNL     1      18.129  -7.711   7.587  0.00  0.00    -0.064 C 
ATOM     23  N   UNL     1      19.110  -8.352   6.603  0.00  0.00    +0.379 N 
ATOM     24  C   UNL     1      18.493  -8.422   5.271  0.00  0.00    -0.096 C 
ATOM     25  H   UNL     1      19.298  -9.396   6.945  0.00  0.00    -0.082 HD
ATOM     26  C   UNL     1      20.444  -7.618   6.605  0.00  0.00    -0.064 C 
ATOM     27  C   UNL     1      21.053  -7.581   8.034  0.00  0.00    +0.066 C 
ENDBRANCH  19  20
ENDBRANCH  18  19
ENDBRANCH  14  15
ENDBRANCH  12  13
TORSDOF 6
ENDMDL
MODEL 5
REMARK VINA RESULT:      -8.6      1.649      2.128
REMARK  Name = C:\Users\Docking\Desktop\test protocol\1iep_ligandH.pdb
REMARK  8 active torsions:
REMARK  status: ('A' for Active; 'I' for Inactive)
REMARK    1  A    between atoms: _5  and  _11
REMARK    2  A    between atoms: _19  and  _21
REMARK    3  A    between atoms: _22  and  _66
REMARK    4  A    between atoms: _27  and  _30
REMARK    5  A    between atoms: _32  and  _33
REMARK    6  A    between atoms: _38  and  _43
REMARK    7  A    between atoms: _43  and  _46
REMARK    8  A    between atoms: _53  and  _55
REMARK                            x       y       z     vdW  Elec       q    Type
REMARK                         _______ _______ _______ _____ _____    ______ ____
ROOT
ATOM     10  C   UNL     1      19.037  -8.938  12.134  0.00  0.00    +0.038 A 
ATOM     11  C   UNL     1      20.257  -8.217  12.095  0.00  0.00    +0.047 A 
ATOM     12  C   UNL     1      20.869  -7.841  10.830  0.00  0.00    +0.035 A 
ATOM     32  C   UNL     1      20.209  -8.215   9.623  0.00  0.00    +0.024 A 
ATOM     33  C   UNL     1      18.968  -8.949   9.644  0.00  0.00    +0.007 A 
ATOM     34  C   UNL     1      18.361  -9.324  10.889  0.00  0.00    -0.029 A 
ATOM     35  C   UNL     1      17.033 -10.116  10.852  0.00  0.00    +0.045 C 
ENDROOT
BRANCH  10   9
ATOM      4  C   UNL     1      17.827  -7.862  16.652  0.00  0.00    +0.077 A 
ATOM      5  C   UNL     1      18.345  -6.529  16.536  0.00  0.00    +0.048 A 
ATOM      6  C   UNL     1      18.921  -6.162  15.299  0.00  0.00    +0.116 A 
ATOM      7  N   UNL     1      18.970  -7.069  14.263  0.00  0.00    -0.223 NA
ATOM      8  C   UNL     1      18.463  -8.347  14.408  0.00  0.00    +0.220 A 
ATOM      9  N   UNL     1      18.494  -9.272  13.377  0.00  0.00    -0.283 N 
ATOM     36  H   UNL     1      18.116 -10.207  13.526  0.00  0.00    +0.155 HD
ATOM     37  N   UNL     1      17.909  -8.722  15.580  0.00  0.00    -0.214 NA
BRANCH   4   3
ATOM      1  C   UNL     1      16.024 -10.211  19.208  0.00  0.00    +0.020 A 
ATOM      2  C   UNL     1      16.632  -9.743  17.984  0.00  0.00    +0.013 A 
ATOM      3  C   UNL     1      17.186  -8.397  17.895  0.00  0.00    +0.019 A 
ATOM     38  C   UNL     1      17.107  -7.545  19.071  0.00  0.00    +0.120 A 
ATOM     39  N   UNL     1      16.513  -8.022  20.235  0.00  0.00    -0.263 NA
ATOM     40  C   UNL     1      15.976  -9.315  20.332  0.00  0.00    +0.111 A 
ENDBRANCH   4   3
ENDBRANCH  10   9
BRANCH  12  13
ATOM     13  N   UNL     1      22.111  -7.116  10.727  0.00  0.00    -0.281 N 
ATOM     14  C   UNL     1      22.442  -6.116   9.828  0.00  0.00    +0.248 C 
ATOM     30  O   UNL     1      21.791  -5.840   8.831  0.00  0.00    -0.270 OA
ATOM     31  H   UNL     1      22.835  -7.371  11.400  0.00  0.00    +0.155 HD
BRANCH  14  15
ATOM     15  C   UNL     1      23.683  -5.317  10.061  0.00  0.00    +0.037 A 
ATOM     16  C   UNL     1      23.617  -3.897  10.414  0.00  0.00    +0.013 A 
ATOM     17  C   UNL     1      24.830  -3.145  10.617  0.00  0.00    +0.005 A 
ATOM     18  C   UNL     1      26.121  -3.813  10.468  0.00  0.00    -0.033 A 
ATOM     28  C   UNL     1      26.157  -5.225  10.122  0.00  0.00    +0.005 A 
ATOM     29  C   UNL     1      24.970  -5.965   9.921  0.00  0.00    +0.013 A 
BRANCH  18  19
ATOM     19  C   UNL     1      27.466  -3.084  10.645  0.00  0.00    +0.119 C 
BRANCH  19  20
ATOM     20  N   UNL     1      28.158  -3.236  11.959  0.00  0.00    -0.302 NA
ATOM     21  C   UNL     1      28.571  -1.885  12.550  0.00  0.00    +0.066 C 
ATOM     22  C   UNL     1      29.274  -2.062  13.936  0.00  0.00    -0.064 C 
ATOM     23  N   UNL     1      30.489  -2.977  13.775  0.00  0.00    +0.379 N 
ATOM     24  C   UNL     1      31.186  -3.098  15.064  0.00  0.00    -0.096 C 
ATOM     25  H   UNL     1      31.188  -2.488  13.057  0.00  0.00    -0.082 HD
ATOM     26  C   UNL     1      30.088  -4.321  13.185  0.00  0.00    -0.064 C 
ATOM     27  C   UNL     1      29.364  -4.133  11.823  0.00  0.00    +0.066 C 
ENDBRANCH  19  20
ENDBRANCH  18  19
ENDBRANCH  14  15
ENDBRANCH  12  13
TORSDOF 6
ENDMDL
