MODEL 1
REMARK VINA RESULT:      -9.3      0.000      0.000
REMARK  Name = C:\Users\Docking\Desktop\test protocol\1iep_ligandH.pdb
REMARK  8 active torsions:
REMARK  status: ('A' for Active; 'I' for Inactive)
REMARK    1  A    between atoms: _5  and  _11
REMARK    2  A    between atoms: _19  and  _21
REMARK    3  A    between atoms: _22  and  _66
REMARK    4  A    between atoms: _27  and  _30
REMARK    5  A    between atoms: _32  and  _33
REMARK    6  A    between atoms: _38  and  _43
REMARK    7  A    between atoms: _43  and  _46
REMARK    8  A    between atoms: _53  and  _55
REMARK                            x       y       z     vdW  Elec       q    Type
REMARK                         _______ _______ _______ _____ _____    ______ ____
ROOT
ATOM     10  C   UNL     1      43.996  34.500  14.904  0.00  0.00    +0.038 A 
ATOM     11  C   UNL     1      43.878  34.289  13.507  0.00  0.00    +0.047 A 
ATOM     12  C   UNL     1      43.991  35.393  12.566  0.00  0.00    +0.035 A 
ATOM     32  C   UNL     1      44.227  36.699  13.084  0.00  0.00    +0.024 A 
ATOM     33  C   UNL     1      44.349  36.933  14.501  0.00  0.00    +0.007 A 
ATOM     34  C   UNL     1      44.236  35.848  15.434  0.00  0.00    -0.029 A 
ATOM     35  C   UNL     1      44.368  36.158  16.943  0.00  0.00    +0.045 C 
ENDROOT
BRANCH  10   9
ATOM      4  C   UNL     1      41.484  31.727  17.910  0.00  0.00    +0.077 A 
ATOM      5  C   UNL     1      40.313  32.546  17.781  0.00  0.00    +0.048 A 
ATOM      6  C   UNL     1      40.401  33.676  16.937  0.00  0.00    +0.116 A 
ATOM      7  N   UNL     1      41.577  33.956  16.276  0.00  0.00    -0.223 NA
ATOM      8  C   UNL     1      42.688  33.146  16.423  0.00  0.00    +0.220 A 
ATOM      9  N   UNL     1      43.879  33.404  15.762  0.00  0.00    -0.283 N 
ATOM     36  H   UNL     1      44.678  32.787  15.903  0.00  0.00    +0.155 HD
ATOM     37  N   UNL     1      42.630  32.062  17.225  0.00  0.00    -0.214 NA
BRANCH   4   3
ATOM      1  C   UNL     1      41.002  29.195  20.852  0.00  0.00    +0.020 A 
ATOM      2  C   UNL     1      40.911  30.406  20.070  0.00  0.00    +0.013 A 
ATOM      3  C   UNL     1      41.546  30.497  18.761  0.00  0.00    +0.019 A 
ATOM     38  C   UNL     1      42.270  29.335  18.269  0.00  0.00    +0.120 A 
ATOM     39  N   UNL     1      42.342  28.182  19.045  0.00  0.00    -0.263 NA
ATOM     40  C   UNL     1      41.736  28.084  20.307  0.00  0.00    +0.111 A 
ENDBRANCH   4   3
ENDBRANCH  10   9
BRANCH  12  13
ATOM     13  N   UNL     1      43.872  35.240  11.138  0.00  0.00    -0.281 N 
ATOM     14  C   UNL     1      44.886  35.040  10.215  0.00  0.00    +0.248 C 
ATOM     30  O   UNL     1      46.076  35.176  10.456  0.00  0.00    -0.270 OA
ATOM     31  H   UNL     1      42.925  35.284  10.760  0.00  0.00    +0.155 HD
BRANCH  14  15
ATOM     15  C   UNL     1      44.524  34.645   8.819  0.00  0.00    +0.037 A 
ATOM     16  C   UNL     1      43.486  35.360   8.072  0.00  0.00    +0.013 A 
ATOM     17  C   UNL     1      43.145  34.948   6.734  0.00  0.00    +0.005 A 
ATOM     18  C   UNL     1      43.845  33.815   6.133  0.00  0.00    -0.033 A 
ATOM     28  C   UNL     1      44.875  33.128   6.894  0.00  0.00    +0.005 A 
ATOM     29  C   UNL     1      45.211  33.528   8.207  0.00  0.00    +0.013 A 
BRANCH  18  19
ATOM     19  C   UNL     1      43.532  33.294   4.718  0.00  0.00    +0.119 C 
BRANCH  19  20
ATOM     20  N   UNL     1      42.189  33.618   4.151  0.00  0.00    -0.302 NA
ATOM     21  C   UNL     1      41.089  32.726   4.735  0.00  0.00    +0.066 C 
ATOM     22  C   UNL     1      39.687  33.094   4.148  0.00  0.00    -0.064 C 
ATOM     23  N   UNL     1      39.728  32.976   2.624  0.00  0.00    +0.379 N 
ATOM     24  C   UNL     1      38.396  33.264   2.073  0.00  0.00    -0.096 C 
ATOM     25  H   UNL     1      39.976  31.918   2.373  0.00  0.00    -0.082 HD
ATOM     26  C   UNL     1      40.821  33.857   2.035  0.00  0.00    -0.064 C 
ATOM     27  C   UNL     1      42.206  33.503   2.647  0.00  0.00    +0.066 C 
ENDBRANCH  19  20
ENDBRANCH  18  19
ENDBRANCH  14  15
ENDBRANCH  12  13
TORSDOF 6
ENDMDL
MODEL 2
REMARK VINA RESULT:      -9.0      1.930      2.886
REMARK  Name = C:\Users\Docking\Desktop\test protocol\1iep_ligandH.pdb
REMARK  8 active torsions:
REMARK  status: ('A' for Active; 'I' for Inactive)
REMARK    1  A    between atoms: _5  and  _11
REMARK    2  A    between atoms: _19  and  _21
REMARK    3  A    between atoms: _22  and  _66
REMARK    4  A    between atoms: _27  and  _30
REMARK    5  A    between atoms: _32  and  _33
REMARK    6  A    between atoms: _38  and  _43
REMARK    7  A    between atoms: _43  and  _46
REMARK    8  A    between atoms: _53  and  _55
REMARK                            x       y       z     vdW  Elec       q    Type
REMARK                         _______ _______ _______ _____ _____    ______ ____
ROOT
ATOM     10  C   UNL     1      41.606  35.270  16.886  0.00  0.00    +0.038 A 
ATOM     11  C   UNL     1      42.087  34.924  15.598  0.00  0.00    +0.047 A 
ATOM     12  C   UNL     1      42.000  35.858  14.486  0.00  0.00    +0.035 A 
ATOM     32  C   UNL     1      41.419  37.138  14.723  0.00  0.00    +0.024 A 
ATOM     33  C   UNL     1      40.924  37.506  16.026  0.00  0.00    +0.007 A 
ATOM     34  C   UNL     1      41.005  36.588  17.126  0.00  0.00    -0.029 A 
ATOM     35  C   UNL     1      40.453  37.034  18.500  0.00  0.00    +0.045 C 
ENDROOT
BRANCH  10   9
ATOM      4  C   UNL     1      41.022  30.855  18.676  0.00  0.00    +0.077 A 
ATOM      5  C   UNL     1      40.424  30.378  17.462  0.00  0.00    +0.048 A 
ATOM      6  C   UNL     1      40.279  31.303  16.403  0.00  0.00    +0.116 A 
ATOM      7  N   UNL     1      40.703  32.605  16.558  0.00  0.00    -0.223 NA
ATOM      8  C   UNL     1      41.274  33.033  17.743  0.00  0.00    +0.220 A 
ATOM      9  N   UNL     1      41.715  34.335  17.918  0.00  0.00    -0.283 N 
ATOM     36  H   UNL     1      42.124  34.613  18.810  0.00  0.00    +0.155 HD
ATOM     37  N   UNL     1      41.423  32.169  18.769  0.00  0.00    -0.214 NA
BRANCH   4   3
ATOM      1  C   UNL     1      41.017  29.498  22.344  0.00  0.00    +0.020 A 
ATOM      2  C   UNL     1      40.774  30.362  21.212  0.00  0.00    +0.013 A 
ATOM      3  C   UNL     1      41.246  29.998  19.882  0.00  0.00    +0.019 A 
ATOM     38  C   UNL     1      41.966  28.742  19.731  0.00  0.00    +0.120 A 
ATOM     39  N   UNL     1      42.186  27.931  20.840  0.00  0.00    -0.263 NA
ATOM     40  C   UNL     1      41.738  28.272  22.125  0.00  0.00    +0.111 A 
ENDBRANCH   4   3
ENDBRANCH  10   9
BRANCH  12  13
ATOM     13  N   UNL     1      42.464  35.559  13.154  0.00  0.00    -0.281 N 
ATOM     14  C   UNL     1      43.772  35.496  12.702  0.00  0.00    +0.248 C 
ATOM     30  O   UNL     1      44.740  35.899  13.329  0.00  0.00    -0.270 OA
ATOM     31  H   UNL     1      41.740  35.371  12.460  0.00  0.00    +0.155 HD
BRANCH  14  15
ATOM     15  C   UNL     1      44.042  34.914  11.352  0.00  0.00    +0.037 A 
ATOM     16  C   UNL     1      43.132  33.936  10.750  0.00  0.00    +0.013 A 
ATOM     17  C   UNL     1      43.426  33.378   9.454  0.00  0.00    +0.005 A 
ATOM     18  C   UNL     1      44.634  33.798   8.750  0.00  0.00    -0.033 A 
ATOM     28  C   UNL     1      45.517  34.774   9.368  0.00  0.00    +0.005 A 
ATOM     29  C   UNL     1      45.233  35.323  10.638  0.00  0.00    +0.013 A 
BRANCH  18  19
ATOM     19  C   UNL     1      45.037  33.239   7.372  0.00  0.00    +0.119 C 
BRANCH  19  20
ATOM     20  N   UNL     1      44.031  33.337   6.274  0.00  0.00    -0.302 NA
ATOM     21  C   UNL     1      44.576  32.804   4.946  0.00  0.00    +0.066 C 
ATOM     22  C   UNL     1      43.502  32.893   3.813  0.00  0.00    -0.064 C 
ATOM     23  N   UNL     1      43.040  34.344   3.665  0.00  0.00    +0.379 N 
ATOM     24  C   UNL     1      42.073  34.440   2.562  0.00  0.00    -0.096 C 
ATOM     25  H   UNL     1      43.930  34.955   3.389  0.00  0.00    -0.082 HD
ATOM     26  C   UNL     1      42.499  34.883   4.981  0.00  0.00    -0.064 C 
ATOM     27  C   UNL     1      43.564  34.762   6.107  0.00  0.00    +0.066 C 
ENDBRANCH  19  20
ENDBRANCH  18  19
ENDBRANCH  14  15
ENDBRANCH  12  13
TORSDOF 6
ENDMDL
MODEL 3
REMARK VINA RESULT:      -9.0      2.191      3.221
REMARK  Name = C:\Users\Docking\Desktop\test protocol\1iep_ligandH.pdb
REMARK  8 active torsions:
REMARK  status: ('A' for Active; 'I' for Inactive)
REMARK    1  A    between atoms: _5  and  _11
REMARK    2  A    between atoms: _19  and  _21
REMARK    3  A    between atoms: _22  and  _66
REMARK    4  A    between atoms: _27  and  _30
REMARK    5  A    between atoms: _32  and  _33
REMARK    6  A    between atoms: _38  and  _43
REMARK    7  A    between atoms: _43  and  _46
REMARK    8  A    between atoms: _53  and  _55
REMARK                            x       y       z     vdW  Elec       q    Type
REMARK                         _______ _______ _______ _____ _____    ______ ____
ROOT
ATOM     10  C   UNL     1      42.870  36.529  12.969  0.00  0.00    +0.038 A 
ATOM     11  C   UNL     1      43.171  35.997  11.690  0.00  0.00    +0.047 A 
ATOM     12  C   UNL     1      43.860  36.793  10.686  0.00  0.00    +0.035 A 
ATOM     32  C   UNL     1      44.231  38.127  11.021  0.00  0.00    +0.024 A 
ATOM     33  C   UNL     1      43.933  38.685  12.317  0.00  0.00    +0.007 A 
ATOM     34  C   UNL     1      43.251  37.905  13.310  0.00  0.00    -0.029 A 
ATOM     35  C   UNL     1      42.951  38.557  14.680  0.00  0.00    +0.045 C 
ENDROOT
BRANCH  10   9
ATOM      4  C   UNL     1      42.823  33.095  16.322  0.00  0.00    +0.077 A 
ATOM      5  C   UNL     1      44.235  32.875  16.201  0.00  0.00    +0.048 A 
ATOM      6  C   UNL     1      44.936  33.661  15.259  0.00  0.00    +0.116 A 
ATOM      7  N   UNL     1      44.264  34.595  14.501  0.00  0.00    -0.223 NA
ATOM      8  C   UNL     1      42.901  34.781  14.641  0.00  0.00    +0.220 A 
ATOM      9  N   UNL     1      42.207  35.720  13.895  0.00  0.00    -0.283 N 
ATOM     36  H   UNL     1      41.200  35.822  14.023  0.00  0.00    +0.155 HD
ATOM     37  N   UNL     1      42.209  34.042  15.533  0.00  0.00    -0.214 NA
BRANCH   4   3
ATOM      1  C   UNL     1      41.310  30.280  18.578  0.00  0.00    +0.020 A 
ATOM      2  C   UNL     1      42.188  30.958  17.652  0.00  0.00    +0.013 A 
ATOM      3  C   UNL     1      41.945  32.345  17.275  0.00  0.00    +0.019 A 
ATOM     38  C   UNL     1      40.796  33.022  17.858  0.00  0.00    +0.120 A 
ATOM     39  N   UNL     1      39.967  32.343  18.745  0.00  0.00    -0.263 NA
ATOM     40  C   UNL     1      40.190  31.008  19.114  0.00  0.00    +0.111 A 
ENDBRANCH   4   3
ENDBRANCH  10   9
BRANCH  12  13
ATOM     13  N   UNL     1      44.184  36.308   9.367  0.00  0.00    -0.281 N 
ATOM     14  C   UNL     1      44.850  35.142   9.029  0.00  0.00    +0.248 C 
ATOM     30  O   UNL     1      45.459  34.439   9.821  0.00  0.00    -0.270 OA
ATOM     31  H   UNL     1      43.887  36.897   8.589  0.00  0.00    +0.155 HD
BRANCH  14  15
ATOM     15  C   UNL     1      44.852  34.700   7.601  0.00  0.00    +0.037 A 
ATOM     16  C   UNL     1      44.835  33.279   7.245  0.00  0.00    +0.013 A 
ATOM     17  C   UNL     1      44.854  32.880   5.860  0.00  0.00    +0.005 A 
ATOM     18  C   UNL     1      44.889  33.905   4.820  0.00  0.00    -0.033 A 
ATOM     28  C   UNL     1      44.900  35.308   5.201  0.00  0.00    +0.005 A 
ATOM     29  C   UNL     1      44.882  35.703   6.557  0.00  0.00    +0.013 A 
BRANCH  18  19
ATOM     19  C   UNL     1      44.933  33.570   3.317  0.00  0.00    +0.119 C 
BRANCH  19  20
ATOM     20  N   UNL     1      44.114  32.412   2.850  0.00  0.00    -0.302 NA
ATOM     21  C   UNL     1      44.977  31.320   2.210  0.00  0.00    +0.066 C 
ATOM     22  C   UNL     1      44.107  30.106   1.748  0.00  0.00    -0.064 C 
ATOM     23  N   UNL     1      43.035  30.592   0.771  0.00  0.00    +0.379 N 
ATOM     24  C   UNL     1      42.253  29.443   0.290  0.00  0.00    -0.096 C 
ATOM     25  H   UNL     1      43.556  31.038  -0.108  0.00  0.00    -0.082 HD
ATOM     26  C   UNL     1      42.175  31.679   1.399  0.00  0.00    -0.064 C 
ATOM     27  C   UNL     1      43.052  32.868   1.881  0.00  0.00    +0.066 C 
ENDBRANCH  19  20
ENDBRANCH  18  19
ENDBRANCH  14  15
ENDBRANCH  12  13
TORSDOF 6
ENDMDL
