MODEL 1
REMARK VINA RESULT:     -10.6      0.000      0.000
REMARK  Name = C:\Users\Docking\Desktop\test protocol\1iep_ligandH.pdb
REMARK  8 active torsions:
REMARK  status: ('A' for Active; 'I' for Inactive)
REMARK    1  A    between atoms: _5  and  _11
REMARK    2  A    between atoms: _19  and  _21
REMARK    3  A    between atoms: _22  and  _66
REMARK    4  A    between atoms: _27  and  _30
REMARK    5  A    between atoms: _32  and  _33
REMARK    6  A    between atoms: _38  and  _43
REMARK    7  A    between atoms: _43  and  _46
REMARK    8  A    between atoms: _53  and  _55
REMARK                            x       y       z     vdW  Elec       q    Type
REMARK                         _______ _______ _______ _____ _____    ______ ____
ROOT
ATOM     10  C   UNL     1      20.169  25.176  14.678  0.00  0.00    +0.038 A 
ATOM     11  C   UNL     1      21.537  25.493  14.879  0.00  0.00    +0.047 A 
ATOM     12  C   UNL     1      21.979  26.873  15.003  0.00  0.00    +0.035 A 
ATOM     32  C   UNL     1      21.001  27.906  14.919  0.00  0.00    +0.024 A 
ATOM     33  C   UNL     1      19.607  27.602  14.714  0.00  0.00    +0.007 A 
ATOM     34  C   UNL     1      19.165  26.242  14.589  0.00  0.00    -0.029 A 
ATOM     35  C   UNL     1      17.658  25.975  14.363  0.00  0.00    +0.045 C 
ENDROOT
BRANCH  10   9
ATOM      4  C   UNL     1      18.653  21.401  12.131  0.00  0.00    +0.077 A 
ATOM      5  C   UNL     1      18.562  22.175  10.927  0.00  0.00    +0.048 A 
ATOM      6  C   UNL     1      18.908  23.542  11.007  0.00  0.00    +0.116 A 
ATOM      7  N   UNL     1      19.313  24.085  12.207  0.00  0.00    -0.223 NA
ATOM      8  C   UNL     1      19.388  23.311  13.351  0.00  0.00    +0.220 A 
ATOM      9  N   UNL     1      19.800  23.833  14.567  0.00  0.00    -0.283 N 
ATOM     36  H   UNL     1      19.835  23.231  15.389  0.00  0.00    +0.155 HD
ATOM     37  N   UNL     1      19.061  22.002  13.301  0.00  0.00    -0.214 NA
BRANCH   4   3
ATOM      1  C   UNL     1      18.256  17.613  11.241  0.00  0.00    +0.020 A 
ATOM      2  C   UNL     1      18.592  19.012  11.117  0.00  0.00    +0.013 A 
ATOM      3  C   UNL     1      18.324  19.942  12.207  0.00  0.00    +0.019 A 
ATOM     38  C   UNL     1      17.711  19.419  13.419  0.00  0.00    +0.120 A 
ATOM     39  N   UNL     1      17.397  18.067  13.509  0.00  0.00    -0.263 NA
ATOM     40  C   UNL     1      17.648  17.163  12.466  0.00  0.00    +0.111 A 
ENDBRANCH   4   3
ENDBRANCH  10   9
BRANCH  12  13
ATOM     13  N   UNL     1      23.355  27.256  15.200  0.00  0.00    -0.281 N 
ATOM     14  C   UNL     1      24.313  26.622  15.974  0.00  0.00    +0.248 C 
ATOM     30  O   UNL     1      24.073  25.744  16.789  0.00  0.00    -0.270 OA
ATOM     31  H   UNL     1      23.660  28.097  14.709  0.00  0.00    +0.155 HD
BRANCH  14  15
ATOM     15  C   UNL     1      25.744  27.033  15.833  0.00  0.00    +0.037 A 
ATOM     16  C   UNL     1      26.823  26.042  15.835  0.00  0.00    +0.013 A 
ATOM     17  C   UNL     1      28.195  26.467  15.715  0.00  0.00    +0.005 A 
ATOM     18  C   UNL     1      28.495  27.891  15.589  0.00  0.00    -0.033 A 
ATOM     28  C   UNL     1      27.405  28.852  15.585  0.00  0.00    +0.005 A 
ATOM     29  C   UNL     1      26.059  28.439  15.704  0.00  0.00    +0.013 A 
BRANCH  18  19
ATOM     19  C   UNL     1      29.931  28.436  15.477  0.00  0.00    +0.119 C 
BRANCH  19  20
ATOM     20  N   UNL     1      30.715  28.054  14.265  0.00  0.00    -0.302 NA
ATOM     21  C   UNL     1      29.890  28.189  12.982  0.00  0.00    +0.066 C 
ATOM     22  C   UNL     1      30.732  27.807  11.721  0.00  0.00    -0.064 C 
ATOM     23  N   UNL     1      31.261  26.380  11.877  0.00  0.00    +0.379 N 
ATOM     24  C   UNL     1      32.005  25.998  10.668  0.00  0.00    -0.096 C 
ATOM     25  H   UNL     1      30.381  25.701  11.963  0.00  0.00    -0.082 HD
ATOM     26  C   UNL     1      32.080  26.237  13.152  0.00  0.00    -0.064 C 
ATOM     27  C   UNL     1      31.244  26.647  14.396  0.00  0.00    +0.066 C 
ENDBRANCH  19  20
ENDBRANCH  18  19
ENDBRANCH  14  15
ENDBRANCH  12  13
TORSDOF 6
ENDMDL
MODEL 2
REMARK VINA RESULT:     -10.4      5.350      8.958
REMARK  Name = C:\Users\Docking\Desktop\test protocol\1iep_ligandH.pdb
REMARK  8 active torsions:
REMARK  status: ('A' for Active; 'I' for Inactive)
REMARK    1  A    between atoms: _5  and  _11
REMARK    2  A    between atoms: _19  and  _21
REMARK    3  A    between atoms: _22  and  _66
REMARK    4  A    between atoms: _27  and  _30
REMARK    5  A    between atoms: _32  and  _33
REMARK    6  A    between atoms: _38  and  _43
REMARK    7  A    between atoms: _43  and  _46
REMARK    8  A    between atoms: _53  and  _55
REMARK                            x       y       z     vdW  Elec       q    Type
REMARK                         _______ _______ _______ _____ _____    ______ ____
ROOT
ATOM     10  C   UNL     1      18.934  17.659  12.013  0.00  0.00    +0.038 A 
ATOM     11  C   UNL     1      19.209  18.952  12.526  0.00  0.00    +0.047 A 
ATOM     12  C   UNL     1      19.272  20.111  11.649  0.00  0.00    +0.035 A 
ATOM     32  C   UNL     1      19.046  19.917  10.255  0.00  0.00    +0.024 A 
ATOM     33  C   UNL     1      18.767  18.609   9.717  0.00  0.00    +0.007 A 
ATOM     34  C   UNL     1      18.706  17.462  10.577  0.00  0.00    -0.029 A 
ATOM     35  C   UNL     1      18.409  16.082   9.944  0.00  0.00    +0.045 C 
ENDROOT
BRANCH  10   9
ATOM      4  C   UNL     1      16.539  14.610  14.843  0.00  0.00    +0.077 A 
ATOM      5  C   UNL     1      15.281  15.234  14.551  0.00  0.00    +0.048 A 
ATOM      6  C   UNL     1      15.295  16.341  13.673  0.00  0.00    +0.116 A 
ATOM      7  N   UNL     1      16.483  16.783  13.133  0.00  0.00    -0.223 NA
ATOM      8  C   UNL     1      17.679  16.159  13.438  0.00  0.00    +0.220 A 
ATOM      9  N   UNL     1      18.886  16.581  12.900  0.00  0.00    -0.283 N 
ATOM     36  H   UNL     1      19.747  16.099  13.155  0.00  0.00    +0.155 HD
ATOM     37  N   UNL     1      17.694  15.101  14.275  0.00  0.00    -0.214 NA
BRANCH   4   3
ATOM      1  C   UNL     1      17.981  12.026  17.401  0.00  0.00    +0.020 A 
ATOM      2  C   UNL     1      17.888  13.182  16.540  0.00  0.00    +0.013 A 
ATOM      3  C   UNL     1      16.688  13.428  15.750  0.00  0.00    +0.019 A 
ATOM     38  C   UNL     1      15.591  12.478  15.856  0.00  0.00    +0.120 A 
ATOM     39  N   UNL     1      15.710  11.373  16.692  0.00  0.00    -0.263 NA
ATOM     40  C   UNL     1      16.860  11.124  17.456  0.00  0.00    +0.111 A 
ENDBRANCH   4   3
ENDBRANCH  10   9
BRANCH  12  13
ATOM     13  N   UNL     1      19.555  21.448  12.111  0.00  0.00    -0.281 N 
ATOM     14  C   UNL     1      18.659  22.483  12.322  0.00  0.00    +0.248 C 
ATOM     30  O   UNL     1      17.499  22.482  11.939  0.00  0.00    -0.270 OA
ATOM     31  H   UNL     1      20.534  21.655  12.307  0.00  0.00    +0.155 HD
BRANCH  14  15
ATOM     15  C   UNL     1      19.124  23.703  13.051  0.00  0.00    +0.037 A 
ATOM     16  C   UNL     1      20.483  23.794  13.590  0.00  0.00    +0.013 A 
ATOM     17  C   UNL     1      20.900  24.974  14.304  0.00  0.00    +0.005 A 
ATOM     18  C   UNL     1      19.956  26.075  14.481  0.00  0.00    -0.033 A 
ATOM     28  C   UNL     1      18.616  25.961  13.931  0.00  0.00    +0.005 A 
ATOM     29  C   UNL     1      18.203  24.805  13.232  0.00  0.00    +0.013 A 
BRANCH  18  19
ATOM     19  C   UNL     1      20.309  27.364  15.247  0.00  0.00    +0.119 C 
BRANCH  19  20
ATOM     20  N   UNL     1      20.861  27.210  16.626  0.00  0.00    -0.302 NA
ATOM     21  C   UNL     1      22.370  26.952  16.615  0.00  0.00    +0.066 C 
ATOM     22  C   UNL     1      22.935  26.816  18.067  0.00  0.00    -0.064 C 
ATOM     23  N   UNL     1      22.199  25.691  18.795  0.00  0.00    +0.379 N 
ATOM     24  C   UNL     1      22.767  25.522  20.140  0.00  0.00    -0.096 C 
ATOM     25  H   UNL     1      22.381  24.747  18.229  0.00  0.00    -0.082 HD
ATOM     26  C   UNL     1      20.697  25.938  18.808  0.00  0.00    -0.064 C 
ATOM     27  C   UNL     1      20.151  26.101  17.362  0.00  0.00    +0.066 C 
ENDBRANCH  19  20
ENDBRANCH  18  19
ENDBRANCH  14  15
ENDBRANCH  12  13
TORSDOF 6
ENDMDL
MODEL 3
REMARK VINA RESULT:     -10.3      1.171      1.426
REMARK  Name = C:\Users\Docking\Desktop\test protocol\1iep_ligandH.pdb
REMARK  8 active torsions:
REMARK  status: ('A' for Active; 'I' for Inactive)
REMARK    1  A    between atoms: _5  and  _11
REMARK    2  A    between atoms: _19  and  _21
REMARK    3  A    between atoms: _22  and  _66
REMARK    4  A    between atoms: _27  and  _30
REMARK    5  A    between atoms: _32  and  _33
REMARK    6  A    between atoms: _38  and  _43
REMARK    7  A    between atoms: _43  and  _46
REMARK    8  A    between atoms: _53  and  _55
REMARK                            x       y       z     vdW  Elec       q    Type
REMARK                         _______ _______ _______ _____ _____    ______ ____
ROOT
ATOM     10  C   UNL     1      19.943  25.111  14.704  0.00  0.00    +0.038 A 
ATOM     11  C   UNL     1      21.312  25.431  14.886  0.00  0.00    +0.047 A 
ATOM     12  C   UNL     1      21.752  26.812  15.009  0.00  0.00    +0.035 A 
ATOM     32  C   UNL     1      20.770  27.842  14.943  0.00  0.00    +0.024 A 
ATOM     33  C   UNL     1      19.374  27.535  14.757  0.00  0.00    +0.007 A 
ATOM     34  C   UNL     1      18.934  26.175  14.633  0.00  0.00    -0.029 A 
ATOM     35  C   UNL     1      17.425  25.904  14.429  0.00  0.00    +0.045 C 
ENDROOT
BRANCH  10   9
ATOM      4  C   UNL     1      18.542  21.304  12.137  0.00  0.00    +0.077 A 
ATOM      5  C   UNL     1      18.513  22.062  10.920  0.00  0.00    +0.048 A 
ATOM      6  C   UNL     1      18.858  23.430  10.998  0.00  0.00    +0.116 A 
ATOM      7  N   UNL     1      19.206  23.988  12.209  0.00  0.00    -0.223 NA
ATOM      8  C   UNL     1      19.222  23.229  13.365  0.00  0.00    +0.220 A 
ATOM      9  N   UNL     1      19.576  23.768  14.593  0.00  0.00    -0.283 N 
ATOM     36  H   UNL     1      19.568  23.177  15.424  0.00  0.00    +0.155 HD
ATOM     37  N   UNL     1      18.895  21.921  13.317  0.00  0.00    -0.214 NA
BRANCH   4   3
ATOM      1  C   UNL     1      18.162  17.509  11.272  0.00  0.00    +0.020 A 
ATOM      2  C   UNL     1      18.507  18.906  11.146  0.00  0.00    +0.013 A 
ATOM      3  C   UNL     1      18.206  19.848  12.217  0.00  0.00    +0.019 A 
ATOM     38  C   UNL     1      17.550  19.339  13.412  0.00  0.00    +0.120 A 
ATOM     39  N   UNL     1      17.229  17.989  13.505  0.00  0.00    -0.263 NA
ATOM     40  C   UNL     1      17.512  17.073  12.481  0.00  0.00    +0.111 A 
ENDBRANCH   4   3
ENDBRANCH  10   9
BRANCH  12  13
ATOM     13  N   UNL     1      23.130  27.198  15.187  0.00  0.00    -0.281 N 
ATOM     14  C   UNL     1      23.871  27.193  16.358  0.00  0.00    +0.248 C 
ATOM     30  O   UNL     1      23.396  27.057  17.476  0.00  0.00    -0.270 OA
ATOM     31  H   UNL     1      23.619  27.513  14.349  0.00  0.00    +0.155 HD
BRANCH  14  15
ATOM     15  C   UNL     1      25.352  27.380  16.276  0.00  0.00    +0.037 A 
ATOM     16  C   UNL     1      26.186  27.379  17.480  0.00  0.00    +0.013 A 
ATOM     17  C   UNL     1      27.609  27.579  17.375  0.00  0.00    +0.005 A 
ATOM     18  C   UNL     1      28.208  27.780  16.058  0.00  0.00    -0.033 A 
ATOM     28  C   UNL     1      27.358  27.771  14.879  0.00  0.00    +0.005 A 
ATOM     29  C   UNL     1      25.963  27.577  14.978  0.00  0.00    +0.013 A 
BRANCH  18  19
ATOM     19  C   UNL     1      29.716  28.022  15.852  0.00  0.00    +0.119 C 
BRANCH  19  20
ATOM     20  N   UNL     1      30.539  26.861  15.399  0.00  0.00    -0.302 NA
ATOM     21  C   UNL     1      30.531  26.712  13.875  0.00  0.00    +0.066 C 
ATOM     22  C   UNL     1      31.415  25.507  13.416  0.00  0.00    -0.064 C 
ATOM     23  N   UNL     1      30.915  24.227  14.088  0.00  0.00    +0.379 N 
ATOM     24  C   UNL     1      31.708  23.083  13.614  0.00  0.00    -0.096 C 
ATOM     25  H   UNL     1      29.861  24.065  13.765  0.00  0.00    -0.082 HD
ATOM     26  C   UNL     1      30.917  24.367  15.603  0.00  0.00    -0.064 C 
ATOM     27  C   UNL     1      30.060  25.585  16.047  0.00  0.00    +0.066 C 
ENDBRANCH  19  20
ENDBRANCH  18  19
ENDBRANCH  14  15
ENDBRANCH  12  13
TORSDOF 6
ENDMDL
MODEL 4
REMARK VINA RESULT:     -10.0      5.284      8.809
REMARK  Name = C:\Users\Docking\Desktop\test protocol\1iep_ligandH.pdb
REMARK  8 active torsions:
REMARK  status: ('A' for Active; 'I' for Inactive)
REMARK    1  A    between atoms: _5  and  _11
REMARK    2  A    between atoms: _19  and  _21
REMARK    3  A    between atoms: _22  and  _66
REMARK    4  A    between atoms: _27  and  _30
REMARK    5  A    between atoms: _32  and  _33
REMARK    6  A    between atoms: _38  and  _43
REMARK    7  A    between atoms: _43  and  _46
REMARK    8  A    between atoms: _53  and  _55
REMARK                            x       y       z     vdW  Elec       q    Type
REMARK                         _______ _______ _______ _____ _____    ______ ____
ROOT
ATOM     10  C   UNL     1      18.126  17.998  12.304  0.00  0.00    +0.038 A 
ATOM     11  C   UNL     1      18.493  19.275  12.801  0.00  0.00    +0.047 A 
ATOM     12  C   UNL     1      18.993  20.313  11.913  0.00  0.00    +0.035 A 
ATOM     32  C   UNL     1      19.104  20.017  10.523  0.00  0.00    +0.024 A 
ATOM     33  C   UNL     1      18.736  18.725  10.001  0.00  0.00    +0.007 A 
ATOM     34  C   UNL     1      18.244  17.696  10.872  0.00  0.00    -0.029 A 
ATOM     35  C   UNL     1      17.871  16.327  10.258  0.00  0.00    +0.045 C 
ENDROOT
BRANCH  10   9
ATOM      4  C   UNL     1      14.585  15.885  14.760  0.00  0.00    +0.077 A 
ATOM      5  C   UNL     1      13.601  16.785  14.232  0.00  0.00    +0.048 A 
ATOM      6  C   UNL     1      14.049  17.782  13.336  0.00  0.00    +0.116 A 
ATOM      7  N   UNL     1      15.383  17.864  13.001  0.00  0.00    -0.223 NA
ATOM      8  C   UNL     1      16.306  16.981  13.530  0.00  0.00    +0.220 A 
ATOM      9  N   UNL     1      17.651  17.039  13.201  0.00  0.00    -0.283 N 
ATOM     36  H   UNL     1      18.302  16.374  13.619  0.00  0.00    +0.155 HD
ATOM     37  N   UNL     1      15.904  16.020  14.389  0.00  0.00    -0.214 NA
BRANCH   4   3
ATOM      1  C   UNL     1      13.529  13.905  17.965  0.00  0.00    +0.020 A 
ATOM      2  C   UNL     1      13.823  15.012  17.083  0.00  0.00    +0.013 A 
ATOM      3  C   UNL     1      14.268  14.776  15.715  0.00  0.00    +0.019 A 
ATOM     38  C   UNL     1      14.405  13.399  15.267  0.00  0.00    +0.120 A 
ATOM     39  N   UNL     1      14.116  12.354  16.138  0.00  0.00    -0.263 NA
ATOM     40  C   UNL     1      13.689  12.568  17.458  0.00  0.00    +0.111 A 
ENDBRANCH   4   3
ENDBRANCH  10   9
BRANCH  12  13
ATOM     13  N   UNL     1      19.389  21.625  12.362  0.00  0.00    -0.281 N 
ATOM     14  C   UNL     1      18.608  22.766  12.452  0.00  0.00    +0.248 C 
ATOM     30  O   UNL     1      17.498  22.884  11.955  0.00  0.00    -0.270 OA
ATOM     31  H   UNL     1      20.363  21.725  12.648  0.00  0.00    +0.155 HD
BRANCH  14  15
ATOM     15  C   UNL     1      19.144  23.951  13.187  0.00  0.00    +0.037 A 
ATOM     16  C   UNL     1      20.509  23.962  13.719  0.00  0.00    +0.013 A 
ATOM     17  C   UNL     1      20.996  25.112  14.439  0.00  0.00    +0.005 A 
ATOM     18  C   UNL     1      20.115  26.262  14.631  0.00  0.00    -0.033 A 
ATOM     28  C   UNL     1      18.767  26.227  14.089  0.00  0.00    +0.005 A 
ATOM     29  C   UNL     1      18.287  25.101  13.383  0.00  0.00    +0.013 A 
BRANCH  18  19
ATOM     19  C   UNL     1      20.543  27.523  15.405  0.00  0.00    +0.119 C 
BRANCH  19  20
ATOM     20  N   UNL     1      21.067  27.330  16.790  0.00  0.00    -0.302 NA
ATOM     21  C   UNL     1      22.548  26.941  16.795  0.00  0.00    +0.066 C 
ATOM     22  C   UNL     1      23.085  26.765  18.253  0.00  0.00    -0.064 C 
ATOM     23  N   UNL     1      22.246  25.713  18.979  0.00  0.00    +0.379 N 
ATOM     24  C   UNL     1      22.785  25.503  20.331  0.00  0.00    -0.096 C 
ATOM     25  H   UNL     1      22.350  24.753  18.421  0.00  0.00    -0.082 HD
ATOM     26  C   UNL     1      20.771  26.091  18.977  0.00  0.00    -0.064 C 
ATOM     27  C   UNL     1      20.255  26.292  17.525  0.00  0.00    +0.066 C 
ENDBRANCH  19  20
ENDBRANCH  18  19
ENDBRANCH  14  15
ENDBRANCH  12  13
TORSDOF 6
ENDMDL
MODEL 5
REMARK VINA RESULT:      -9.9      2.139      2.802
REMARK  Name = C:\Users\Docking\Desktop\test protocol\1iep_ligandH.pdb
REMARK  8 active torsions:
REMARK  status: ('A' for Active; 'I' for Inactive)
REMARK    1  A    between atoms: _5  and  _11
REMARK    2  A    between atoms: _19  and  _21
REMARK    3  A    between atoms: _22  and  _66
REMARK    4  A    between atoms: _27  and  _30
REMARK    5  A    between atoms: _32  and  _33
REMARK    6  A    between atoms: _38  and  _43
REMARK    7  A    between atoms: _43  and  _46
REMARK    8  A    between atoms: _53  and  _55
REMARK                            x       y       z     vdW  Elec       q    Type
REMARK                         _______ _______ _______ _____ _____    ______ ____
ROOT
ATOM     10  C   UNL     1      20.006  25.302  14.210  0.00  0.00    +0.038 A 
ATOM     11  C   UNL     1      21.362  25.319  14.624  0.00  0.00    +0.047 A 
ATOM     12  C   UNL     1      21.992  26.545  15.089  0.00  0.00    +0.035 A 
ATOM     32  C   UNL     1      21.209  27.736  15.124  0.00  0.00    +0.024 A 
ATOM     33  C   UNL     1      19.829  27.737  14.706  0.00  0.00    +0.007 A 
ATOM     34  C   UNL     1      19.203  26.531  14.243  0.00  0.00    -0.029 A 
ATOM     35  C   UNL     1      17.722  26.592  13.802  0.00  0.00    +0.045 C 
ENDROOT
BRANCH  10   9
ATOM      4  C   UNL     1      17.422  21.322  14.931  0.00  0.00    +0.077 A 
ATOM      5  C   UNL     1      17.177  21.658  16.304  0.00  0.00    +0.048 A 
ATOM      6  C   UNL     1      17.740  22.861  16.788  0.00  0.00    +0.116 A 
ATOM      7  N   UNL     1      18.489  23.660  15.952  0.00  0.00    -0.223 NA
ATOM      8  C   UNL     1      18.708  23.305  14.633  0.00  0.00    +0.220 A 
ATOM      9  N   UNL     1      19.452  24.097  13.772  0.00  0.00    -0.283 N 
ATOM     36  H   UNL     1      19.596  23.797  12.809  0.00  0.00    +0.155 HD
ATOM     37  N   UNL     1      18.183  22.161  14.147  0.00  0.00    -0.214 NA
BRANCH   4   3
ATOM      1  C   UNL     1      15.133  18.309  13.939  0.00  0.00    +0.020 A 
ATOM      2  C   UNL     1      15.598  19.504  14.605  0.00  0.00    +0.013 A 
ATOM      3  C   UNL     1      16.892  20.086  14.272  0.00  0.00    +0.019 A 
ATOM     38  C   UNL     1      17.697  19.430  13.253  0.00  0.00    +0.120 A 
ATOM     39  N   UNL     1      17.224  18.280  12.629  0.00  0.00    -0.263 NA
ATOM     40  C   UNL     1      15.981  17.710  12.942  0.00  0.00    +0.111 A 
ENDBRANCH   4   3
ENDBRANCH  10   9
BRANCH  12  13
ATOM     13  N   UNL     1      23.367  26.625  15.514  0.00  0.00    -0.281 N 
ATOM     14  C   UNL     1      23.870  26.513  16.800  0.00  0.00    +0.248 C 
ATOM     30  O   UNL     1      23.187  26.541  17.813  0.00  0.00    -0.270 OA
ATOM     31  H   UNL     1      24.055  26.782  14.777  0.00  0.00    +0.155 HD
BRANCH  14  15
ATOM     15  C   UNL     1      25.345  26.364  16.989  0.00  0.00    +0.037 A 
ATOM     16  C   UNL     1      25.928  25.099  17.443  0.00  0.00    +0.013 A 
ATOM     17  C   UNL     1      27.353  24.987  17.633  0.00  0.00    +0.005 A 
ATOM     18  C   UNL     1      28.204  26.144  17.368  0.00  0.00    -0.033 A 
ATOM     28  C   UNL     1      27.599  27.385  16.914  0.00  0.00    +0.005 A 
ATOM     29  C   UNL     1      26.203  27.499  16.727  0.00  0.00    +0.013 A 
BRANCH  18  19
ATOM     19  C   UNL     1      29.731  26.121  17.565  0.00  0.00    +0.119 C 
BRANCH  19  20
ATOM     20  N   UNL     1      30.544  25.415  16.530  0.00  0.00    -0.302 NA
ATOM     21  C   UNL     1      29.880  25.458  15.150  0.00  0.00    +0.066 C 
ATOM     22  C   UNL     1      30.753  24.734  14.075  0.00  0.00    -0.064 C 
ATOM     23  N   UNL     1      31.001  23.289  14.512  0.00  0.00    +0.379 N 
ATOM     24  C   UNL     1      31.774  22.589  13.475  0.00  0.00    -0.096 C 
ATOM     25  H   UNL     1      30.010  22.786  14.593  0.00  0.00    -0.082 HD
ATOM     26  C   UNL     1      31.659  23.237  15.884  0.00  0.00    -0.064 C 
ATOM     27  C   UNL     1      30.797  23.985  16.939  0.00  0.00    +0.066 C 
ENDBRANCH  19  20
ENDBRANCH  18  19
ENDBRANCH  14  15
ENDBRANCH  12  13
TORSDOF 6
ENDMDL
