MODEL 1
REMARK VINA RESULT:      -7.4      0.000      0.000
REMARK  Name = C:\Users\Docking\Desktop\test protocol\1iep_ligandH.pdb
REMARK  8 active torsions:
REMARK  status: ('A' for Active; 'I' for Inactive)
REMARK    1  A    between atoms: _5  and  _11
REMARK    2  A    between atoms: _19  and  _21
REMARK    3  A    between atoms: _22  and  _66
REMARK    4  A    between atoms: _27  and  _30
REMARK    5  A    between atoms: _32  and  _33
REMARK    6  A    between atoms: _38  and  _43
REMARK    7  A    between atoms: _43  and  _46
REMARK    8  A    between atoms: _53  and  _55
REMARK                            x       y       z     vdW  Elec       q    Type
REMARK                         _______ _______ _______ _____ _____    ______ ____
ROOT
ATOM     10  C   UNL     1      11.092  25.706  24.640  0.00  0.00    +0.038 A 
ATOM     11  C   UNL     1      10.969  26.658  23.595  0.00  0.00    +0.047 A 
ATOM     12  C   UNL     1      10.287  27.925  23.807  0.00  0.00    +0.035 A 
ATOM     32  C   UNL     1       9.744  28.192  25.098  0.00  0.00    +0.024 A 
ATOM     33  C   UNL     1       9.859  27.235  26.171  0.00  0.00    +0.007 A 
ATOM     34  C   UNL     1      10.528  25.983  25.967  0.00  0.00    -0.029 A 
ATOM     35  C   UNL     1      10.616  24.993  27.151  0.00  0.00    +0.045 C 
ENDROOT
BRANCH  10   9
ATOM      4  C   UNL     1      15.030  22.962  24.646  0.00  0.00    +0.077 A 
ATOM      5  C   UNL     1      15.836  24.018  25.188  0.00  0.00    +0.048 A 
ATOM      6  C   UNL     1      15.201  25.254  25.444  0.00  0.00    +0.116 A 
ATOM      7  N   UNL     1      13.859  25.411  25.175  0.00  0.00    -0.223 NA
ATOM      8  C   UNL     1      13.110  24.373  24.651  0.00  0.00    +0.220 A 
ATOM      9  N   UNL     1      11.757  24.506  24.380  0.00  0.00    -0.283 N 
ATOM     36  H   UNL     1      11.242  23.719  23.987  0.00  0.00    +0.155 HD
ATOM     37  N   UNL     1      13.694  23.183  24.396  0.00  0.00    -0.214 NA
BRANCH   4   3
ATOM      1  C   UNL     1      16.757  19.959  22.830  0.00  0.00    +0.020 A 
ATOM      2  C   UNL     1      16.269  21.294  23.091  0.00  0.00    +0.013 A 
ATOM      3  C   UNL     1      15.556  21.598  24.325  0.00  0.00    +0.019 A 
ATOM     38  C   UNL     1      15.352  20.521  25.282  0.00  0.00    +0.120 A 
ATOM     39  N   UNL     1      15.831  19.245  25.003  0.00  0.00    -0.263 NA
ATOM     40  C   UNL     1      16.518  18.940  23.818  0.00  0.00    +0.111 A 
ENDBRANCH   4   3
ENDBRANCH  10   9
BRANCH  12  13
ATOM     13  N   UNL     1      10.124  28.926  22.782  0.00  0.00    -0.281 N 
ATOM     14  C   UNL     1      11.041  29.318  21.822  0.00  0.00    +0.248 C 
ATOM     30  O   UNL     1      12.225  29.015  21.832  0.00  0.00    -0.270 OA
ATOM     31  H   UNL     1       9.222  29.403  22.763  0.00  0.00    +0.155 HD
BRANCH  14  15
ATOM     15  C   UNL     1      10.580  30.183  20.693  0.00  0.00    +0.037 A 
ATOM     16  C   UNL     1      10.532  29.678  19.319  0.00  0.00    +0.013 A 
ATOM     17  C   UNL     1      10.099  30.539  18.247  0.00  0.00    +0.005 A 
ATOM     18  C   UNL     1       9.710  31.915  18.546  0.00  0.00    -0.033 A 
ATOM     28  C   UNL     1       9.762  32.389  19.919  0.00  0.00    +0.005 A 
ATOM     29  C   UNL     1      10.187  31.548  20.973  0.00  0.00    +0.013 A 
BRANCH  18  19
ATOM     19  C   UNL     1       9.255  32.910  17.462  0.00  0.00    +0.119 C 
BRANCH  19  20
ATOM     20  N   UNL     1       7.805  32.920  17.108  0.00  0.00    -0.302 NA
ATOM     21  C   UNL     1       7.347  34.290  16.599  0.00  0.00    +0.066 C 
ATOM     22  C   UNL     1       5.833  34.277  16.211  0.00  0.00    -0.064 C 
ATOM     23  N   UNL     1       5.003  33.844  17.422  0.00  0.00    +0.379 N 
ATOM     24  C   UNL     1       3.575  33.886  17.078  0.00  0.00    -0.096 C 
ATOM     25  H   UNL     1       5.178  34.587  18.234  0.00  0.00    -0.082 HD
ATOM     26  C   UNL     1       5.454  32.484  17.936  0.00  0.00    -0.064 C 
ATOM     27  C   UNL     1       6.967  32.500  18.290  0.00  0.00    +0.066 C 
ENDBRANCH  19  20
ENDBRANCH  18  19
ENDBRANCH  14  15
ENDBRANCH  12  13
TORSDOF 6
ENDMDL
MODEL 2
REMARK VINA RESULT:      -7.0      3.489      8.147
REMARK  Name = C:\Users\Docking\Desktop\test protocol\1iep_ligandH.pdb
REMARK  8 active torsions:
REMARK  status: ('A' for Active; 'I' for Inactive)
REMARK    1  A    between atoms: _5  and  _11
REMARK    2  A    between atoms: _19  and  _21
REMARK    3  A    between atoms: _22  and  _66
REMARK    4  A    between atoms: _27  and  _30
REMARK    5  A    between atoms: _32  and  _33
REMARK    6  A    between atoms: _38  and  _43
REMARK    7  A    between atoms: _43  and  _46
REMARK    8  A    between atoms: _53  and  _55
REMARK                            x       y       z     vdW  Elec       q    Type
REMARK                         _______ _______ _______ _____ _____    ______ ____
ROOT
ATOM     10  C   UNL     1      10.142  31.214  18.789  0.00  0.00    +0.038 A 
ATOM     11  C   UNL     1       8.783  31.600  18.916  0.00  0.00    +0.047 A 
ATOM     12  C   UNL     1       8.243  32.716  18.154  0.00  0.00    +0.035 A 
ATOM     32  C   UNL     1       9.116  33.414  17.270  0.00  0.00    +0.024 A 
ATOM     33  C   UNL     1      10.500  33.035  17.129  0.00  0.00    +0.007 A 
ATOM     34  C   UNL     1      11.038  31.937  17.879  0.00  0.00    -0.029 A 
ATOM     35  C   UNL     1      12.531  31.579  17.693  0.00  0.00    +0.045 C 
ENDROOT
BRANCH  10   9
ATOM      4  C   UNL     1      11.204  29.126  22.978  0.00  0.00    +0.077 A 
ATOM      5  C   UNL     1      10.826  30.292  23.723  0.00  0.00    +0.048 A 
ATOM      6  C   UNL     1      10.370  31.411  22.990  0.00  0.00    +0.116 A 
ATOM      7  N   UNL     1      10.301  31.355  21.614  0.00  0.00    -0.223 NA
ATOM      8  C   UNL     1      10.675  30.215  20.927  0.00  0.00    +0.220 A 
ATOM      9  N   UNL     1      10.607  30.135  19.545  0.00  0.00    -0.283 N 
ATOM     36  H   UNL     1      10.899  29.279  19.074  0.00  0.00    +0.155 HD
ATOM     37  N   UNL     1      11.115  29.134  21.604  0.00  0.00    -0.214 NA
BRANCH   4   3
ATOM      1  C   UNL     1      11.405  25.479  24.379  0.00  0.00    +0.020 A 
ATOM      2  C   UNL     1      10.875  26.673  23.762  0.00  0.00    +0.013 A 
ATOM      3  C   UNL     1      11.702  27.863  23.610  0.00  0.00    +0.019 A 
ATOM     38  C   UNL     1      13.073  27.811  24.096  0.00  0.00    +0.120 A 
ATOM     39  N   UNL     1      13.556  26.648  24.687  0.00  0.00    -0.263 NA
ATOM     40  C   UNL     1      12.768  25.497  24.841  0.00  0.00    +0.111 A 
ENDBRANCH   4   3
ENDBRANCH  10   9
BRANCH  12  13
ATOM     13  N   UNL     1       6.875  33.159  18.248  0.00  0.00    -0.281 N 
ATOM     14  C   UNL     1       5.846  32.943  17.346  0.00  0.00    +0.248 C 
ATOM     30  O   UNL     1       5.999  32.515  16.212  0.00  0.00    -0.270 OA
ATOM     31  H   UNL     1       6.635  33.698  19.081  0.00  0.00    +0.155 HD
BRANCH  14  15
ATOM     15  C   UNL     1       4.445  33.262  17.759  0.00  0.00    +0.037 A 
ATOM     16  C   UNL     1       4.149  34.412  18.618  0.00  0.00    +0.013 A 
ATOM     17  C   UNL     1       2.791  34.687  19.015  0.00  0.00    +0.005 A 
ATOM     18  C   UNL     1       1.718  33.811  18.551  0.00  0.00    -0.033 A 
ATOM     28  C   UNL     1       2.039  32.681  17.695  0.00  0.00    +0.005 A 
ATOM     29  C   UNL     1       3.369  32.407  17.305  0.00  0.00    +0.013 A 
BRANCH  18  19
ATOM     19  C   UNL     1       0.242  34.017  18.942  0.00  0.00    +0.119 C 
BRANCH  19  20
ATOM     20  N   UNL     1      -0.287  35.413  18.903  0.00  0.00    -0.302 NA
ATOM     21  C   UNL     1       0.240  36.194  17.696  0.00  0.00    +0.066 C 
ATOM     22  C   UNL     1      -0.342  37.644  17.659  0.00  0.00    -0.064 C 
ATOM     23  N   UNL     1       0.006  38.364  18.963  0.00  0.00    +0.379 N 
ATOM     24  C   UNL     1      -0.490  39.747  18.907  0.00  0.00    -0.096 C 
ATOM     25  H   UNL     1       1.117  38.405  19.041  0.00  0.00    -0.082 HD
ATOM     26  C   UNL     1      -0.513  37.593  20.169  0.00  0.00    -0.064 C 
ATOM     27  C   UNL     1       0.048  36.143  20.180  0.00  0.00    +0.066 C 
ENDBRANCH  19  20
ENDBRANCH  18  19
ENDBRANCH  14  15
ENDBRANCH  12  13
TORSDOF 6
ENDMDL
MODEL 3
REMARK VINA RESULT:      -6.9     12.534     16.845
REMARK  Name = C:\Users\Docking\Desktop\test protocol\1iep_ligandH.pdb
REMARK  8 active torsions:
REMARK  status: ('A' for Active; 'I' for Inactive)
REMARK    1  A    between atoms: _5  and  _11
REMARK    2  A    between atoms: _19  and  _21
REMARK    3  A    between atoms: _22  and  _66
REMARK    4  A    between atoms: _27  and  _30
REMARK    5  A    between atoms: _32  and  _33
REMARK    6  A    between atoms: _38  and  _43
REMARK    7  A    between atoms: _43  and  _46
REMARK    8  A    between atoms: _53  and  _55
REMARK                            x       y       z     vdW  Elec       q    Type
REMARK                         _______ _______ _______ _____ _____    ______ ____
ROOT
ATOM     10  C   UNL     1      10.881  31.594   8.497  0.00  0.00    +0.038 A 
ATOM     11  C   UNL     1      10.148  30.519   7.932  0.00  0.00    +0.047 A 
ATOM     12  C   UNL     1       9.152  30.748   6.897  0.00  0.00    +0.035 A 
ATOM     32  C   UNL     1       8.931  32.086   6.457  0.00  0.00    +0.024 A 
ATOM     33  C   UNL     1       9.666  33.191   7.020  0.00  0.00    +0.007 A 
ATOM     34  C   UNL     1      10.648  32.971   8.044  0.00  0.00    -0.029 A 
ATOM     35  C   UNL     1      11.402  34.194   8.616  0.00  0.00    +0.045 C 
ENDROOT
BRANCH  10   9
ATOM      4  C   UNL     1      15.316  30.424   9.909  0.00  0.00    +0.077 A 
ATOM      5  C   UNL     1      15.786  30.331   8.557  0.00  0.00    +0.048 A 
ATOM      6  C   UNL     1      14.853  30.585   7.527  0.00  0.00    +0.116 A 
ATOM      7  N   UNL     1      13.550  30.907   7.838  0.00  0.00    -0.223 NA
ATOM      8  C   UNL     1      13.129  30.987   9.152  0.00  0.00    +0.220 A 
ATOM      9  N   UNL     1      11.825  31.317   9.488  0.00  0.00    -0.283 N 
ATOM     36  H   UNL     1      11.552  31.358  10.470  0.00  0.00    +0.155 HD
ATOM     37  N   UNL     1      14.000  30.747  10.154  0.00  0.00    -0.214 NA
BRANCH   4   3
ATOM      1  C   UNL     1      18.199  29.186  12.245  0.00  0.00    +0.020 A 
ATOM      2  C   UNL     1      17.397  29.383  11.060  0.00  0.00    +0.013 A 
ATOM      3  C   UNL     1      16.183  30.187  11.107  0.00  0.00    +0.019 A 
ATOM     38  C   UNL     1      15.805  30.783  12.380  0.00  0.00    +0.120 A 
ATOM     39  N   UNL     1      16.595  30.574  13.505  0.00  0.00    -0.263 NA
ATOM     40  C   UNL     1      17.766  29.801  13.472  0.00  0.00    +0.111 A 
ENDBRANCH   4   3
ENDBRANCH  10   9
BRANCH  12  13
ATOM     13  N   UNL     1       8.372  29.697   6.293  0.00  0.00    -0.281 N 
ATOM     14  C   UNL     1       8.804  28.704   5.429  0.00  0.00    +0.248 C 
ATOM     30  O   UNL     1       9.893  28.697   4.874  0.00  0.00    -0.270 OA
ATOM     31  H   UNL     1       7.380  29.684   6.531  0.00  0.00    +0.155 HD
BRANCH  14  15
ATOM     15  C   UNL     1       7.890  27.561   5.128  0.00  0.00    +0.037 A 
ATOM     16  C   UNL     1       6.760  27.714   4.208  0.00  0.00    +0.013 A 
ATOM     17  C   UNL     1       5.884  26.599   3.948  0.00  0.00    +0.005 A 
ATOM     18  C   UNL     1       6.135  25.321   4.609  0.00  0.00    -0.033 A 
ATOM     28  C   UNL     1       7.266  25.196   5.513  0.00  0.00    +0.005 A 
ATOM     29  C   UNL     1       8.127  26.286   5.771  0.00  0.00    +0.013 A 
BRANCH  18  19
ATOM     19  C   UNL     1       5.239  24.084   4.407  0.00  0.00    +0.119 C 
BRANCH  19  20
ATOM     20  N   UNL     1       3.764  24.280   4.538  0.00  0.00    -0.302 NA
ATOM     21  C   UNL     1       3.111  23.179   5.379  0.00  0.00    +0.066 C 
ATOM     22  C   UNL     1       1.572  23.412   5.525  0.00  0.00    -0.064 C 
ATOM     23  N   UNL     1       0.936  23.481   4.135  0.00  0.00    +0.379 N 
ATOM     24  C   UNL     1      -0.519  23.642   4.269  0.00  0.00    -0.096 C 
ATOM     25  H   UNL     1       1.124  22.506   3.629  0.00  0.00    -0.082 HD
ATOM     26  C   UNL     1       1.581  24.571   3.291  0.00  0.00    -0.064 C 
ATOM     27  C   UNL     1       3.115  24.347   3.177  0.00  0.00    +0.066 C 
ENDBRANCH  19  20
ENDBRANCH  18  19
ENDBRANCH  14  15
ENDBRANCH  12  13
TORSDOF 6
ENDMDL
MODEL 4
REMARK VINA RESULT:      -6.9     29.319     33.664
REMARK  Name = C:\Users\Docking\Desktop\test protocol\1iep_ligandH.pdb
REMARK  8 active torsions:
REMARK  status: ('A' for Active; 'I' for Inactive)
REMARK    1  A    between atoms: _5  and  _11
REMARK    2  A    between atoms: _19  and  _21
REMARK    3  A    between atoms: _22  and  _66
REMARK    4  A    between atoms: _27  and  _30
REMARK    5  A    between atoms: _32  and  _33
REMARK    6  A    between atoms: _38  and  _43
REMARK    7  A    between atoms: _43  and  _46
REMARK    8  A    between atoms: _53  and  _55
REMARK                            x       y       z     vdW  Elec       q    Type
REMARK                         _______ _______ _______ _____ _____    ______ ____
ROOT
ATOM     10  C   UNL     1     -21.127  24.196  11.285  0.00  0.00    +0.038 A 
ATOM     11  C   UNL     1     -20.719  25.312  10.511  0.00  0.00    +0.047 A 
ATOM     12  C   UNL     1     -21.678  26.074   9.726  0.00  0.00    +0.035 A 
ATOM     32  C   UNL     1     -23.045  25.674   9.754  0.00  0.00    +0.024 A 
ATOM     33  C   UNL     1     -23.477  24.541  10.535  0.00  0.00    +0.007 A 
ATOM     34  C   UNL     1     -22.536  23.784  11.309  0.00  0.00    -0.029 A 
ATOM     35  C   UNL     1     -23.055  22.575  12.123  0.00  0.00    +0.045 C 
ENDROOT
BRANCH  10   9
ATOM      4  C   UNL     1     -17.648  20.911  11.662  0.00  0.00    +0.077 A 
ATOM      5  C   UNL     1     -17.777  20.530  10.285  0.00  0.00    +0.048 A 
ATOM      6  C   UNL     1     -18.756  21.199   9.516  0.00  0.00    +0.116 A 
ATOM      7  N   UNL     1     -19.541  22.175  10.091  0.00  0.00    -0.223 NA
ATOM      8  C   UNL     1     -19.392  22.517  11.422  0.00  0.00    +0.220 A 
ATOM      9  N   UNL     1     -20.165  23.500  12.020  0.00  0.00    -0.283 N 
ATOM     36  H   UNL     1     -20.029  23.718  13.007  0.00  0.00    +0.155 HD
ATOM     37  N   UNL     1     -18.465  21.892  12.179  0.00  0.00    -0.214 NA
BRANCH   4   3
ATOM      1  C   UNL     1     -14.911  20.445  14.417  0.00  0.00    +0.020 A 
ATOM      2  C   UNL     1     -15.854  21.086  13.529  0.00  0.00    +0.013 A 
ATOM      3  C   UNL     1     -16.658  20.299  12.603  0.00  0.00    +0.019 A 
ATOM     38  C   UNL     1     -16.483  18.854  12.600  0.00  0.00    +0.120 A 
ATOM     39  N   UNL     1     -15.567  18.265  13.466  0.00  0.00    -0.263 NA
ATOM     40  C   UNL     1     -14.787  19.012  14.361  0.00  0.00    +0.111 A 
ENDBRANCH   4   3
ENDBRANCH  10   9
BRANCH  12  13
ATOM     13  N   UNL     1     -21.321  27.212   8.914  0.00  0.00    -0.281 N 
ATOM     14  C   UNL     1     -20.874  27.215   7.603  0.00  0.00    +0.248 C 
ATOM     30  O   UNL     1     -20.507  26.221   6.995  0.00  0.00    -0.270 OA
ATOM     31  H   UNL     1     -21.408  28.125   9.361  0.00  0.00    +0.155 HD
BRANCH  14  15
ATOM     15  C   UNL     1     -20.811  28.514   6.866  0.00  0.00    +0.037 A 
ATOM     16  C   UNL     1     -19.531  29.076   6.425  0.00  0.00    +0.013 A 
ATOM     17  C   UNL     1     -19.497  30.339   5.730  0.00  0.00    +0.005 A 
ATOM     18  C   UNL     1     -20.748  31.047   5.471  0.00  0.00    -0.033 A 
ATOM     28  C   UNL     1     -22.004  30.464   5.914  0.00  0.00    +0.005 A 
ATOM     29  C   UNL     1     -22.041  29.227   6.597  0.00  0.00    +0.013 A 
BRANCH  18  19
ATOM     19  C   UNL     1     -20.805  32.410   4.755  0.00  0.00    +0.119 C 
BRANCH  19  20
ATOM     20  N   UNL     1     -20.164  33.570   5.442  0.00  0.00    -0.302 NA
ATOM     21  C   UNL     1     -21.192  34.617   5.882  0.00  0.00    +0.066 C 
ATOM     22  C   UNL     1     -20.507  35.813   6.619  0.00  0.00    -0.064 C 
ATOM     23  N   UNL     1     -19.455  36.439   5.702  0.00  0.00    +0.379 N 
ATOM     24  C   UNL     1     -18.850  37.600   6.370  0.00  0.00    -0.096 C 
ATOM     25  H   UNL     1     -19.979  36.809   4.790  0.00  0.00    -0.082 HD
ATOM     26  C   UNL     1     -18.431  35.405   5.258  0.00  0.00    -0.064 C 
ATOM     27  C   UNL     1     -19.125  34.206   4.553  0.00  0.00    +0.066 C 
ENDBRANCH  19  20
ENDBRANCH  18  19
ENDBRANCH  14  15
ENDBRANCH  12  13
TORSDOF 6
ENDMDL
MODEL 5
REMARK VINA RESULT:      -6.9     21.299     26.682
REMARK  Name = C:\Users\Docking\Desktop\test protocol\1iep_ligandH.pdb
REMARK  8 active torsions:
REMARK  status: ('A' for Active; 'I' for Inactive)
REMARK    1  A    between atoms: _5  and  _11
REMARK    2  A    between atoms: _19  and  _21
REMARK    3  A    between atoms: _22  and  _66
REMARK    4  A    between atoms: _27  and  _30
REMARK    5  A    between atoms: _32  and  _33
REMARK    6  A    between atoms: _38  and  _43
REMARK    7  A    between atoms: _43  and  _46
REMARK    8  A    between atoms: _53  and  _55
REMARK                            x       y       z     vdW  Elec       q    Type
REMARK                         _______ _______ _______ _____ _____    ______ ____
ROOT
ATOM     10  C   UNL     1     -15.148  35.110  27.795  0.00  0.00    +0.038 A 
ATOM     11  C   UNL     1     -14.058  35.807  27.214  0.00  0.00    +0.047 A 
ATOM     12  C   UNL     1     -13.730  37.165  27.620  0.00  0.00    +0.035 A 
ATOM     32  C   UNL     1     -14.533  37.782  28.623  0.00  0.00    +0.024 A 
ATOM     33  C   UNL     1     -15.645  37.089  29.224  0.00  0.00    +0.007 A 
ATOM     34  C   UNL     1     -15.974  35.750  28.826  0.00  0.00    -0.029 A 
ATOM     35  C   UNL     1     -17.182  35.058  29.499  0.00  0.00    +0.045 C 
ENDROOT
BRANCH  10   9
ATOM      4  C   UNL     1     -17.093  31.982  24.719  0.00  0.00    +0.077 A 
ATOM      5  C   UNL     1     -17.643  33.031  23.908  0.00  0.00    +0.048 A 
ATOM      6  C   UNL     1     -17.408  34.361  24.322  0.00  0.00    +0.116 A 
ATOM      7  N   UNL     1     -16.676  34.613  25.462  0.00  0.00    -0.223 NA
ATOM      8  C   UNL     1     -16.162  33.578  26.222  0.00  0.00    +0.220 A 
ATOM      9  N   UNL     1     -15.417  33.808  27.368  0.00  0.00    -0.283 N 
ATOM     36  H   UNL     1     -15.061  33.018  27.905  0.00  0.00    +0.155 HD
ATOM     37  N   UNL     1     -16.374  32.299  25.849  0.00  0.00    -0.214 NA
BRANCH   4   3
ATOM      1  C   UNL     1     -17.709  28.611  22.834  0.00  0.00    +0.020 A 
ATOM      2  C   UNL     1     -17.566  30.027  23.078  0.00  0.00    +0.013 A 
ATOM      3  C   UNL     1     -17.253  30.526  24.411  0.00  0.00    +0.019 A 
ATOM     38  C   UNL     1     -17.089  29.557  25.484  0.00  0.00    +0.120 A 
ATOM     39  N   UNL     1     -17.234  28.198  25.219  0.00  0.00    -0.263 NA
ATOM     40  C   UNL     1     -17.537  27.707  23.941  0.00  0.00    +0.111 A 
ENDBRANCH   4   3
ENDBRANCH  10   9
BRANCH  12  13
ATOM     13  N   UNL     1     -12.641  37.925  27.059  0.00  0.00    -0.281 N 
ATOM     14  C   UNL     1     -11.285  37.649  27.129  0.00  0.00    +0.248 C 
ATOM     30  O   UNL     1     -10.787  36.816  27.871  0.00  0.00    -0.270 OA
ATOM     31  H   UNL     1     -12.901  38.769  26.549  0.00  0.00    +0.155 HD
BRANCH  14  15
ATOM     15  C   UNL     1     -10.345  38.421  26.260  0.00  0.00    +0.037 A 
ATOM     16  C   UNL     1     -10.683  38.738  24.870  0.00  0.00    +0.013 A 
ATOM     17  C   UNL     1      -9.751  39.469  24.048  0.00  0.00    +0.005 A 
ATOM     18  C   UNL     1      -8.472  39.888  24.615  0.00  0.00    -0.033 A 
ATOM     28  C   UNL     1      -8.165  39.565  25.998  0.00  0.00    +0.005 A 
ATOM     29  C   UNL     1      -9.075  38.848  26.807  0.00  0.00    +0.013 A 
BRANCH  18  19
ATOM     19  C   UNL     1      -7.409  40.653  23.805  0.00  0.00    +0.119 C 
BRANCH  19  20
ATOM     20  N   UNL     1      -6.983  40.059  22.503  0.00  0.00    -0.302 NA
ATOM     21  C   UNL     1      -5.485  39.741  22.480  0.00  0.00    +0.066 C 
ATOM     22  C   UNL     1      -5.060  39.099  21.119  0.00  0.00    -0.064 C 
ATOM     23  N   UNL     1      -5.432  40.044  19.974  0.00  0.00    +0.379 N 
ATOM     24  C   UNL     1      -4.982  39.470  18.698  0.00  0.00    -0.096 C 
ATOM     25  H   UNL     1      -4.877  40.998  20.130  0.00  0.00    -0.082 HD
ATOM     26  C   UNL     1      -6.919  40.367  19.992  0.00  0.00    -0.064 C 
ATOM     27  C   UNL     1      -7.336  40.977  21.359  0.00  0.00    +0.066 C 
ENDBRANCH  19  20
ENDBRANCH  18  19
ENDBRANCH  14  15
ENDBRANCH  12  13
TORSDOF 6
ENDMDL
