MODEL 1
REMARK VINA RESULT:     -12.3      0.000      0.000
REMARK  Name = C:\Users\Docking\Desktop\test protocol\1iep_ligandH.pdb
REMARK  8 active torsions:
REMARK  status: ('A' for Active; 'I' for Inactive)
REMARK    1  A    between atoms: _5  and  _11
REMARK    2  A    between atoms: _19  and  _21
REMARK    3  A    between atoms: _22  and  _66
REMARK    4  A    between atoms: _27  and  _30
REMARK    5  A    between atoms: _32  and  _33
REMARK    6  A    between atoms: _38  and  _43
REMARK    7  A    between atoms: _43  and  _46
REMARK    8  A    between atoms: _53  and  _55
REMARK                            x       y       z     vdW  Elec       q    Type
REMARK                         _______ _______ _______ _____ _____    ______ ____
ROOT
ATOM     10  C   UNL     1       7.975  34.782  10.638  0.00  0.00    +0.038 A 
ATOM     11  C   UNL     1       7.067  33.879  10.027  0.00  0.00    +0.047 A 
ATOM     12  C   UNL     1       5.884  33.410  10.731  0.00  0.00    +0.035 A 
ATOM     32  C   UNL     1       5.654  33.884  12.056  0.00  0.00    +0.024 A 
ATOM     33  C   UNL     1       6.567  34.801  12.692  0.00  0.00    +0.007 A 
ATOM     34  C   UNL     1       7.737  35.265  12.003  0.00  0.00    -0.029 A 
ATOM     35  C   UNL     1       8.684  36.242  12.737  0.00  0.00    +0.045 C 
ENDROOT
BRANCH  10   9
ATOM      4  C   UNL     1      10.214  37.839   7.693  0.00  0.00    +0.077 A 
ATOM      5  C   UNL     1       9.045  38.661   7.561  0.00  0.00    +0.048 A 
ATOM      6  C   UNL     1       7.886  38.257   8.261  0.00  0.00    +0.116 A 
ATOM      7  N   UNL     1       7.906  37.116   9.034  0.00  0.00    -0.223 NA
ATOM      8  C   UNL     1       9.050  36.346   9.138  0.00  0.00    +0.220 A 
ATOM      9  N   UNL     1       9.095  35.199   9.915  0.00  0.00    -0.283 N 
ATOM     36  H   UNL     1       9.956  34.654   9.961  0.00  0.00    +0.155 HD
ATOM     37  N   UNL     1      10.169  36.709   8.478  0.00  0.00    -0.214 NA
BRANCH   4   3
ATOM      1  C   UNL     1      13.033  39.594   5.625  0.00  0.00    +0.020 A 
ATOM      2  C   UNL     1      11.756  39.357   6.258  0.00  0.00    +0.013 A 
ATOM      3  C   UNL     1      11.517  38.136   7.017  0.00  0.00    +0.019 A 
ATOM     38  C   UNL     1      12.599  37.168   7.118  0.00  0.00    +0.120 A 
ATOM     39  N   UNL     1      13.818  37.423   6.496  0.00  0.00    -0.263 NA
ATOM     40  C   UNL     1      14.059  38.594   5.762  0.00  0.00    +0.111 A 
ENDBRANCH   4   3
ENDBRANCH  10   9
BRANCH  12  13
ATOM     13  N   UNL     1       4.931  32.488  10.166  0.00  0.00    -0.281 N 
ATOM     14  C   UNL     1       5.115  31.618   9.103  0.00  0.00    +0.248 C 
ATOM     30  O   UNL     1       6.066  31.655   8.337  0.00  0.00    -0.270 OA
ATOM     31  H   UNL     1       4.009  32.474  10.602  0.00  0.00    +0.155 HD
BRANCH  14  15
ATOM     15  C   UNL     1       4.087  30.564   8.846  0.00  0.00    +0.037 A 
ATOM     16  C   UNL     1       4.375  29.416   7.983  0.00  0.00    +0.013 A 
ATOM     17  C   UNL     1       3.359  28.423   7.738  0.00  0.00    +0.005 A 
ATOM     18  C   UNL     1       2.045  28.574   8.358  0.00  0.00    -0.033 A 
ATOM     28  C   UNL     1       1.788  29.720   9.214  0.00  0.00    +0.005 A 
ATOM     29  C   UNL     1       2.781  30.696   9.456  0.00  0.00    +0.013 A 
BRANCH  18  19
ATOM     19  C   UNL     1       0.895  27.574   8.135  0.00  0.00    +0.119 C 
BRANCH  19  20
ATOM     20  N   UNL     1      -0.498  28.100   8.241  0.00  0.00    -0.302 NA
ATOM     21  C   UNL     1      -1.512  26.988   8.524  0.00  0.00    +0.066 C 
ATOM     22  C   UNL     1      -2.962  27.559   8.654  0.00  0.00    -0.064 C 
ATOM     23  N   UNL     1      -3.327  28.312   7.373  0.00  0.00    +0.379 N 
ATOM     24  C   UNL     1      -4.710  28.800   7.469  0.00  0.00    -0.096 C 
ATOM     25  H   UNL     1      -3.283  27.585   6.529  0.00  0.00    -0.082 HD
ATOM     26  C   UNL     1      -2.322  29.418   7.083  0.00  0.00    -0.064 C 
ATOM     27  C   UNL     1      -0.881  28.844   6.986  0.00  0.00    +0.066 C 
ENDBRANCH  19  20
ENDBRANCH  18  19
ENDBRANCH  14  15
ENDBRANCH  12  13
TORSDOF 6
ENDMDL
MODEL 2
REMARK VINA RESULT:     -10.8      1.591      1.999
REMARK  Name = C:\Users\Docking\Desktop\test protocol\1iep_ligandH.pdb
REMARK  8 active torsions:
REMARK  status: ('A' for Active; 'I' for Inactive)
REMARK    1  A    between atoms: _5  and  _11
REMARK    2  A    between atoms: _19  and  _21
REMARK    3  A    between atoms: _22  and  _66
REMARK    4  A    between atoms: _27  and  _30
REMARK    5  A    between atoms: _32  and  _33
REMARK    6  A    between atoms: _38  and  _43
REMARK    7  A    between atoms: _43  and  _46
REMARK    8  A    between atoms: _53  and  _55
REMARK                            x       y       z     vdW  Elec       q    Type
REMARK                         _______ _______ _______ _____ _____    ______ ____
ROOT
ATOM     10  C   UNL     1       7.231  35.529   9.934  0.00  0.00    +0.038 A 
ATOM     11  C   UNL     1       6.343  34.564   9.394  0.00  0.00    +0.047 A 
ATOM     12  C   UNL     1       5.547  33.706  10.258  0.00  0.00    +0.035 A 
ATOM     32  C   UNL     1       5.679  33.860  11.669  0.00  0.00    +0.024 A 
ATOM     33  C   UNL     1       6.578  34.835  12.235  0.00  0.00    +0.007 A 
ATOM     34  C   UNL     1       7.367  35.682  11.387  0.00  0.00    -0.029 A 
ATOM     35  C   UNL     1       8.319  36.706  12.049  0.00  0.00    +0.045 C 
ENDROOT
BRANCH  10   9
ATOM      4  C   UNL     1       7.820  39.494   7.293  0.00  0.00    +0.077 A 
ATOM      5  C   UNL     1       6.535  40.007   7.670  0.00  0.00    +0.048 A 
ATOM      6  C   UNL     1       5.750  39.217   8.540  0.00  0.00    +0.116 A 
ATOM      7  N   UNL     1       6.226  38.006   8.993  0.00  0.00    -0.223 NA
ATOM      8  C   UNL     1       7.469  37.539   8.608  0.00  0.00    +0.220 A 
ATOM      9  N   UNL     1       7.970  36.327   9.057  0.00  0.00    -0.283 N 
ATOM     36  H   UNL     1       8.889  36.014   8.744  0.00  0.00    +0.155 HD
ATOM     37  N   UNL     1       8.237  38.274   7.777  0.00  0.00    -0.214 NA
BRANCH   4   3
ATOM      1  C   UNL     1       9.317  41.999   4.689  0.00  0.00    +0.020 A 
ATOM      2  C   UNL     1       8.364  41.338   5.550  0.00  0.00    +0.013 A 
ATOM      3  C   UNL     1       8.767  40.213   6.383  0.00  0.00    +0.019 A 
ATOM     38  C   UNL     1      10.154  39.778   6.323  0.00  0.00    +0.120 A 
ATOM     39  N   UNL     1      11.050  40.433   5.483  0.00  0.00    -0.263 NA
ATOM     40  C   UNL     1      10.673  41.516   4.675  0.00  0.00    +0.111 A 
ENDBRANCH   4   3
ENDBRANCH  10   9
BRANCH  12  13
ATOM     13  N   UNL     1       4.635  32.704   9.767  0.00  0.00    -0.281 N 
ATOM     14  C   UNL     1       4.929  31.583   9.009  0.00  0.00    +0.248 C 
ATOM     30  O   UNL     1       6.000  31.385   8.454  0.00  0.00    -0.270 OA
ATOM     31  H   UNL     1       3.653  32.837  10.008  0.00  0.00    +0.155 HD
BRANCH  14  15
ATOM     15  C   UNL     1       3.878  30.536   8.828  0.00  0.00    +0.037 A 
ATOM     16  C   UNL     1       4.067  29.421   7.897  0.00  0.00    +0.013 A 
ATOM     17  C   UNL     1       3.029  28.435   7.729  0.00  0.00    +0.005 A 
ATOM     18  C   UNL     1       1.793  28.558   8.498  0.00  0.00    -0.033 A 
ATOM     28  C   UNL     1       1.634  29.671   9.419  0.00  0.00    +0.005 A 
ATOM     29  C   UNL     1       2.648  30.641   9.585  0.00  0.00    +0.013 A 
BRANCH  18  19
ATOM     19  C   UNL     1       0.624  27.564   8.367  0.00  0.00    +0.119 C 
BRANCH  19  20
ATOM     20  N   UNL     1      -0.757  28.131   8.339  0.00  0.00    -0.302 NA
ATOM     21  C   UNL     1      -1.824  27.058   8.572  0.00  0.00    +0.066 C 
ATOM     22  C   UNL     1      -3.262  27.673   8.562  0.00  0.00    -0.064 C 
ATOM     23  N   UNL     1      -3.497  28.391   7.232  0.00  0.00    +0.379 N 
ATOM     24  C   UNL     1      -4.868  28.920   7.196  0.00  0.00    -0.096 C 
ATOM     25  H   UNL     1      -3.405  27.634   6.419  0.00  0.00    -0.082 HD
ATOM     26  C   UNL     1      -2.439  29.458   6.991  0.00  0.00    -0.064 C 
ATOM     27  C   UNL     1      -1.012  28.841   7.032  0.00  0.00    +0.066 C 
ENDBRANCH  19  20
ENDBRANCH  18  19
ENDBRANCH  14  15
ENDBRANCH  12  13
TORSDOF 6
ENDMDL
MODEL 3
REMARK VINA RESULT:     -10.4      2.215     13.447
REMARK  Name = C:\Users\Docking\Desktop\test protocol\1iep_ligandH.pdb
REMARK  8 active torsions:
REMARK  status: ('A' for Active; 'I' for Inactive)
REMARK    1  A    between atoms: _5  and  _11
REMARK    2  A    between atoms: _19  and  _21
REMARK    3  A    between atoms: _22  and  _66
REMARK    4  A    between atoms: _27  and  _30
REMARK    5  A    between atoms: _32  and  _33
REMARK    6  A    between atoms: _38  and  _43
REMARK    7  A    between atoms: _43  and  _46
REMARK    8  A    between atoms: _53  and  _55
REMARK                            x       y       z     vdW  Elec       q    Type
REMARK                         _______ _______ _______ _____ _____    ______ ____
ROOT
ATOM     10  C   UNL     1       5.889  34.024  10.275  0.00  0.00    +0.038 A 
ATOM     11  C   UNL     1       6.769  34.500   9.269  0.00  0.00    +0.047 A 
ATOM     12  C   UNL     1       7.986  35.219   9.612  0.00  0.00    +0.035 A 
ATOM     32  C   UNL     1       8.278  35.434  10.990  0.00  0.00    +0.024 A 
ATOM     33  C   UNL     1       7.394  34.959  12.026  0.00  0.00    +0.007 A 
ATOM     34  C   UNL     1       6.191  34.251  11.694  0.00  0.00    -0.029 A 
ATOM     35  C   UNL     1       5.277  33.770  12.845  0.00  0.00    +0.045 C 
ENDROOT
BRANCH  10   9
ATOM      4  C   UNL     1       3.648  30.169   8.499  0.00  0.00    +0.077 A 
ATOM      5  C   UNL     1       4.884  29.470   8.298  0.00  0.00    +0.048 A 
ATOM      6  C   UNL     1       6.075  30.140   8.658  0.00  0.00    +0.116 A 
ATOM      7  N   UNL     1       6.021  31.415   9.180  0.00  0.00    -0.223 NA
ATOM      8  C   UNL     1       4.812  32.061   9.359  0.00  0.00    +0.220 A 
ATOM      9  N   UNL     1       4.734  33.340   9.889  0.00  0.00    -0.283 N 
ATOM     36  H   UNL     1       3.824  33.786   9.999  0.00  0.00    +0.155 HD
ATOM     37  N   UNL     1       3.661  31.443   9.022  0.00  0.00    -0.214 NA
BRANCH   4   3
ATOM      1  C   UNL     1       0.754  28.217   6.735  0.00  0.00    +0.020 A 
ATOM      2  C   UNL     1       2.069  28.749   7.006  0.00  0.00    +0.013 A 
ATOM      3  C   UNL     1       2.306  29.593   8.171  0.00  0.00    +0.019 A 
ATOM     38  C   UNL     1       1.181  29.881   9.048  0.00  0.00    +0.120 A 
ATOM     39  N   UNL     1      -0.075  29.356   8.760  0.00  0.00    -0.263 NA
ATOM     40  C   UNL     1      -0.315  28.545   7.642  0.00  0.00    +0.111 A 
ENDBRANCH   4   3
ENDBRANCH  10   9
BRANCH  12  13
ATOM     13  N   UNL     1       8.912  35.732   8.634  0.00  0.00    -0.281 N 
ATOM     14  C   UNL     1       9.046  37.037   8.190  0.00  0.00    +0.248 C 
ATOM     30  O   UNL     1       8.240  37.929   8.412  0.00  0.00    -0.270 OA
ATOM     31  H   UNL     1       9.547  35.050   8.218  0.00  0.00    +0.155 HD
BRANCH  14  15
ATOM     15  C   UNL     1      10.240  37.401   7.368  0.00  0.00    +0.037 A 
ATOM     16  C   UNL     1      10.099  38.119   6.098  0.00  0.00    +0.013 A 
ATOM     17  C   UNL     1      11.266  38.443   5.317  0.00  0.00    +0.005 A 
ATOM     18  C   UNL     1      12.586  38.051   5.804  0.00  0.00    -0.033 A 
ATOM     28  C   UNL     1      12.698  37.345   7.070  0.00  0.00    +0.005 A 
ATOM     29  C   UNL     1      11.556  37.024   7.838  0.00  0.00    +0.013 A 
BRANCH  18  19
ATOM     19  C   UNL     1      13.884  38.337   5.026  0.00  0.00    +0.119 C 
BRANCH  19  20
ATOM     20  N   UNL     1      14.556  39.647   5.275  0.00  0.00    -0.302 NA
ATOM     21  C   UNL     1      13.880  40.792   4.515  0.00  0.00    +0.066 C 
ATOM     22  C   UNL     1      14.582  42.159   4.804  0.00  0.00    -0.064 C 
ATOM     23  N   UNL     1      16.062  42.059   4.430  0.00  0.00    +0.379 N 
ATOM     24  C   UNL     1      16.712  43.360   4.646  0.00  0.00    -0.096 C 
ATOM     25  H   UNL     1      16.120  41.829   3.341  0.00  0.00    -0.082 HD
ATOM     26  C   UNL     1      16.740  40.921   5.179  0.00  0.00    -0.064 C 
ATOM     27  C   UNL     1      16.017  39.572   4.908  0.00  0.00    +0.066 C 
ENDBRANCH  19  20
ENDBRANCH  18  19
ENDBRANCH  14  15
ENDBRANCH  12  13
TORSDOF 6
ENDMDL
MODEL 4
REMARK VINA RESULT:      -9.9      6.906     13.868
REMARK  Name = C:\Users\Docking\Desktop\test protocol\1iep_ligandH.pdb
REMARK  8 active torsions:
REMARK  status: ('A' for Active; 'I' for Inactive)
REMARK    1  A    between atoms: _5  and  _11
REMARK    2  A    between atoms: _19  and  _21
REMARK    3  A    between atoms: _22  and  _66
REMARK    4  A    between atoms: _27  and  _30
REMARK    5  A    between atoms: _32  and  _33
REMARK    6  A    between atoms: _38  and  _43
REMARK    7  A    between atoms: _43  and  _46
REMARK    8  A    between atoms: _53  and  _55
REMARK                            x       y       z     vdW  Elec       q    Type
REMARK                         _______ _______ _______ _____ _____    ______ ____
ROOT
ATOM     10  C   UNL     1      -2.987  31.975  11.502  0.00  0.00    +0.038 A 
ATOM     11  C   UNL     1      -2.490  33.292  11.322  0.00  0.00    +0.047 A 
ATOM     12  C   UNL     1      -3.158  34.436  11.921  0.00  0.00    +0.035 A 
ATOM     32  C   UNL     1      -4.329  34.204  12.700  0.00  0.00    +0.024 A 
ATOM     33  C   UNL     1      -4.848  32.872  12.893  0.00  0.00    +0.007 A 
ATOM     34  C   UNL     1      -4.194  31.740  12.302  0.00  0.00    -0.029 A 
ATOM     35  C   UNL     1      -4.799  30.336  12.536  0.00  0.00    +0.045 C 
ENDROOT
BRANCH  10   9
ATOM      4  C   UNL     1      -2.212  28.970   7.841  0.00  0.00    +0.077 A 
ATOM      5  C   UNL     1      -3.271  29.547   7.065  0.00  0.00    +0.048 A 
ATOM      6  C   UNL     1      -3.996  30.611   7.647  0.00  0.00    +0.116 A 
ATOM      7  N   UNL     1      -3.676  31.056   8.912  0.00  0.00    -0.223 NA
ATOM      8  C   UNL     1      -2.649  30.476   9.633  0.00  0.00    +0.220 A 
ATOM      9  N   UNL     1      -2.305  30.913  10.903  0.00  0.00    -0.283 N 
ATOM     36  H   UNL     1      -1.546  30.454  11.406  0.00  0.00    +0.155 HD
ATOM     37  N   UNL     1      -1.943  29.458   9.100  0.00  0.00    -0.214 NA
BRANCH   4   3
ATOM      1  C   UNL     1      -0.491  25.474   7.496  0.00  0.00    +0.020 A 
ATOM      2  C   UNL     1      -1.338  26.530   7.999  0.00  0.00    +0.013 A 
ATOM      3  C   UNL     1      -1.353  27.841   7.362  0.00  0.00    +0.019 A 
ATOM     38  C   UNL     1      -0.491  28.051   6.208  0.00  0.00    +0.120 A 
ATOM     39  N   UNL     1       0.316  27.015   5.747  0.00  0.00    -0.263 NA
ATOM     40  C   UNL     1       0.339  25.751   6.353  0.00  0.00    +0.111 A 
ENDBRANCH   4   3
ENDBRANCH  10   9
BRANCH  12  13
ATOM     13  N   UNL     1      -2.705  35.797  11.766  0.00  0.00    -0.281 N 
ATOM     14  C   UNL     1      -1.958  36.552  12.655  0.00  0.00    +0.248 C 
ATOM     30  O   UNL     1      -1.745  36.240  13.818  0.00  0.00    -0.270 OA
ATOM     31  H   UNL     1      -2.968  36.259  10.896  0.00  0.00    +0.155 HD
BRANCH  14  15
ATOM     15  C   UNL     1      -1.374  37.846  12.190  0.00  0.00    +0.037 A 
ATOM     16  C   UNL     1      -1.103  38.091  10.771  0.00  0.00    +0.013 A 
ATOM     17  C   UNL     1      -0.523  39.342  10.351  0.00  0.00    +0.005 A 
ATOM     18  C   UNL     1      -0.213  40.360  11.352  0.00  0.00    -0.033 A 
ATOM     28  C   UNL     1      -0.497  40.093  12.752  0.00  0.00    +0.005 A 
ATOM     29  C   UNL     1      -1.064  38.867  13.168  0.00  0.00    +0.013 A 
BRANCH  18  19
ATOM     19  C   UNL     1       0.426  41.715  10.997  0.00  0.00    +0.119 C 
BRANCH  19  20
ATOM     20  N   UNL     1       1.891  41.726  10.707  0.00  0.00    -0.302 NA
ATOM     21  C   UNL     1       2.645  42.725  11.590  0.00  0.00    +0.066 C 
ATOM     22  C   UNL     1       4.179  42.706  11.289  0.00  0.00    -0.064 C 
ATOM     23  N   UNL     1       4.409  43.011   9.807  0.00  0.00    +0.379 N 
ATOM     24  C   UNL     1       5.853  43.052   9.533  0.00  0.00    -0.096 C 
ATOM     25  H   UNL     1       3.997  44.027   9.604  0.00  0.00    -0.082 HD
ATOM     26  C   UNL     1       3.661  42.024   8.922  0.00  0.00    -0.064 C 
ATOM     27  C   UNL     1       2.142  42.029   9.250  0.00  0.00    +0.066 C 
ENDBRANCH  19  20
ENDBRANCH  18  19
ENDBRANCH  14  15
ENDBRANCH  12  13
TORSDOF 6
ENDMDL
MODEL 5
REMARK VINA RESULT:      -9.7      5.990     11.879
REMARK  Name = C:\Users\Docking\Desktop\test protocol\1iep_ligandH.pdb
REMARK  8 active torsions:
REMARK  status: ('A' for Active; 'I' for Inactive)
REMARK    1  A    between atoms: _5  and  _11
REMARK    2  A    between atoms: _19  and  _21
REMARK    3  A    between atoms: _22  and  _66
REMARK    4  A    between atoms: _27  and  _30
REMARK    5  A    between atoms: _32  and  _33
REMARK    6  A    between atoms: _38  and  _43
REMARK    7  A    between atoms: _43  and  _46
REMARK    8  A    between atoms: _53  and  _55
REMARK                            x       y       z     vdW  Elec       q    Type
REMARK                         _______ _______ _______ _____ _____    ______ ____
ROOT
ATOM     10  C   UNL     1      13.727  41.536   2.133  0.00  0.00    +0.038 A 
ATOM     11  C   UNL     1      13.348  40.361   2.831  0.00  0.00    +0.047 A 
ATOM     12  C   UNL     1      12.735  40.432   4.148  0.00  0.00    +0.035 A 
ATOM     32  C   UNL     1      12.520  41.718   4.725  0.00  0.00    +0.024 A 
ATOM     33  C   UNL     1      12.900  42.923   4.030  0.00  0.00    +0.007 A 
ATOM     34  C   UNL     1      13.507  42.859   2.732  0.00  0.00    -0.029 A 
ATOM     35  C   UNL     1      13.900  44.183   2.036  0.00  0.00    +0.045 C 
ENDROOT
BRANCH  10   9
ATOM      4  C   UNL     1      17.397  40.380  -0.735  0.00  0.00    +0.077 A 
ATOM      5  C   UNL     1      18.231  40.024   0.377  0.00  0.00    +0.048 A 
ATOM      6  C   UNL     1      17.680  40.160   1.671  0.00  0.00    +0.116 A 
ATOM      7  N   UNL     1      16.390  40.618   1.829  0.00  0.00    -0.223 NA
ATOM      8  C   UNL     1      15.613  40.954   0.736  0.00  0.00    +0.220 A 
ATOM      9  N   UNL     1      14.311  41.410   0.871  0.00  0.00    -0.283 N 
ATOM     36  H   UNL     1      13.773  41.655   0.040  0.00  0.00    +0.155 HD
ATOM     37  N   UNL     1      16.117  40.835  -0.510  0.00  0.00    -0.214 NA
BRANCH   4   3
ATOM      1  C   UNL     1      18.270  39.005  -4.291  0.00  0.00    +0.020 A 
ATOM      2  C   UNL     1      17.837  39.039  -2.913  0.00  0.00    +0.013 A 
ATOM      3  C   UNL     1      17.836  40.289  -2.163  0.00  0.00    +0.019 A 
ATOM     38  C   UNL     1      18.281  41.496  -2.843  0.00  0.00    +0.120 A 
ATOM     39  N   UNL     1      18.694  41.432  -4.170  0.00  0.00    -0.263 NA
ATOM     40  C   UNL     1      18.701  40.235  -4.901  0.00  0.00    +0.111 A 
ENDBRANCH   4   3
ENDBRANCH  10   9
BRANCH  12  13
ATOM     13  N   UNL     1      12.337  39.273   4.907  0.00  0.00    -0.281 N 
ATOM     14  C   UNL     1      13.127  38.471   5.714  0.00  0.00    +0.248 C 
ATOM     30  O   UNL     1      14.349  38.503   5.736  0.00  0.00    -0.270 OA
ATOM     31  H   UNL     1      11.353  39.012   4.842  0.00  0.00    +0.155 HD
BRANCH  14  15
ATOM     15  C   UNL     1      12.466  37.479   6.616  0.00  0.00    +0.037 A 
ATOM     16  C   UNL     1      13.222  36.380   7.221  0.00  0.00    +0.013 A 
ATOM     17  C   UNL     1      12.556  35.427   8.074  0.00  0.00    +0.005 A 
ATOM     18  C   UNL     1      11.125  35.572   8.328  0.00  0.00    -0.033 A 
ATOM     28  C   UNL     1      10.400  36.675   7.719  0.00  0.00    +0.005 A 
ATOM     29  C   UNL     1      11.049  37.610   6.882  0.00  0.00    +0.013 A 
BRANCH  18  19
ATOM     19  C   UNL     1      10.328  34.590   9.207  0.00  0.00    +0.119 C 
BRANCH  19  20
ATOM     20  N   UNL     1       8.921  34.961   9.545  0.00  0.00    -0.302 NA
ATOM     21  C   UNL     1       8.789  35.460  10.986  0.00  0.00    +0.066 C 
ATOM     22  C   UNL     1       7.315  35.865  11.315  0.00  0.00    -0.064 C 
ATOM     23  N   UNL     1       6.393  34.669  11.069  0.00  0.00    +0.379 N 
ATOM     24  C   UNL     1       5.015  35.029  11.433  0.00  0.00    -0.096 C 
ATOM     25  H   UNL     1       6.719  33.846  11.748  0.00  0.00    -0.082 HD
ATOM     26  C   UNL     1       6.521  34.165   9.639  0.00  0.00    -0.064 C 
ATOM     27  C   UNL     1       7.994  33.793   9.313  0.00  0.00    +0.066 C 
ENDBRANCH  19  20
ENDBRANCH  18  19
ENDBRANCH  14  15
ENDBRANCH  12  13
TORSDOF 6
ENDMDL
