MODEL 1
REMARK VINA RESULT:      -6.1      0.000      0.000
REMARK  Name = C:\Users\Docking\Desktop\test protocol\1iep_ligandH.pdb
REMARK  8 active torsions:
REMARK  status: ('A' for Active; 'I' for Inactive)
REMARK    1  A    between atoms: _5  and  _11
REMARK    2  A    between atoms: _19  and  _21
REMARK    3  A    between atoms: _22  and  _66
REMARK    4  A    between atoms: _27  and  _30
REMARK    5  A    between atoms: _32  and  _33
REMARK    6  A    between atoms: _38  and  _43
REMARK    7  A    between atoms: _43  and  _46
REMARK    8  A    between atoms: _53  and  _55
REMARK                            x       y       z     vdW  Elec       q    Type
REMARK                         _______ _______ _______ _____ _____    ______ ____
ROOT
ATOM     10  C   UNL     1      12.736  11.717  12.855  0.00  0.00    +0.038 A 
ATOM     11  C   UNL     1      11.582  11.012  12.429  0.00  0.00    +0.047 A 
ATOM     12  C   UNL     1      10.264  11.341  12.949  0.00  0.00    +0.035 A 
ATOM     32  C   UNL     1      10.158  12.397  13.901  0.00  0.00    +0.024 A 
ATOM     33  C   UNL     1      11.321  13.123  14.346  0.00  0.00    +0.007 A 
ATOM     34  C   UNL     1      12.624  12.801  13.838  0.00  0.00    -0.029 A 
ATOM     35  C   UNL     1      13.837  13.608  14.356  0.00  0.00    +0.045 C 
ENDROOT
BRANCH  10   9
ATOM      4  C   UNL     1      16.636   8.923  12.719  0.00  0.00    +0.077 A 
ATOM      5  C   UNL     1      16.176   8.126  13.819  0.00  0.00    +0.048 A 
ATOM      6  C   UNL     1      14.934   8.472  14.397  0.00  0.00    +0.116 A 
ATOM      7  N   UNL     1      14.214   9.538  13.902  0.00  0.00    -0.223 NA
ATOM      8  C   UNL     1      14.688  10.287  12.841  0.00  0.00    +0.220 A 
ATOM      9  N   UNL     1      13.977  11.358  12.322  0.00  0.00    -0.283 N 
ATOM     36  H   UNL     1      14.363  11.891  11.543  0.00  0.00    +0.155 HD
ATOM     37  N   UNL     1      15.872   9.977  12.273  0.00  0.00    -0.214 NA
BRANCH   4   3
ATOM      1  C   UNL     1      19.542   7.207  10.741  0.00  0.00    +0.020 A 
ATOM      2  C   UNL     1      18.283   7.389  11.425  0.00  0.00    +0.013 A 
ATOM      3  C   UNL     1      17.927   8.680  12.001  0.00  0.00    +0.019 A 
ATOM     38  C   UNL     1      18.876   9.775  11.866  0.00  0.00    +0.120 A 
ATOM     39  N   UNL     1      20.082   9.570  11.203  0.00  0.00    -0.263 NA
ATOM     40  C   UNL     1      20.436   8.331  10.646  0.00  0.00    +0.111 A 
ENDBRANCH   4   3
ENDBRANCH  10   9
BRANCH  12  13
ATOM     13  N   UNL     1       9.057  10.655  12.560  0.00  0.00    -0.281 N 
ATOM     14  C   UNL     1       8.789   9.298  12.629  0.00  0.00    +0.248 C 
ATOM     30  O   UNL     1       9.630   8.437  12.839  0.00  0.00    -0.270 OA
ATOM     31  H   UNL     1       8.309  11.242  12.188  0.00  0.00    +0.155 HD
BRANCH  14  15
ATOM     15  C   UNL     1       7.385   8.828  12.420  0.00  0.00    +0.037 A 
ATOM     16  C   UNL     1       7.019   8.026  11.251  0.00  0.00    +0.013 A 
ATOM     17  C   UNL     1       5.654   7.599  11.065  0.00  0.00    +0.005 A 
ATOM     18  C   UNL     1       4.646   7.974  12.054  0.00  0.00    -0.033 A 
ATOM     28  C   UNL     1       5.038   8.766  13.208  0.00  0.00    +0.005 A 
ATOM     29  C   UNL     1       6.374   9.186  13.392  0.00  0.00    +0.013 A 
BRANCH  18  19
ATOM     19  C   UNL     1       3.162   7.581  11.925  0.00  0.00    +0.119 C 
BRANCH  19  20
ATOM     20  N   UNL     1       2.371   7.477  13.188  0.00  0.00    -0.302 NA
ATOM     21  C   UNL     1       2.791   6.269  14.030  0.00  0.00    +0.066 C 
ATOM     22  C   UNL     1       1.968   6.188  15.358  0.00  0.00    -0.064 C 
ATOM     23  N   UNL     1       0.476   6.125  15.027  0.00  0.00    +0.379 N 
ATOM     24  C   UNL     1      -0.297   5.990  16.270  0.00  0.00    -0.096 C 
ATOM     25  H   UNL     1       0.303   5.207  14.420  0.00  0.00    -0.082 HD
ATOM     26  C   UNL     1       0.051   7.321  14.187  0.00  0.00    -0.064 C 
ATOM     27  C   UNL     1       0.894   7.409  12.884  0.00  0.00    +0.066 C 
ENDBRANCH  19  20
ENDBRANCH  18  19
ENDBRANCH  14  15
ENDBRANCH  12  13
TORSDOF 6
ENDMDL
MODEL 2
REMARK VINA RESULT:      -5.7      9.033     13.798
REMARK  Name = C:\Users\Docking\Desktop\test protocol\1iep_ligandH.pdb
REMARK  8 active torsions:
REMARK  status: ('A' for Active; 'I' for Inactive)
REMARK    1  A    between atoms: _5  and  _11
REMARK    2  A    between atoms: _19  and  _21
REMARK    3  A    between atoms: _22  and  _66
REMARK    4  A    between atoms: _27  and  _30
REMARK    5  A    between atoms: _32  and  _33
REMARK    6  A    between atoms: _38  and  _43
REMARK    7  A    between atoms: _43  and  _46
REMARK    8  A    between atoms: _53  and  _55
REMARK                            x       y       z     vdW  Elec       q    Type
REMARK                         _______ _______ _______ _____ _____    ______ ____
ROOT
ATOM     10  C   UNL     1       1.372   7.835  23.548  0.00  0.00    +0.038 A 
ATOM     11  C   UNL     1       1.885   7.866  22.226  0.00  0.00    +0.047 A 
ATOM     12  C   UNL     1       1.046   8.253  21.102  0.00  0.00    +0.035 A 
ATOM     32  C   UNL     1      -0.310   8.605  21.361  0.00  0.00    +0.024 A 
ATOM     33  C   UNL     1      -0.848   8.578  22.699  0.00  0.00    +0.007 A 
ATOM     34  C   UNL     1      -0.026   8.195  23.811  0.00  0.00    -0.029 A 
ATOM     35  C   UNL     1      -0.658   8.178  25.222  0.00  0.00    +0.045 C 
ENDROOT
BRANCH  10   9
ATOM      4  C   UNL     1       4.985   8.695  26.588  0.00  0.00    +0.077 A 
ATOM      5  C   UNL     1       5.216  10.000  26.038  0.00  0.00    +0.048 A 
ATOM      6  C   UNL     1       4.388  10.409  24.968  0.00  0.00    +0.116 A 
ATOM      7  N   UNL     1       3.405   9.568  24.493  0.00  0.00    -0.223 NA
ATOM      8  C   UNL     1       3.210   8.315  25.046  0.00  0.00    +0.220 A 
ATOM      9  N   UNL     1       2.222   7.456  24.589  0.00  0.00    -0.283 N 
ATOM     36  H   UNL     1       2.115   6.538  25.018  0.00  0.00    +0.155 HD
ATOM     37  N   UNL     1       3.988   7.901  26.067  0.00  0.00    -0.214 NA
BRANCH   4   3
ATOM      1  C   UNL     1       5.991   6.749  29.829  0.00  0.00    +0.020 A 
ATOM      2  C   UNL     1       5.183   7.278  28.754  0.00  0.00    +0.013 A 
ATOM      3  C   UNL     1       5.775   8.122  27.723  0.00  0.00    +0.019 A 
ATOM     38  C   UNL     1       7.198   8.413  27.810  0.00  0.00    +0.120 A 
ATOM     39  N   UNL     1       7.951   7.891  28.857  0.00  0.00    -0.263 NA
ATOM     40  C   UNL     1       7.391   7.079  29.856  0.00  0.00    +0.111 A 
ENDBRANCH   4   3
ENDBRANCH  10   9
BRANCH  12  13
ATOM     13  N   UNL     1       1.509   8.295  19.737  0.00  0.00    -0.281 N 
ATOM     14  C   UNL     1       2.227   9.301  19.112  0.00  0.00    +0.248 C 
ATOM     30  O   UNL     1       2.397  10.419  19.576  0.00  0.00    -0.270 OA
ATOM     31  H   UNL     1       1.279   7.485  19.162  0.00  0.00    +0.155 HD
BRANCH  14  15
ATOM     15  C   UNL     1       2.832   9.032  17.772  0.00  0.00    +0.037 A 
ATOM     16  C   UNL     1       3.096  10.118  16.825  0.00  0.00    +0.013 A 
ATOM     17  C   UNL     1       3.664   9.828  15.532  0.00  0.00    +0.005 A 
ATOM     18  C   UNL     1       3.974   8.445  15.180  0.00  0.00    -0.033 A 
ATOM     28  C   UNL     1       3.706   7.387  16.140  0.00  0.00    +0.005 A 
ATOM     29  C   UNL     1       3.148   7.667  17.408  0.00  0.00    +0.013 A 
BRANCH  18  19
ATOM     19  C   UNL     1       4.562   8.041  13.815  0.00  0.00    +0.119 C 
BRANCH  19  20
ATOM     20  N   UNL     1       3.600   7.621  12.753  0.00  0.00    -0.302 NA
ATOM     21  C   UNL     1       2.166   8.050  13.075  0.00  0.00    +0.066 C 
ATOM     22  C   UNL     1       1.176   7.623  11.942  0.00  0.00    -0.064 C 
ATOM     23  N   UNL     1       1.256   6.108  11.744  0.00  0.00    +0.379 N 
ATOM     24  C   UNL     1       0.284   5.696  10.720  0.00  0.00    -0.096 C 
ATOM     25  H   UNL     1       0.961   5.626  12.704  0.00  0.00    -0.082 HD
ATOM     26  C   UNL     1       2.679   5.672  11.426  0.00  0.00    -0.064 C 
ATOM     27  C   UNL     1       3.659   6.128  12.543  0.00  0.00    +0.066 C 
ENDBRANCH  19  20
ENDBRANCH  18  19
ENDBRANCH  14  15
ENDBRANCH  12  13
TORSDOF 6
ENDMDL
MODEL 3
REMARK VINA RESULT:      -5.6     20.483     23.715
REMARK  Name = C:\Users\Docking\Desktop\test protocol\1iep_ligandH.pdb
REMARK  8 active torsions:
REMARK  status: ('A' for Active; 'I' for Inactive)
REMARK    1  A    between atoms: _5  and  _11
REMARK    2  A    between atoms: _19  and  _21
REMARK    3  A    between atoms: _22  and  _66
REMARK    4  A    between atoms: _27  and  _30
REMARK    5  A    between atoms: _32  and  _33
REMARK    6  A    between atoms: _38  and  _43
REMARK    7  A    between atoms: _43  and  _46
REMARK    8  A    between atoms: _53  and  _55
REMARK                            x       y       z     vdW  Elec       q    Type
REMARK                         _______ _______ _______ _____ _____    ______ ____
ROOT
ATOM     10  C   UNL     1       1.271  -2.912  29.188  0.00  0.00    +0.038 A 
ATOM     11  C   UNL     1       0.336  -2.778  28.129  0.00  0.00    +0.047 A 
ATOM     12  C   UNL     1       0.537  -3.456  26.858  0.00  0.00    +0.035 A 
ATOM     32  C   UNL     1       1.700  -4.265  26.700  0.00  0.00    +0.024 A 
ATOM     33  C   UNL     1       2.661  -4.411  27.765  0.00  0.00    +0.007 A 
ATOM     34  C   UNL     1       2.469  -3.743  29.021  0.00  0.00    -0.029 A 
ATOM     35  C   UNL     1       3.535  -3.931  30.125  0.00  0.00    +0.045 C 
ENDROOT
BRANCH  10   9
ATOM      4  C   UNL     1      -0.540  -2.695  33.628  0.00  0.00    +0.077 A 
ATOM      5  C   UNL     1      -1.069  -4.026  33.541  0.00  0.00    +0.048 A 
ATOM      6  C   UNL     1      -0.860  -4.729  32.333  0.00  0.00    +0.116 A 
ATOM      7  N   UNL     1      -0.171  -4.137  31.297  0.00  0.00    -0.223 NA
ATOM      8  C   UNL     1       0.325  -2.852  31.414  0.00  0.00    +0.220 A 
ATOM      9  N   UNL     1       1.027  -2.239  30.387  0.00  0.00    -0.283 N 
ATOM     36  H   UNL     1       1.371  -1.287  30.510  0.00  0.00    +0.155 HD
ATOM     37  N   UNL     1       0.137  -2.158  32.556  0.00  0.00    -0.214 NA
BRANCH   4   3
ATOM      1  C   UNL     1       0.274  -0.590  36.822  0.00  0.00    +0.020 A 
ATOM      2  C   UNL     1       0.460  -1.431  35.663  0.00  0.00    +0.013 A 
ATOM      3  C   UNL     1      -0.676  -1.826  34.839  0.00  0.00    +0.019 A 
ATOM     38  C   UNL     1      -1.997  -1.348  35.219  0.00  0.00    +0.120 A 
ATOM     39  N   UNL     1      -2.145  -0.540  36.342  0.00  0.00    -0.263 NA
ATOM     40  C   UNL     1      -1.060  -0.155  37.143  0.00  0.00    +0.111 A 
ENDBRANCH   4   3
ENDBRANCH  10   9
BRANCH  12  13
ATOM     13  N   UNL     1      -0.373  -3.351  25.744  0.00  0.00    -0.281 N 
ATOM     14  C   UNL     1      -1.469  -4.150  25.462  0.00  0.00    +0.248 C 
ATOM     30  O   UNL     1      -1.708  -5.214  26.012  0.00  0.00    -0.270 OA
ATOM     31  H   UNL     1      -0.186  -2.596  25.084  0.00  0.00    +0.155 HD
BRANCH  14  15
ATOM     15  C   UNL     1      -2.430  -3.710  24.405  0.00  0.00    +0.037 A 
ATOM     16  C   UNL     1      -1.959  -3.189  23.119  0.00  0.00    +0.013 A 
ATOM     17  C   UNL     1      -2.907  -2.756  22.123  0.00  0.00    +0.005 A 
ATOM     18  C   UNL     1      -4.337  -2.843  22.410  0.00  0.00    -0.033 A 
ATOM     28  C   UNL     1      -4.776  -3.369  23.692  0.00  0.00    +0.005 A 
ATOM     29  C   UNL     1      -3.850  -3.793  24.671  0.00  0.00    +0.013 A 
BRANCH  18  19
ATOM     19  C   UNL     1      -5.419  -2.384  21.415  0.00  0.00    +0.119 C 
BRANCH  19  20
ATOM     20  N   UNL     1      -5.999  -1.023  21.616  0.00  0.00    -0.302 NA
ATOM     21  C   UNL     1      -5.959  -0.186  20.334  0.00  0.00    +0.066 C 
ATOM     22  C   UNL     1      -6.590   1.227  20.556  0.00  0.00    -0.064 C 
ATOM     23  N   UNL     1      -5.852   1.939  21.691  0.00  0.00    +0.379 N 
ATOM     24  C   UNL     1      -6.405   3.290  21.863  0.00  0.00    -0.096 C 
ATOM     25  H   UNL     1      -4.785   2.047  21.385  0.00  0.00    -0.082 HD
ATOM     26  C   UNL     1      -5.885   1.113  22.969  0.00  0.00    -0.064 C 
ATOM     27  C   UNL     1      -5.282  -0.299  22.729  0.00  0.00    +0.066 C 
ENDBRANCH  19  20
ENDBRANCH  18  19
ENDBRANCH  14  15
ENDBRANCH  12  13
TORSDOF 6
ENDMDL
MODEL 4
REMARK VINA RESULT:      -5.6     20.954     23.133
REMARK  Name = C:\Users\Docking\Desktop\test protocol\1iep_ligandH.pdb
REMARK  8 active torsions:
REMARK  status: ('A' for Active; 'I' for Inactive)
REMARK    1  A    between atoms: _5  and  _11
REMARK    2  A    between atoms: _19  and  _21
REMARK    3  A    between atoms: _22  and  _66
REMARK    4  A    between atoms: _27  and  _30
REMARK    5  A    between atoms: _32  and  _33
REMARK    6  A    between atoms: _38  and  _43
REMARK    7  A    between atoms: _43  and  _46
REMARK    8  A    between atoms: _53  and  _55
REMARK                            x       y       z     vdW  Elec       q    Type
REMARK                         _______ _______ _______ _____ _____    ______ ____
ROOT
ATOM     10  C   UNL     1       0.975  -3.252  29.217  0.00  0.00    +0.038 A 
ATOM     11  C   UNL     1       0.048  -3.071  28.159  0.00  0.00    +0.047 A 
ATOM     12  C   UNL     1       0.355  -3.509  26.806  0.00  0.00    +0.035 A 
ATOM     32  C   UNL     1       1.615  -4.132  26.567  0.00  0.00    +0.024 A 
ATOM     33  C   UNL     1       2.569  -4.323  27.631  0.00  0.00    +0.007 A 
ATOM     34  C   UNL     1       2.273  -3.890  28.967  0.00  0.00    -0.029 A 
ATOM     35  C   UNL     1       3.336  -4.115  30.067  0.00  0.00    +0.045 C 
ENDROOT
BRANCH  10   9
ATOM      4  C   UNL     1       0.074   0.229  32.396  0.00  0.00    +0.077 A 
ATOM      5  C   UNL     1       0.343   1.259  31.434  0.00  0.00    +0.048 A 
ATOM      6  C   UNL     1       0.717   0.850  30.134  0.00  0.00    +0.116 A 
ATOM      7  N   UNL     1       0.811  -0.491  29.830  0.00  0.00    -0.223 NA
ATOM      8  C   UNL     1       0.547  -1.458  30.782  0.00  0.00    +0.220 A 
ATOM      9  N   UNL     1       0.628  -2.812  30.496  0.00  0.00    -0.283 N 
ATOM     36  H   UNL     1       0.432  -3.495  31.228  0.00  0.00    +0.155 HD
ATOM     37  N   UNL     1       0.189  -1.094  32.031  0.00  0.00    -0.214 NA
BRANCH   4   3
ATOM      1  C   UNL     1      -0.982   2.053  35.691  0.00  0.00    +0.020 A 
ATOM      2  C   UNL     1      -0.588   1.845  34.317  0.00  0.00    +0.013 A 
ATOM      3  C   UNL     1      -0.336   0.502  33.810  0.00  0.00    +0.019 A 
ATOM     38  C   UNL     1      -0.493  -0.618  34.726  0.00  0.00    +0.120 A 
ATOM     39  N   UNL     1      -0.872  -0.386  36.045  0.00  0.00    -0.263 NA
ATOM     40  C   UNL     1      -1.116   0.902  36.545  0.00  0.00    +0.111 A 
ENDBRANCH   4   3
ENDBRANCH  10   9
BRANCH  12  13
ATOM     13  N   UNL     1      -0.543  -3.345  25.690  0.00  0.00    -0.281 N 
ATOM     14  C   UNL     1      -1.623  -4.139  25.342  0.00  0.00    +0.248 C 
ATOM     30  O   UNL     1      -1.853  -5.241  25.818  0.00  0.00    -0.270 OA
ATOM     31  H   UNL     1      -0.360  -2.545  25.083  0.00  0.00    +0.155 HD
BRANCH  14  15
ATOM     15  C   UNL     1      -2.577  -3.645  24.303  0.00  0.00    +0.037 A 
ATOM     16  C   UNL     1      -2.100  -3.098  23.031  0.00  0.00    +0.013 A 
ATOM     17  C   UNL     1      -3.042  -2.612  22.054  0.00  0.00    +0.005 A 
ATOM     18  C   UNL     1      -4.472  -2.673  22.345  0.00  0.00    -0.033 A 
ATOM     28  C   UNL     1      -4.918  -3.225  23.613  0.00  0.00    +0.005 A 
ATOM     29  C   UNL     1      -3.998  -3.701  24.574  0.00  0.00    +0.013 A 
BRANCH  18  19
ATOM     19  C   UNL     1      -5.547  -2.158  21.370  0.00  0.00    +0.119 C 
BRANCH  19  20
ATOM     20  N   UNL     1      -6.193  -0.850  21.692  0.00  0.00    -0.302 NA
ATOM     21  C   UNL     1      -5.361  -0.027  22.680  0.00  0.00    +0.066 C 
ATOM     22  C   UNL     1      -6.040   1.347  22.988  0.00  0.00    -0.064 C 
ATOM     23  N   UNL     1      -7.448   1.106  23.535  0.00  0.00    +0.379 N 
ATOM     24  C   UNL     1      -8.068   2.394  23.880  0.00  0.00    -0.096 C 
ATOM     25  H   UNL     1      -7.349   0.515  24.475  0.00  0.00    -0.082 HD
ATOM     26  C   UNL     1      -8.281   0.286  22.560  0.00  0.00    -0.064 C 
ATOM     27  C   UNL     1      -7.583  -1.065  22.237  0.00  0.00    +0.066 C 
ENDBRANCH  19  20
ENDBRANCH  18  19
ENDBRANCH  14  15
ENDBRANCH  12  13
TORSDOF 6
ENDMDL
MODEL 5
REMARK VINA RESULT:      -5.4     20.946     22.964
REMARK  Name = C:\Users\Docking\Desktop\test protocol\1iep_ligandH.pdb
REMARK  8 active torsions:
REMARK  status: ('A' for Active; 'I' for Inactive)
REMARK    1  A    between atoms: _5  and  _11
REMARK    2  A    between atoms: _19  and  _21
REMARK    3  A    between atoms: _22  and  _66
REMARK    4  A    between atoms: _27  and  _30
REMARK    5  A    between atoms: _32  and  _33
REMARK    6  A    between atoms: _38  and  _43
REMARK    7  A    between atoms: _43  and  _46
REMARK    8  A    between atoms: _53  and  _55
REMARK                            x       y       z     vdW  Elec       q    Type
REMARK                         _______ _______ _______ _____ _____    ______ ____
ROOT
ATOM     10  C   UNL     1      23.483  -4.822  24.476  0.00  0.00    +0.038 A 
ATOM     11  C   UNL     1      22.503  -4.611  25.480  0.00  0.00    +0.047 A 
ATOM     12  C   UNL     1      21.151  -4.199  25.136  0.00  0.00    +0.035 A 
ATOM     32  C   UNL     1      20.831  -4.014  23.759  0.00  0.00    +0.024 A 
ATOM     33  C   UNL     1      21.815  -4.223  22.727  0.00  0.00    +0.007 A 
ATOM     34  C   UNL     1      23.151  -4.627  23.060  0.00  0.00    -0.029 A 
ATOM     35  C   UNL     1      24.167  -4.831  21.912  0.00  0.00    +0.045 C 
ENDROOT
BRANCH  10   9
ATOM      4  C   UNL     1      28.053  -3.864  25.586  0.00  0.00    +0.077 A 
ATOM      5  C   UNL     1      27.878  -2.460  25.349  0.00  0.00    +0.048 A 
ATOM      6  C   UNL     1      26.598  -2.026  24.936  0.00  0.00    +0.116 A 
ATOM      7  N   UNL     1      25.577  -2.937  24.776  0.00  0.00    -0.223 NA
ATOM      8  C   UNL     1      25.780  -4.285  25.011  0.00  0.00    +0.220 A 
ATOM      9  N   UNL     1      24.765  -5.218  24.863  0.00  0.00    -0.283 N 
ATOM     36  H   UNL     1      24.957  -6.204  25.039  0.00  0.00    +0.155 HD
ATOM     37  N   UNL     1      26.994  -4.724  25.405  0.00  0.00    -0.214 NA
BRANCH   4   3
ATOM      1  C   UNL     1      31.593  -4.372  27.170  0.00  0.00    +0.020 A 
ATOM      2  C   UNL     1      30.362  -3.733  26.765  0.00  0.00    +0.013 A 
ATOM      3  C   UNL     1      29.346  -4.476  26.030  0.00  0.00    +0.019 A 
ATOM     38  C   UNL     1      29.607  -5.873  25.720  0.00  0.00    +0.120 A 
ATOM     39  N   UNL     1      30.803  -6.461  26.122  0.00  0.00    -0.263 NA
ATOM     40  C   UNL     1      31.789  -5.756  26.828  0.00  0.00    +0.111 A 
ENDBRANCH   4   3
ENDBRANCH  10   9
BRANCH  12  13
ATOM     13  N   UNL     1      20.116  -3.962  26.111  0.00  0.00    -0.281 N 
ATOM     14  C   UNL     1      19.139  -4.842  26.548  0.00  0.00    +0.248 C 
ATOM     30  O   UNL     1      18.875  -5.905  26.007  0.00  0.00    -0.270 OA
ATOM     31  H   UNL     1      20.101  -3.032  26.531  0.00  0.00    +0.155 HD
BRANCH  14  15
ATOM     15  C   UNL     1      18.330  -4.482  27.752  0.00  0.00    +0.037 A 
ATOM     16  C   UNL     1      18.841  -3.551  28.761  0.00  0.00    +0.013 A 
ATOM     17  C   UNL     1      18.047  -3.234  29.921  0.00  0.00    +0.005 A 
ATOM     18  C   UNL     1      16.731  -3.850  30.079  0.00  0.00    -0.033 A 
ATOM     28  C   UNL     1      16.247  -4.767  29.060  0.00  0.00    +0.005 A 
ATOM     29  C   UNL     1      17.023  -5.080  27.922  0.00  0.00    +0.013 A 
BRANCH  18  19
ATOM     19  C   UNL     1      15.824  -3.587  31.295  0.00  0.00    +0.119 C 
BRANCH  19  20
ATOM     20  N   UNL     1      14.411  -4.060  31.210  0.00  0.00    -0.302 NA
ATOM     21  C   UNL     1      13.414  -2.972  31.619  0.00  0.00    +0.066 C 
ATOM     22  C   UNL     1      11.939  -3.477  31.502  0.00  0.00    -0.064 C 
ATOM     23  N   UNL     1      11.761  -4.727  32.366  0.00  0.00    +0.379 N 
ATOM     24  C   UNL     1      10.361  -5.171  32.304  0.00  0.00    -0.096 C 
ATOM     25  H   UNL     1      11.980  -4.442  33.421  0.00  0.00    -0.082 HD
ATOM     26  C   UNL     1      12.750  -5.814  31.967  0.00  0.00    -0.064 C 
ATOM     27  C   UNL     1      14.211  -5.292  32.059  0.00  0.00    +0.066 C 
ENDBRANCH  19  20
ENDBRANCH  18  19
ENDBRANCH  14  15
ENDBRANCH  12  13
TORSDOF 6
ENDMDL
