MODEL 1
REMARK VINA RESULT:      -8.3      0.000      0.000
REMARK  Name = C:\Users\Docking\Desktop\test protocol\1iep_ligandH.pdb
REMARK  8 active torsions:
REMARK  status: ('A' for Active; 'I' for Inactive)
REMARK    1  A    between atoms: _5  and  _11
REMARK    2  A    between atoms: _19  and  _21
REMARK    3  A    between atoms: _22  and  _66
REMARK    4  A    between atoms: _27  and  _30
REMARK    5  A    between atoms: _32  and  _33
REMARK    6  A    between atoms: _38  and  _43
REMARK    7  A    between atoms: _43  and  _46
REMARK    8  A    between atoms: _53  and  _55
REMARK                            x       y       z     vdW  Elec       q    Type
REMARK                         _______ _______ _______ _____ _____    ______ ____
ROOT
ATOM     10  C   UNL     1       6.689  -3.919  22.645  0.00  0.00    +0.038 A 
ATOM     11  C   UNL     1       6.564  -2.794  23.499  0.00  0.00    +0.047 A 
ATOM     12  C   UNL     1       5.263  -2.216  23.795  0.00  0.00    +0.035 A 
ATOM     32  C   UNL     1       4.109  -2.811  23.206  0.00  0.00    +0.024 A 
ATOM     33  C   UNL     1       4.218  -3.954  22.335  0.00  0.00    +0.007 A 
ATOM     34  C   UNL     1       5.499  -4.528  22.037  0.00  0.00    -0.029 A 
ATOM     35  C   UNL     1       5.558  -5.750  21.091  0.00  0.00    +0.045 C 
ENDROOT
BRANCH  10   9
ATOM      4  C   UNL     1      10.773  -4.072  20.128  0.00  0.00    +0.077 A 
ATOM      5  C   UNL     1      10.320  -3.060  19.218  0.00  0.00    +0.048 A 
ATOM      6  C   UNL     1       9.026  -2.531  19.428  0.00  0.00    +0.116 A 
ATOM      7  N   UNL     1       8.253  -2.987  20.474  0.00  0.00    -0.223 NA
ATOM      8  C   UNL     1       8.721  -3.966  21.332  0.00  0.00    +0.220 A 
ATOM      9  N   UNL     1       7.963  -4.434  22.394  0.00  0.00    -0.283 N 
ATOM     36  H   UNL     1       8.341  -5.162  23.000  0.00  0.00    +0.155 HD
ATOM     37  N   UNL     1       9.952  -4.488  21.151  0.00  0.00    -0.214 NA
BRANCH   4   3
ATOM      1  C   UNL     1      14.066  -5.976  21.039  0.00  0.00    +0.020 A 
ATOM      2  C   UNL     1      12.768  -5.358  21.179  0.00  0.00    +0.013 A 
ATOM      3  C   UNL     1      12.117  -4.726  20.038  0.00  0.00    +0.019 A 
ATOM     38  C   UNL     1      12.812  -4.737  18.760  0.00  0.00    +0.120 A 
ATOM     39  N   UNL     1      14.063  -5.338  18.656  0.00  0.00    -0.263 NA
ATOM     40  C   UNL     1      14.699  -5.948  19.747  0.00  0.00    +0.111 A 
ENDBRANCH   4   3
ENDBRANCH  10   9
BRANCH  12  13
ATOM     13  N   UNL     1       5.074  -1.069  24.648  0.00  0.00    -0.281 N 
ATOM     14  C   UNL     1       3.929  -0.306  24.809  0.00  0.00    +0.248 C 
ATOM     30  O   UNL     1       2.950  -0.366  24.080  0.00  0.00    -0.270 OA
ATOM     31  H   UNL     1       5.883  -0.784  25.200  0.00  0.00    +0.155 HD
BRANCH  14  15
ATOM     15  C   UNL     1       3.867   0.675  25.935  0.00  0.00    +0.037 A 
ATOM     16  C   UNL     1       3.198   0.344  27.196  0.00  0.00    +0.013 A 
ATOM     17  C   UNL     1       3.138   1.316  28.259  0.00  0.00    +0.005 A 
ATOM     18  C   UNL     1       3.752   2.627  28.067  0.00  0.00    -0.033 A 
ATOM     28  C   UNL     1       4.414   2.927  26.808  0.00  0.00    +0.005 A 
ATOM     29  C   UNL     1       4.473   1.978  25.763  0.00  0.00    +0.013 A 
BRANCH  18  19
ATOM     19  C   UNL     1       3.717   3.732  29.139  0.00  0.00    +0.119 C 
BRANCH  19  20
ATOM     20  N   UNL     1       5.019   4.128  29.755  0.00  0.00    -0.302 NA
ATOM     21  C   UNL     1       5.833   2.913  30.208  0.00  0.00    +0.066 C 
ATOM     22  C   UNL     1       7.202   3.345  30.829  0.00  0.00    -0.064 C 
ATOM     23  N   UNL     1       6.950   4.296  32.000  0.00  0.00    +0.379 N 
ATOM     24  C   UNL     1       8.232   4.658  32.623  0.00  0.00    -0.096 C 
ATOM     25  H   UNL     1       6.349   3.745  32.760  0.00  0.00    -0.082 HD
ATOM     26  C   UNL     1       6.139   5.506  31.558  0.00  0.00    -0.064 C 
ATOM     27  C   UNL     1       4.794   5.065  30.916  0.00  0.00    +0.066 C 
ENDBRANCH  19  20
ENDBRANCH  18  19
ENDBRANCH  14  15
ENDBRANCH  12  13
TORSDOF 6
ENDMDL
MODEL 2
REMARK VINA RESULT:      -8.1      1.624      2.224
REMARK  Name = C:\Users\Docking\Desktop\test protocol\1iep_ligandH.pdb
REMARK  8 active torsions:
REMARK  status: ('A' for Active; 'I' for Inactive)
REMARK    1  A    between atoms: _5  and  _11
REMARK    2  A    between atoms: _19  and  _21
REMARK    3  A    between atoms: _22  and  _66
REMARK    4  A    between atoms: _27  and  _30
REMARK    5  A    between atoms: _32  and  _33
REMARK    6  A    between atoms: _38  and  _43
REMARK    7  A    between atoms: _43  and  _46
REMARK    8  A    between atoms: _53  and  _55
REMARK                            x       y       z     vdW  Elec       q    Type
REMARK                         _______ _______ _______ _____ _____    ______ ____
ROOT
ATOM     10  C   UNL     1       6.860  -3.758  22.676  0.00  0.00    +0.038 A 
ATOM     11  C   UNL     1       6.717  -2.462  23.235  0.00  0.00    +0.047 A 
ATOM     12  C   UNL     1       5.404  -1.910  23.530  0.00  0.00    +0.035 A 
ATOM     32  C   UNL     1       4.257  -2.707  23.247  0.00  0.00    +0.024 A 
ATOM     33  C   UNL     1       4.384  -4.026  22.678  0.00  0.00    +0.007 A 
ATOM     34  C   UNL     1       5.676  -4.575  22.382  0.00  0.00    -0.029 A 
ATOM     35  C   UNL     1       5.752  -5.991  21.767  0.00  0.00    +0.045 C 
ENDROOT
BRANCH  10   9
ATOM      4  C   UNL     1      10.862  -3.908  20.030  0.00  0.00    +0.077 A 
ATOM      5  C   UNL     1      10.338  -2.971  19.078  0.00  0.00    +0.048 A 
ATOM      6  C   UNL     1       9.032  -2.480  19.301  0.00  0.00    +0.116 A 
ATOM      7  N   UNL     1       8.313  -2.901  20.399  0.00  0.00    -0.223 NA
ATOM      8  C   UNL     1       8.847  -3.807  21.297  0.00  0.00    +0.220 A 
ATOM      9  N   UNL     1       8.145  -4.237  22.412  0.00  0.00    -0.283 N 
ATOM     36  H   UNL     1       8.571  -4.912  23.047  0.00  0.00    +0.155 HD
ATOM     37  N   UNL     1      10.091  -4.292  21.105  0.00  0.00    -0.214 NA
BRANCH   4   3
ATOM      1  C   UNL     1      14.137  -5.525  18.631  0.00  0.00    +0.020 A 
ATOM      2  C   UNL     1      12.814  -4.946  18.670  0.00  0.00    +0.013 A 
ATOM      3  C   UNL     1      12.227  -4.514  19.932  0.00  0.00    +0.019 A 
ATOM     38  C   UNL     1      13.011  -4.683  21.146  0.00  0.00    +0.120 A 
ATOM     39  N   UNL     1      14.282  -5.245  21.078  0.00  0.00    -0.263 NA
ATOM     40  C   UNL     1      14.857  -5.666  19.869  0.00  0.00    +0.111 A 
ENDBRANCH   4   3
ENDBRANCH  10   9
BRANCH  12  13
ATOM     13  N   UNL     1       5.197  -0.598  24.090  0.00  0.00    -0.281 N 
ATOM     14  C   UNL     1       4.771   0.548  23.439  0.00  0.00    +0.248 C 
ATOM     30  O   UNL     1       4.707   0.670  22.225  0.00  0.00    -0.270 OA
ATOM     31  H   UNL     1       5.388  -0.502  25.088  0.00  0.00    +0.155 HD
BRANCH  14  15
ATOM     15  C   UNL     1       4.371   1.736  24.254  0.00  0.00    +0.037 A 
ATOM     16  C   UNL     1       4.054   3.019  23.623  0.00  0.00    +0.013 A 
ATOM     17  C   UNL     1       3.688   4.153  24.433  0.00  0.00    +0.005 A 
ATOM     18  C   UNL     1       3.635   4.008  25.886  0.00  0.00    -0.033 A 
ATOM     28  C   UNL     1       3.949   2.722  26.486  0.00  0.00    +0.005 A 
ATOM     29  C   UNL     1       4.310   1.608  25.695  0.00  0.00    +0.013 A 
BRANCH  18  19
ATOM     19  C   UNL     1       3.275   5.170  26.830  0.00  0.00    +0.119 C 
BRANCH  19  20
ATOM     20  N   UNL     1       4.342   5.656  27.755  0.00  0.00    -0.302 NA
ATOM     21  C   UNL     1       4.132   5.155  29.187  0.00  0.00    +0.066 C 
ATOM     22  C   UNL     1       5.270   5.654  30.137  0.00  0.00    -0.064 C 
ATOM     23  N   UNL     1       5.328   7.182  30.100  0.00  0.00    +0.379 N 
ATOM     24  C   UNL     1       6.358   7.657  31.036  0.00  0.00    -0.096 C 
ATOM     25  H   UNL     1       4.344   7.566  30.457  0.00  0.00    -0.082 HD
ATOM     26  C   UNL     1       5.533   7.688  28.680  0.00  0.00    -0.064 C 
ATOM     27  C   UNL     1       4.413   7.163  27.738  0.00  0.00    +0.066 C 
ENDBRANCH  19  20
ENDBRANCH  18  19
ENDBRANCH  14  15
ENDBRANCH  12  13
TORSDOF 6
ENDMDL
MODEL 3
REMARK VINA RESULT:      -7.9      9.511     13.991
REMARK  Name = C:\Users\Docking\Desktop\test protocol\1iep_ligandH.pdb
REMARK  8 active torsions:
REMARK  status: ('A' for Active; 'I' for Inactive)
REMARK    1  A    between atoms: _5  and  _11
REMARK    2  A    between atoms: _19  and  _21
REMARK    3  A    between atoms: _22  and  _66
REMARK    4  A    between atoms: _27  and  _30
REMARK    5  A    between atoms: _32  and  _33
REMARK    6  A    between atoms: _38  and  _43
REMARK    7  A    between atoms: _43  and  _46
REMARK    8  A    between atoms: _53  and  _55
REMARK                            x       y       z     vdW  Elec       q    Type
REMARK                         _______ _______ _______ _____ _____    ______ ____
ROOT
ATOM     10  C   UNL     1       4.996   4.267  30.750  0.00  0.00    +0.038 A 
ATOM     11  C   UNL     1       5.019   5.603  31.226  0.00  0.00    +0.047 A 
ATOM     12  C   UNL     1       6.224   6.413  31.137  0.00  0.00    +0.035 A 
ATOM     32  C   UNL     1       7.388   5.831  30.555  0.00  0.00    +0.024 A 
ATOM     33  C   UNL     1       7.383   4.474  30.067  0.00  0.00    +0.007 A 
ATOM     34  C   UNL     1       6.198   3.670  30.155  0.00  0.00    -0.029 A 
ATOM     35  C   UNL     1       6.252   2.219  29.622  0.00  0.00    +0.045 C 
ENDROOT
BRANCH  10   9
ATOM      4  C   UNL     1       2.145   1.148  33.026  0.00  0.00    +0.077 A 
ATOM      5  C   UNL     1       3.107   0.939  34.070  0.00  0.00    +0.048 A 
ATOM      6  C   UNL     1       4.326   1.648  33.980  0.00  0.00    +0.116 A 
ATOM      7  N   UNL     1       4.555   2.500  32.921  0.00  0.00    -0.223 NA
ATOM      8  C   UNL     1       3.607   2.677  31.930  0.00  0.00    +0.220 A 
ATOM      9  N   UNL     1       3.812   3.535  30.861  0.00  0.00    -0.283 N 
ATOM     36  H   UNL     1       3.091   3.632  30.147  0.00  0.00    +0.155 HD
ATOM     37  N   UNL     1       2.435   2.010  31.993  0.00  0.00    -0.214 NA
BRANCH   4   3
ATOM      1  C   UNL     1      -1.453  -0.072  33.956  0.00  0.00    +0.020 A 
ATOM      2  C   UNL     1      -0.177   0.600  34.048  0.00  0.00    +0.013 A 
ATOM      3  C   UNL     1       0.809   0.473  32.982  0.00  0.00    +0.019 A 
ATOM     38  C   UNL     1       0.471  -0.346  31.828  0.00  0.00    +0.120 A 
ATOM     39  N   UNL     1      -0.765  -0.982  31.768  0.00  0.00    -0.263 NA
ATOM     40  C   UNL     1      -1.722  -0.869  32.788  0.00  0.00    +0.111 A 
ENDBRANCH   4   3
ENDBRANCH  10   9
BRANCH  12  13
ATOM     13  N   UNL     1       6.309   7.772  31.610  0.00  0.00    -0.281 N 
ATOM     14  C   UNL     1       5.906   8.927  30.960  0.00  0.00    +0.248 C 
ATOM     30  O   UNL     1       5.605   8.985  29.777  0.00  0.00    -0.270 OA
ATOM     31  H   UNL     1       6.716   7.899  32.537  0.00  0.00    +0.155 HD
BRANCH  14  15
ATOM     15  C   UNL     1       5.842  10.206  31.732  0.00  0.00    +0.037 A 
ATOM     16  C   UNL     1       4.602  10.981  31.816  0.00  0.00    +0.013 A 
ATOM     17  C   UNL     1       4.572  12.219  32.553  0.00  0.00    +0.005 A 
ATOM     18  C   UNL     1       5.787  12.689  33.213  0.00  0.00    -0.033 A 
ATOM     28  C   UNL     1       7.003  11.898  33.118  0.00  0.00    +0.005 A 
ATOM     29  C   UNL     1       7.036  10.684  32.395  0.00  0.00    +0.013 A 
BRANCH  18  19
ATOM     19  C   UNL     1       5.853  14.010  34.004  0.00  0.00    +0.119 C 
BRANCH  19  20
ATOM     20  N   UNL     1       5.144  14.056  35.318  0.00  0.00    -0.302 NA
ATOM     21  C   UNL     1       3.920  14.975  35.278  0.00  0.00    +0.066 C 
ATOM     22  C   UNL     1       3.178  14.995  36.654  0.00  0.00    -0.064 C 
ATOM     23  N   UNL     1       4.151  15.435  37.749  0.00  0.00    +0.379 N 
ATOM     24  C   UNL     1       3.442  15.510  39.035  0.00  0.00    -0.096 C 
ATOM     25  H   UNL     1       4.502  16.462  37.496  0.00  0.00    -0.082 HD
ATOM     26  C   UNL     1       5.373  14.528  37.793  0.00  0.00    -0.064 C 
ATOM     27  C   UNL     1       6.086  14.493  36.413  0.00  0.00    +0.066 C 
ENDBRANCH  19  20
ENDBRANCH  18  19
ENDBRANCH  14  15
ENDBRANCH  12  13
TORSDOF 6
ENDMDL
MODEL 4
REMARK VINA RESULT:      -7.8      6.335     12.979
REMARK  Name = C:\Users\Docking\Desktop\test protocol\1iep_ligandH.pdb
REMARK  8 active torsions:
REMARK  status: ('A' for Active; 'I' for Inactive)
REMARK    1  A    between atoms: _5  and  _11
REMARK    2  A    between atoms: _19  and  _21
REMARK    3  A    between atoms: _22  and  _66
REMARK    4  A    between atoms: _27  and  _30
REMARK    5  A    between atoms: _32  and  _33
REMARK    6  A    between atoms: _38  and  _43
REMARK    7  A    between atoms: _43  and  _46
REMARK    8  A    between atoms: _53  and  _55
REMARK                            x       y       z     vdW  Elec       q    Type
REMARK                         _______ _______ _______ _____ _____    ______ ____
ROOT
ATOM     10  C   UNL     1       6.268  -3.738  20.855  0.00  0.00    +0.038 A 
ATOM     11  C   UNL     1       7.538  -4.331  20.640  0.00  0.00    +0.047 A 
ATOM     12  C   UNL     1       8.744  -3.759  21.217  0.00  0.00    +0.035 A 
ATOM     32  C   UNL     1       8.619  -2.582  22.012  0.00  0.00    +0.024 A 
ATOM     33  C   UNL     1       7.336  -1.965  22.240  0.00  0.00    +0.007 A 
ATOM     34  C   UNL     1       6.144  -2.524  21.670  0.00  0.00    -0.029 A 
ATOM     35  C   UNL     1       4.796  -1.816  21.943  0.00  0.00    +0.045 C 
ENDROOT
BRANCH  10   9
ATOM      4  C   UNL     1       2.518  -6.730  20.990  0.00  0.00    +0.077 A 
ATOM      5  C   UNL     1       2.843  -7.171  22.316  0.00  0.00    +0.048 A 
ATOM      6  C   UNL     1       3.987  -6.609  22.925  0.00  0.00    +0.116 A 
ATOM      7  N   UNL     1       4.742  -5.675  22.250  0.00  0.00    -0.223 NA
ATOM      8  C   UNL     1       4.402  -5.273  20.971  0.00  0.00    +0.220 A 
ATOM      9  N   UNL     1       5.143  -4.330  20.276  0.00  0.00    -0.283 N 
ATOM     36  H   UNL     1       4.864  -4.065  19.332  0.00  0.00    +0.155 HD
ATOM     37  N   UNL     1       3.315  -5.797  20.367  0.00  0.00    -0.214 NA
BRANCH   4   3
ATOM      1  C   UNL     1      -0.285  -7.108  18.288  0.00  0.00    +0.020 A 
ATOM      2  C   UNL     1       0.859  -6.585  18.999  0.00  0.00    +0.013 A 
ATOM      3  C   UNL     1       1.338  -7.229  20.215  0.00  0.00    +0.019 A 
ATOM     38  C   UNL     1       0.633  -8.411  20.688  0.00  0.00    +0.120 A 
ATOM     39  N   UNL     1      -0.467  -8.890  19.984  0.00  0.00    -0.263 NA
ATOM     40  C   UNL     1      -0.938  -8.277  18.813  0.00  0.00    +0.111 A 
ENDBRANCH   4   3
ENDBRANCH  10   9
BRANCH  12  13
ATOM     13  N   UNL     1      10.062  -4.313  21.027  0.00  0.00    -0.281 N 
ATOM     14  C   UNL     1      11.052  -3.876  20.162  0.00  0.00    +0.248 C 
ATOM     30  O   UNL     1      10.877  -3.068  19.262  0.00  0.00    -0.270 OA
ATOM     31  H   UNL     1      10.292  -5.125  21.599  0.00  0.00    +0.155 HD
BRANCH  14  15
ATOM     15  C   UNL     1      12.433  -4.428  20.309  0.00  0.00    +0.037 A 
ATOM     16  C   UNL     1      13.599  -3.706  19.791  0.00  0.00    +0.013 A 
ATOM     17  C   UNL     1      14.919  -4.269  19.931  0.00  0.00    +0.005 A 
ATOM     18  C   UNL     1      15.080  -5.561  20.594  0.00  0.00    -0.033 A 
ATOM     28  C   UNL     1      13.907  -6.253  21.102  0.00  0.00    +0.005 A 
ATOM     29  C   UNL     1      12.612  -5.705  20.966  0.00  0.00    +0.013 A 
BRANCH  18  19
ATOM     19  C   UNL     1      16.448  -6.247  20.768  0.00  0.00    +0.119 C 
BRANCH  19  20
ATOM     20  N   UNL     1      17.540  -5.840  19.835  0.00  0.00    -0.302 NA
ATOM     21  C   UNL     1      17.581  -6.717  18.581  0.00  0.00    +0.066 C 
ATOM     22  C   UNL     1      18.715  -6.264  17.605  0.00  0.00    -0.064 C 
ATOM     23  N   UNL     1      20.058  -6.302  18.336  0.00  0.00    +0.379 N 
ATOM     24  C   UNL     1      21.134  -5.932  17.405  0.00  0.00    -0.096 C 
ATOM     25  H   UNL     1      20.237  -7.354  18.659  0.00  0.00    -0.082 HD
ATOM     26  C   UNL     1      20.026  -5.434  19.586  0.00  0.00    -0.064 C 
ATOM     27  C   UNL     1      18.877  -5.875  20.535  0.00  0.00    +0.066 C 
ENDBRANCH  19  20
ENDBRANCH  18  19
ENDBRANCH  14  15
ENDBRANCH  12  13
TORSDOF 6
ENDMDL
MODEL 5
REMARK VINA RESULT:      -7.7     10.056     16.500
REMARK  Name = C:\Users\Docking\Desktop\test protocol\1iep_ligandH.pdb
REMARK  8 active torsions:
REMARK  status: ('A' for Active; 'I' for Inactive)
REMARK    1  A    between atoms: _5  and  _11
REMARK    2  A    between atoms: _19  and  _21
REMARK    3  A    between atoms: _22  and  _66
REMARK    4  A    between atoms: _27  and  _30
REMARK    5  A    between atoms: _32  and  _33
REMARK    6  A    between atoms: _38  and  _43
REMARK    7  A    between atoms: _43  and  _46
REMARK    8  A    between atoms: _53  and  _55
REMARK                            x       y       z     vdW  Elec       q    Type
REMARK                         _______ _______ _______ _____ _____    ______ ____
ROOT
ATOM     10  C   UNL     1      -1.671   0.226  35.743  0.00  0.00    +0.038 A 
ATOM     11  C   UNL     1      -0.403   0.771  35.417  0.00  0.00    +0.047 A 
ATOM     12  C   UNL     1      -0.276   1.871  34.474  0.00  0.00    +0.035 A 
ATOM     32  C   UNL     1      -1.463   2.393  33.882  0.00  0.00    +0.024 A 
ATOM     33  C   UNL     1      -2.760   1.851  34.201  0.00  0.00    +0.007 A 
ATOM     34  C   UNL     1      -2.891   0.764  35.129  0.00  0.00    -0.029 A 
ATOM     35  C   UNL     1      -4.306   0.218  35.429  0.00  0.00    +0.045 C 
ENDROOT
BRANCH  10   9
ATOM      4  C   UNL     1      -2.281  -1.504  40.178  0.00  0.00    +0.077 A 
ATOM      5  C   UNL     1      -2.462  -0.192  40.729  0.00  0.00    +0.048 A 
ATOM      6  C   UNL     1      -2.384   0.902  39.838  0.00  0.00    +0.116 A 
ATOM      7  N   UNL     1      -2.142   0.688  38.498  0.00  0.00    -0.223 NA
ATOM      8  C   UNL     1      -1.970  -0.590  38.000  0.00  0.00    +0.220 A 
ATOM      9  N   UNL     1      -1.734  -0.830  36.655  0.00  0.00    -0.283 N 
ATOM     36  H   UNL     1      -1.605  -1.787  36.329  0.00  0.00    +0.155 HD
ATOM     37  N   UNL     1      -2.039  -1.652  38.831  0.00  0.00    -0.214 NA
BRANCH   4   3
ATOM      1  C   UNL     1      -3.556  -4.446  42.418  0.00  0.00    +0.020 A 
ATOM      2  C   UNL     1      -3.554  -3.226  41.645  0.00  0.00    +0.013 A 
ATOM      3  C   UNL     1      -2.338  -2.760  40.991  0.00  0.00    +0.019 A 
ATOM     38  C   UNL     1      -1.131  -3.559  41.140  0.00  0.00    +0.120 A 
ATOM     39  N   UNL     1      -1.163  -4.730  41.892  0.00  0.00    -0.263 NA
ATOM     40  C   UNL     1      -2.327  -5.187  42.527  0.00  0.00    +0.111 A 
ENDBRANCH   4   3
ENDBRANCH  10   9
BRANCH  12  13
ATOM     13  N   UNL     1       0.985   2.459  34.098  0.00  0.00    -0.281 N 
ATOM     14  C   UNL     1       2.024   1.871  33.396  0.00  0.00    +0.248 C 
ATOM     30  O   UNL     1       2.113   0.674  33.167  0.00  0.00    -0.270 OA
ATOM     31  H   UNL     1       1.130   3.428  34.385  0.00  0.00    +0.155 HD
BRANCH  14  15
ATOM     15  C   UNL     1       3.132   2.735  32.885  0.00  0.00    +0.037 A 
ATOM     16  C   UNL     1       2.908   4.148  32.568  0.00  0.00    +0.013 A 
ATOM     17  C   UNL     1       3.990   4.955  32.061  0.00  0.00    +0.005 A 
ATOM     18  C   UNL     1       5.306   4.351  31.869  0.00  0.00    -0.033 A 
ATOM     28  C   UNL     1       5.501   2.948  32.196  0.00  0.00    +0.005 A 
ATOM     29  C   UNL     1       4.443   2.154  32.693  0.00  0.00    +0.013 A 
BRANCH  18  19
ATOM     19  C   UNL     1       6.511   5.131  31.313  0.00  0.00    +0.119 C 
BRANCH  19  20
ATOM     20  N   UNL     1       6.301   5.912  30.058  0.00  0.00    -0.302 NA
ATOM     21  C   UNL     1       6.125   5.002  28.838  0.00  0.00    +0.066 C 
ATOM     22  C   UNL     1       5.883   5.835  27.537  0.00  0.00    -0.064 C 
ATOM     23  N   UNL     1       7.051   6.802  27.329  0.00  0.00    +0.379 N 
ATOM     24  C   UNL     1       6.854   7.545  26.076  0.00  0.00    -0.096 C 
ATOM     25  H   UNL     1       7.978   6.193  27.220  0.00  0.00    -0.082 HD
ATOM     26  C   UNL     1       7.233   7.708  28.538  0.00  0.00    -0.064 C 
ATOM     27  C   UNL     1       7.444   6.870  29.830  0.00  0.00    +0.066 C 
ENDBRANCH  19  20
ENDBRANCH  18  19
ENDBRANCH  14  15
ENDBRANCH  12  13
TORSDOF 6
ENDMDL
