MODEL 1
REMARK VINA RESULT:      -8.4      0.000      0.000
REMARK  Name = C:\Users\Docking\Desktop\test protocol\1iep_ligandH.pdb
REMARK  8 active torsions:
REMARK  status: ('A' for Active; 'I' for Inactive)
REMARK    1  A    between atoms: _5  and  _11
REMARK    2  A    between atoms: _19  and  _21
REMARK    3  A    between atoms: _22  and  _66
REMARK    4  A    between atoms: _27  and  _30
REMARK    5  A    between atoms: _32  and  _33
REMARK    6  A    between atoms: _38  and  _43
REMARK    7  A    between atoms: _43  and  _46
REMARK    8  A    between atoms: _53  and  _55
REMARK                            x       y       z     vdW  Elec       q    Type
REMARK                         _______ _______ _______ _____ _____    ______ ____
ROOT
ATOM     10  C   UNL     1      20.039  29.973  22.084  0.00  0.00    +0.038 A 
ATOM     11  C   UNL     1      20.389  29.958  20.710  0.00  0.00    +0.047 A 
ATOM     12  C   UNL     1      19.778  30.884  19.768  0.00  0.00    +0.035 A 
ATOM     32  C   UNL     1      18.817  31.814  20.262  0.00  0.00    +0.024 A 
ATOM     33  C   UNL     1      18.450  31.842  21.656  0.00  0.00    +0.007 A 
ATOM     34  C   UNL     1      19.047  30.929  22.589  0.00  0.00    -0.029 A 
ATOM     35  C   UNL     1      18.610  31.000  24.071  0.00  0.00    +0.045 C 
ENDROOT
BRANCH  10   9
ATOM      4  C   UNL     1      20.075  25.888  24.604  0.00  0.00    +0.077 A 
ATOM      5  C   UNL     1      18.741  25.555  24.195  0.00  0.00    +0.048 A 
ATOM      6  C   UNL     1      18.078  26.465  23.342  0.00  0.00    +0.116 A 
ATOM      7  N   UNL     1      18.711  27.619  22.934  0.00  0.00    -0.223 NA
ATOM      8  C   UNL     1      19.998  27.911  23.348  0.00  0.00    +0.220 A 
ATOM      9  N   UNL     1      20.657  29.061  22.944  0.00  0.00    -0.283 N 
ATOM     36  H   UNL     1      21.603  29.244  23.277  0.00  0.00    +0.155 HD
ATOM     37  N   UNL     1      20.652  27.059  24.164  0.00  0.00    -0.214 NA
BRANCH   4   3
ATOM      1  C   UNL     1      21.204  23.485  27.477  0.00  0.00    +0.020 A 
ATOM      2  C   UNL     1      20.356  24.305  26.642  0.00  0.00    +0.013 A 
ATOM      3  C   UNL     1      20.908  25.026  25.502  0.00  0.00    +0.019 A 
ATOM     38  C   UNL     1      22.332  24.895  25.231  0.00  0.00    +0.120 A 
ATOM     39  N   UNL     1      23.123  24.100  26.054  0.00  0.00    -0.263 NA
ATOM     40  C   UNL     1      22.604  23.402  27.155  0.00  0.00    +0.111 A 
ENDBRANCH   4   3
ENDBRANCH  10   9
BRANCH  12  13
ATOM     13  N   UNL     1      20.087  30.911  18.360  0.00  0.00    -0.281 N 
ATOM     14  C   UNL     1      20.725  31.913  17.647  0.00  0.00    +0.248 C 
ATOM     30  O   UNL     1      20.937  33.038  18.075  0.00  0.00    -0.270 OA
ATOM     31  H   UNL     1      19.801  30.092  17.824  0.00  0.00    +0.155 HD
BRANCH  14  15
ATOM     15  C   UNL     1      21.179  31.629  16.252  0.00  0.00    +0.037 A 
ATOM     16  C   UNL     1      20.386  30.790  15.350  0.00  0.00    +0.013 A 
ATOM     17  C   UNL     1      20.856  30.518  14.015  0.00  0.00    +0.005 A 
ATOM     18  C   UNL     1      22.127  31.087  13.573  0.00  0.00    -0.033 A 
ATOM     28  C   UNL     1      22.891  31.919  14.487  0.00  0.00    +0.005 A 
ATOM     29  C   UNL     1      22.434  32.188  15.796  0.00  0.00    +0.013 A 
BRANCH  18  19
ATOM     19  C   UNL     1      22.715  30.832  12.173  0.00  0.00    +0.119 C 
BRANCH  19  20
ATOM     20  N   UNL     1      23.106  29.429  11.840  0.00  0.00    -0.302 NA
ATOM     21  C   UNL     1      24.386  29.372  11.002  0.00  0.00    +0.066 C 
ATOM     22  C   UNL     1      24.792  27.897  10.682  0.00  0.00    -0.064 C 
ATOM     23  N   UNL     1      23.639  27.199   9.958  0.00  0.00    +0.379 N 
ATOM     24  C   UNL     1      24.039  25.829   9.605  0.00  0.00    -0.096 C 
ATOM     25  H   UNL     1      23.451  27.752   9.009  0.00  0.00    -0.082 HD
ATOM     26  C   UNL     1      22.361  27.253  10.784  0.00  0.00    -0.064 C 
ATOM     27  C   UNL     1      21.983  28.722  11.121  0.00  0.00    +0.066 C 
ENDBRANCH  19  20
ENDBRANCH  18  19
ENDBRANCH  14  15
ENDBRANCH  12  13
TORSDOF 6
ENDMDL
MODEL 2
REMARK VINA RESULT:      -8.4      1.833      2.660
REMARK  Name = C:\Users\Docking\Desktop\test protocol\1iep_ligandH.pdb
REMARK  8 active torsions:
REMARK  status: ('A' for Active; 'I' for Inactive)
REMARK    1  A    between atoms: _5  and  _11
REMARK    2  A    between atoms: _19  and  _21
REMARK    3  A    between atoms: _22  and  _66
REMARK    4  A    between atoms: _27  and  _30
REMARK    5  A    between atoms: _32  and  _33
REMARK    6  A    between atoms: _38  and  _43
REMARK    7  A    between atoms: _43  and  _46
REMARK    8  A    between atoms: _53  and  _55
REMARK                            x       y       z     vdW  Elec       q    Type
REMARK                         _______ _______ _______ _____ _____    ______ ____
ROOT
ATOM     10  C   UNL     1      19.975  29.862  22.036  0.00  0.00    +0.038 A 
ATOM     11  C   UNL     1      20.402  29.897  20.684  0.00  0.00    +0.047 A 
ATOM     12  C   UNL     1      19.786  30.799  19.723  0.00  0.00    +0.035 A 
ATOM     32  C   UNL     1      18.739  31.654  20.174  0.00  0.00    +0.024 A 
ATOM     33  C   UNL     1      18.291  31.631  21.545  0.00  0.00    +0.007 A 
ATOM     34  C   UNL     1      18.894  30.741  22.496  0.00  0.00    -0.029 A 
ATOM     35  C   UNL     1      18.370  30.755  23.951  0.00  0.00    +0.045 C 
ENDROOT
BRANCH  10   9
ATOM      4  C   UNL     1      20.066  25.820  24.623  0.00  0.00    +0.077 A 
ATOM      5  C   UNL     1      18.743  25.455  24.208  0.00  0.00    +0.048 A 
ATOM      6  C   UNL     1      18.070  26.338  23.334  0.00  0.00    +0.116 A 
ATOM      7  N   UNL     1      18.685  27.497  22.912  0.00  0.00    -0.223 NA
ATOM      8  C   UNL     1      19.961  27.820  23.333  0.00  0.00    +0.220 A 
ATOM      9  N   UNL     1      20.602  28.977  22.915  0.00  0.00    -0.283 N 
ATOM     36  H   UNL     1      21.541  29.183  23.254  0.00  0.00    +0.155 HD
ATOM     37  N   UNL     1      20.625  26.994  24.169  0.00  0.00    -0.214 NA
BRANCH   4   3
ATOM      1  C   UNL     1      21.214  23.486  27.544  0.00  0.00    +0.020 A 
ATOM      2  C   UNL     1      20.359  24.276  26.688  0.00  0.00    +0.013 A 
ATOM      3  C   UNL     1      20.907  24.989  25.541  0.00  0.00    +0.019 A 
ATOM     38  C   UNL     1      22.335  24.882  25.286  0.00  0.00    +0.120 A 
ATOM     39  N   UNL     1      23.135  24.115  26.129  0.00  0.00    -0.263 NA
ATOM     40  C   UNL     1      22.619  23.426  27.236  0.00  0.00    +0.111 A 
ENDBRANCH   4   3
ENDBRANCH  10   9
BRANCH  12  13
ATOM     13  N   UNL     1      20.173  30.873  18.336  0.00  0.00    -0.281 N 
ATOM     14  C   UNL     1      20.727  31.949  17.662  0.00  0.00    +0.248 C 
ATOM     30  O   UNL     1      20.778  33.088  18.103  0.00  0.00    -0.270 OA
ATOM     31  H   UNL     1      20.018  30.030  17.783  0.00  0.00    +0.155 HD
BRANCH  14  15
ATOM     15  C   UNL     1      21.294  31.732  16.297  0.00  0.00    +0.037 A 
ATOM     16  C   UNL     1      20.669  30.801  15.354  0.00  0.00    +0.013 A 
ATOM     17  C   UNL     1      21.246  30.597  14.049  0.00  0.00    +0.005 A 
ATOM     18  C   UNL     1      22.456  31.328  13.678  0.00  0.00    -0.033 A 
ATOM     28  C   UNL     1      23.052  32.250  14.631  0.00  0.00    +0.005 A 
ATOM     29  C   UNL     1      22.490  32.451  15.912  0.00  0.00    +0.013 A 
BRANCH  18  19
ATOM     19  C   UNL     1      23.152  31.158  12.315  0.00  0.00    +0.119 C 
BRANCH  19  20
ATOM     20  N   UNL     1      23.096  32.312  11.369  0.00  0.00    -0.302 NA
ATOM     21  C   UNL     1      21.663  32.802  11.146  0.00  0.00    +0.066 C 
ATOM     22  C   UNL     1      21.625  34.024  10.171  0.00  0.00    -0.064 C 
ATOM     23  N   UNL     1      22.277  33.635   8.844  0.00  0.00    +0.379 N 
ATOM     24  C   UNL     1      22.191  34.764   7.905  0.00  0.00    -0.096 C 
ATOM     25  H   UNL     1      21.690  32.791   8.413  0.00  0.00    -0.082 HD
ATOM     26  C   UNL     1      23.702  33.143   9.057  0.00  0.00    -0.064 C 
ATOM     27  C   UNL     1      23.731  31.948  10.050  0.00  0.00    +0.066 C 
ENDBRANCH  19  20
ENDBRANCH  18  19
ENDBRANCH  14  15
ENDBRANCH  12  13
TORSDOF 6
ENDMDL
MODEL 3
REMARK VINA RESULT:      -7.8      2.288     12.271
REMARK  Name = C:\Users\Docking\Desktop\test protocol\1iep_ligandH.pdb
REMARK  8 active torsions:
REMARK  status: ('A' for Active; 'I' for Inactive)
REMARK    1  A    between atoms: _5  and  _11
REMARK    2  A    between atoms: _19  and  _21
REMARK    3  A    between atoms: _22  and  _66
REMARK    4  A    between atoms: _27  and  _30
REMARK    5  A    between atoms: _32  and  _33
REMARK    6  A    between atoms: _38  and  _43
REMARK    7  A    between atoms: _43  and  _46
REMARK    8  A    between atoms: _53  and  _55
REMARK                            x       y       z     vdW  Elec       q    Type
REMARK                         _______ _______ _______ _____ _____    ______ ____
ROOT
ATOM     10  C   UNL     1      22.650  30.260  11.990  0.00  0.00    +0.038 A 
ATOM     11  C   UNL     1      22.078  30.304  13.287  0.00  0.00    +0.047 A 
ATOM     12  C   UNL     1      22.465  31.327  14.247  0.00  0.00    +0.035 A 
ATOM     32  C   UNL     1      23.437  32.291  13.851  0.00  0.00    +0.024 A 
ATOM     33  C   UNL     1      24.030  32.261  12.537  0.00  0.00    +0.007 A 
ATOM     34  C   UNL     1      23.653  31.253  11.587  0.00  0.00    -0.029 A 
ATOM     35  C   UNL     1      24.326  31.265  10.195  0.00  0.00    +0.045 C 
ENDROOT
BRANCH  10   9
ATOM      4  C   UNL     1      23.103  25.898  10.041  0.00  0.00    +0.077 A 
ATOM      5  C   UNL     1      24.268  25.604  10.824  0.00  0.00    +0.048 A 
ATOM      6  C   UNL     1      24.722  26.605  11.712  0.00  0.00    +0.116 A 
ATOM      7  N   UNL     1      24.054  27.806  11.801  0.00  0.00    -0.223 NA
ATOM      8  C   UNL     1      22.934  28.058  11.030  0.00  0.00    +0.220 A 
ATOM      9  N   UNL     1      22.242  29.257  11.109  0.00  0.00    -0.283 N 
ATOM     36  H   UNL     1      21.425  29.407  10.518  0.00  0.00    +0.155 HD
ATOM     37  N   UNL     1      22.481  27.119  10.174  0.00  0.00    -0.214 NA
BRANCH   4   3
ATOM      1  C   UNL     1      22.639  23.376   7.087  0.00  0.00    +0.020 A 
ATOM      2  C   UNL     1      23.271  24.292   8.008  0.00  0.00    +0.013 A 
ATOM      3  C   UNL     1      22.499  24.941   9.060  0.00  0.00    +0.019 A 
ATOM     38  C   UNL     1      21.079  24.637   9.155  0.00  0.00    +0.120 A 
ATOM     39  N   UNL     1      20.498  23.751   8.253  0.00  0.00    -0.263 NA
ATOM     40  C   UNL     1      21.230  23.122   7.235  0.00  0.00    +0.111 A 
ENDBRANCH   4   3
ENDBRANCH  10   9
BRANCH  12  13
ATOM     13  N   UNL     1      21.924  31.416  15.580  0.00  0.00    -0.281 N 
ATOM     14  C   UNL     1      20.811  32.125  16.002  0.00  0.00    +0.248 C 
ATOM     30  O   UNL     1      20.232  32.966  15.331  0.00  0.00    -0.270 OA
ATOM     31  H   UNL     1      22.423  30.894  16.301  0.00  0.00    +0.155 HD
BRANCH  14  15
ATOM     15  C   UNL     1      20.272  31.873  17.373  0.00  0.00    +0.037 A 
ATOM     16  C   UNL     1      20.328  32.904  18.413  0.00  0.00    +0.013 A 
ATOM     17  C   UNL     1      19.816  32.629  19.732  0.00  0.00    +0.005 A 
ATOM     18  C   UNL     1      19.241  31.316  20.018  0.00  0.00    -0.033 A 
ATOM     28  C   UNL     1      19.193  30.314  18.966  0.00  0.00    +0.005 A 
ATOM     29  C   UNL     1      19.695  30.580  17.673  0.00  0.00    +0.013 A 
BRANCH  18  19
ATOM     19  C   UNL     1      18.690  30.928  21.403  0.00  0.00    +0.119 C 
BRANCH  19  20
ATOM     20  N   UNL     1      18.881  29.514  21.843  0.00  0.00    -0.302 NA
ATOM     21  C   UNL     1      17.554  28.753  21.923  0.00  0.00    +0.066 C 
ATOM     22  C   UNL     1      17.774  27.269  22.363  0.00  0.00    -0.064 C 
ATOM     23  N   UNL     1      18.497  27.242  23.711  0.00  0.00    +0.379 N 
ATOM     24  C   UNL     1      18.654  25.849  24.155  0.00  0.00    -0.096 C 
ATOM     25  H   UNL     1      17.848  27.763  24.453  0.00  0.00    -0.082 HD
ATOM     26  C   UNL     1      19.816  27.998  23.641  0.00  0.00    -0.064 C 
ATOM     27  C   UNL     1      19.589  29.463  23.174  0.00  0.00    +0.066 C 
ENDBRANCH  19  20
ENDBRANCH  18  19
ENDBRANCH  14  15
ENDBRANCH  12  13
TORSDOF 6
ENDMDL
MODEL 4
REMARK VINA RESULT:      -7.8      9.813     13.482
REMARK  Name = C:\Users\Docking\Desktop\test protocol\1iep_ligandH.pdb
REMARK  8 active torsions:
REMARK  status: ('A' for Active; 'I' for Inactive)
REMARK    1  A    between atoms: _5  and  _11
REMARK    2  A    between atoms: _19  and  _21
REMARK    3  A    between atoms: _22  and  _66
REMARK    4  A    between atoms: _27  and  _30
REMARK    5  A    between atoms: _32  and  _33
REMARK    6  A    between atoms: _38  and  _43
REMARK    7  A    between atoms: _43  and  _46
REMARK    8  A    between atoms: _53  and  _55
REMARK                            x       y       z     vdW  Elec       q    Type
REMARK                         _______ _______ _______ _____ _____    ______ ____
ROOT
ATOM     10  C   UNL     1      21.686  34.426  10.659  0.00  0.00    +0.038 A 
ATOM     11  C   UNL     1      22.223  35.054   9.507  0.00  0.00    +0.047 A 
ATOM     12  C   UNL     1      22.245  36.503   9.381  0.00  0.00    +0.035 A 
ATOM     32  C   UNL     1      21.714  37.282  10.450  0.00  0.00    +0.024 A 
ATOM     33  C   UNL     1      21.163  36.660  11.628  0.00  0.00    +0.007 A 
ATOM     34  C   UNL     1      21.136  35.231  11.756  0.00  0.00    -0.029 A 
ATOM     35  C   UNL     1      20.527  34.618  13.039  0.00  0.00    +0.045 C 
ENDROOT
BRANCH  10   9
ATOM      4  C   UNL     1      23.956  30.215  11.048  0.00  0.00    +0.077 A 
ATOM      5  C   UNL     1      25.244  30.846  11.091  0.00  0.00    +0.048 A 
ATOM      6  C   UNL     1      25.279  32.255  11.004  0.00  0.00    +0.116 A 
ATOM      7  N   UNL     1      24.107  32.971  10.882  0.00  0.00    -0.223 NA
ATOM      8  C   UNL     1      22.882  32.331  10.841  0.00  0.00    +0.220 A 
ATOM      9  N   UNL     1      21.691  33.031  10.727  0.00  0.00    -0.283 N 
ATOM     36  H   UNL     1      20.808  32.522  10.693  0.00  0.00    +0.155 HD
ATOM     37  N   UNL     1      22.822  30.985  10.922  0.00  0.00    -0.214 NA
BRANCH   4   3
ATOM      1  C   UNL     1      24.594  26.378  11.466  0.00  0.00    +0.020 A 
ATOM      2  C   UNL     1      24.842  27.800  11.394  0.00  0.00    +0.013 A 
ATOM      3  C   UNL     1      23.754  28.734  11.132  0.00  0.00    +0.019 A 
ATOM     38  C   UNL     1      22.416  28.193  10.947  0.00  0.00    +0.120 A 
ATOM     39  N   UNL     1      22.207  26.819  11.021  0.00  0.00    -0.263 NA
ATOM     40  C   UNL     1      23.247  25.910  11.271  0.00  0.00    +0.111 A 
ENDBRANCH   4   3
ENDBRANCH  10   9
BRANCH  12  13
ATOM     13  N   UNL     1      22.770  37.197   8.231  0.00  0.00    -0.281 N 
ATOM     14  C   UNL     1      23.909  37.983   8.157  0.00  0.00    +0.248 C 
ATOM     30  O   UNL     1      24.536  38.384   9.127  0.00  0.00    -0.270 OA
ATOM     31  H   UNL     1      22.238  37.097   7.367  0.00  0.00    +0.155 HD
BRANCH  14  15
ATOM     15  C   UNL     1      24.416  38.394   6.813  0.00  0.00    +0.037 A 
ATOM     16  C   UNL     1      25.781  38.899   6.638  0.00  0.00    +0.013 A 
ATOM     17  C   UNL     1      26.239  39.305   5.333  0.00  0.00    +0.005 A 
ATOM     18  C   UNL     1      25.332  39.206   4.192  0.00  0.00    -0.033 A 
ATOM     28  C   UNL     1      23.986  38.697   4.393  0.00  0.00    +0.005 A 
ATOM     29  C   UNL     1      23.532  38.299   5.671  0.00  0.00    +0.013 A 
BRANCH  18  19
ATOM     19  C   UNL     1      25.730  39.637   2.768  0.00  0.00    +0.119 C 
BRANCH  19  20
ATOM     20  N   UNL     1      26.160  38.562   1.824  0.00  0.00    -0.302 NA
ATOM     21  C   UNL     1      24.974  37.945   1.077  0.00  0.00    +0.066 C 
ATOM     22  C   UNL     1      25.444  36.839   0.077  0.00  0.00    -0.064 C 
ATOM     23  N   UNL     1      26.222  35.765   0.839  0.00  0.00    +0.379 N 
ATOM     24  C   UNL     1      26.616  34.694  -0.088  0.00  0.00    -0.096 C 
ATOM     25  H   UNL     1      25.534  35.321   1.596  0.00  0.00    -0.082 HD
ATOM     26  C   UNL     1      27.402  36.370   1.587  0.00  0.00    -0.064 C 
ATOM     27  C   UNL     1      26.927  37.488   2.556  0.00  0.00    +0.066 C 
ENDBRANCH  19  20
ENDBRANCH  18  19
ENDBRANCH  14  15
ENDBRANCH  12  13
TORSDOF 6
ENDMDL
MODEL 5
REMARK VINA RESULT:      -7.6     13.201     15.908
REMARK  Name = C:\Users\Docking\Desktop\test protocol\1iep_ligandH.pdb
REMARK  8 active torsions:
REMARK  status: ('A' for Active; 'I' for Inactive)
REMARK    1  A    between atoms: _5  and  _11
REMARK    2  A    between atoms: _19  and  _21
REMARK    3  A    between atoms: _22  and  _66
REMARK    4  A    between atoms: _27  and  _30
REMARK    5  A    between atoms: _32  and  _33
REMARK    6  A    between atoms: _38  and  _43
REMARK    7  A    between atoms: _43  and  _46
REMARK    8  A    between atoms: _53  and  _55
REMARK                            x       y       z     vdW  Elec       q    Type
REMARK                         _______ _______ _______ _____ _____    ______ ____
ROOT
ATOM     10  C   UNL     1      16.284  24.734  32.874  0.00  0.00    +0.038 A 
ATOM     11  C   UNL     1      17.524  24.263  32.373  0.00  0.00    +0.047 A 
ATOM     12  C   UNL     1      18.096  23.009  32.839  0.00  0.00    +0.035 A 
ATOM     32  C   UNL     1      17.376  22.260  33.815  0.00  0.00    +0.024 A 
ATOM     33  C   UNL     1      16.115  22.724  34.335  0.00  0.00    +0.007 A 
ATOM     34  C   UNL     1      15.547  23.961  33.881  0.00  0.00    -0.029 A 
ATOM     35  C   UNL     1      14.194  24.414  34.479  0.00  0.00    +0.045 C 
ENDROOT
BRANCH  10   9
ATOM      4  C   UNL     1      13.860  27.321  29.637  0.00  0.00    +0.077 A 
ATOM      5  C   UNL     1      13.597  26.167  28.825  0.00  0.00    +0.048 A 
ATOM      6  C   UNL     1      14.109  24.929  29.273  0.00  0.00    +0.116 A 
ATOM      7  N   UNL     1      14.828  24.860  30.446  0.00  0.00    -0.223 NA
ATOM      8  C   UNL     1      15.066  25.992  31.204  0.00  0.00    +0.220 A 
ATOM      9  N   UNL     1      15.781  25.944  32.391  0.00  0.00    -0.283 N 
ATOM     36  H   UNL     1      15.941  26.803  32.917  0.00  0.00    +0.155 HD
ATOM     37  N   UNL     1      14.589  27.187  30.798  0.00  0.00    -0.214 NA
BRANCH   4   3
ATOM      1  C   UNL     1      13.035  31.139  29.839  0.00  0.00    +0.020 A 
ATOM      2  C   UNL     1      13.511  29.827  30.213  0.00  0.00    +0.013 A 
ATOM      3  C   UNL     1      13.384  28.699  29.300  0.00  0.00    +0.019 A 
ATOM     38  C   UNL     1      12.765  28.934  28.003  0.00  0.00    +0.120 A 
ATOM     39  N   UNL     1      12.314  30.207  27.671  0.00  0.00    -0.263 NA
ATOM     40  C   UNL     1      12.430  31.300  28.542  0.00  0.00    +0.111 A 
ENDBRANCH   4   3
ENDBRANCH  10   9
BRANCH  12  13
ATOM     13  N   UNL     1      19.356  22.484  32.373  0.00  0.00    -0.281 N 
ATOM     14  C   UNL     1      19.607  21.789  31.202  0.00  0.00    +0.248 C 
ATOM     30  O   UNL     1      18.742  21.325  30.474  0.00  0.00    -0.270 OA
ATOM     31  H   UNL     1      20.159  22.644  32.981  0.00  0.00    +0.155 HD
BRANCH  14  15
ATOM     15  C   UNL     1      21.025  21.564  30.786  0.00  0.00    +0.037 A 
ATOM     16  C   UNL     1      21.950  20.797  31.624  0.00  0.00    +0.013 A 
ATOM     17  C   UNL     1      23.318  20.610  31.207  0.00  0.00    +0.005 A 
ATOM     18  C   UNL     1      23.767  21.190  29.944  0.00  0.00    -0.033 A 
ATOM     28  C   UNL     1      22.827  21.942  29.130  0.00  0.00    +0.005 A 
ATOM     29  C   UNL     1      21.486  22.129  29.535  0.00  0.00    +0.013 A 
BRANCH  18  19
ATOM     19  C   UNL     1      25.214  21.059  29.431  0.00  0.00    +0.119 C 
BRANCH  19  20
ATOM     20  N   UNL     1      26.035  19.939  29.981  0.00  0.00    -0.302 NA
ATOM     21  C   UNL     1      27.513  20.072  29.603  0.00  0.00    +0.066 C 
ATOM     22  C   UNL     1      28.361  18.904  30.205  0.00  0.00    -0.064 C 
ATOM     23  N   UNL     1      27.797  17.566  29.724  0.00  0.00    +0.379 N 
ATOM     24  C   UNL     1      28.627  16.469  30.241  0.00  0.00    -0.096 C 
ATOM     25  H   UNL     1      27.868  17.550  28.611  0.00  0.00    -0.082 HD
ATOM     26  C   UNL     1      26.326  17.428  30.093  0.00  0.00    -0.064 C 
ATOM     27  C   UNL     1      25.497  18.609  29.514  0.00  0.00    +0.066 C 
ENDBRANCH  19  20
ENDBRANCH  18  19
ENDBRANCH  14  15
ENDBRANCH  12  13
TORSDOF 6
ENDMDL
