MODEL 1
REMARK VINA RESULT:      -9.9      0.000      0.000
REMARK  Name = C:\Users\Docking\Desktop\test protocol\1iep_ligandH.pdb
REMARK  8 active torsions:
REMARK  status: ('A' for Active; 'I' for Inactive)
REMARK    1  A    between atoms: _5  and  _11
REMARK    2  A    between atoms: _19  and  _21
REMARK    3  A    between atoms: _22  and  _66
REMARK    4  A    between atoms: _27  and  _30
REMARK    5  A    between atoms: _32  and  _33
REMARK    6  A    between atoms: _38  and  _43
REMARK    7  A    between atoms: _43  and  _46
REMARK    8  A    between atoms: _53  and  _55
REMARK                            x       y       z     vdW  Elec       q    Type
REMARK                         _______ _______ _______ _____ _____    ______ ____
ROOT
ATOM     10  C   UNL     1      20.362  32.244 -10.715  0.00  0.00    +0.038 A 
ATOM     11  C   UNL     1      19.094  31.757 -11.123  0.00  0.00    +0.047 A 
ATOM     12  C   UNL     1      17.936  31.844 -10.246  0.00  0.00    +0.035 A 
ATOM     32  C   UNL     1      18.106  32.435  -8.960  0.00  0.00    +0.024 A 
ATOM     33  C   UNL     1      19.388  32.934  -8.528  0.00  0.00    +0.007 A 
ATOM     34  C   UNL     1      20.534  32.849  -9.388  0.00  0.00    -0.029 A 
ATOM     35  C   UNL     1      21.885  33.394  -8.871  0.00  0.00    +0.045 C 
ENDROOT
BRANCH  10   9
ATOM      4  C   UNL     1      24.336  30.065 -12.295  0.00  0.00    +0.077 A 
ATOM      5  C   UNL     1      24.276  29.075 -11.258  0.00  0.00    +0.048 A 
ATOM      6  C   UNL     1      23.211  29.166 -10.334  0.00  0.00    +0.116 A 
ATOM      7  N   UNL     1      22.280  30.176 -10.448  0.00  0.00    -0.223 NA
ATOM      8  C   UNL     1      22.368  31.116 -11.459  0.00  0.00    +0.220 A 
ATOM      9  N   UNL     1      21.439  32.135 -11.597  0.00  0.00    -0.283 N 
ATOM     36  H   UNL     1      21.543  32.813 -12.352  0.00  0.00    +0.155 HD
ATOM     37  N   UNL     1      23.377  31.051 -12.353  0.00  0.00    -0.214 NA
BRANCH   4   3
ATOM      1  C   UNL     1      27.796  30.341 -14.099  0.00  0.00    +0.020 A 
ATOM      2  C   UNL     1      26.808  30.316 -13.044  0.00  0.00    +0.013 A 
ATOM      3  C   UNL     1      25.399  30.101 -13.348  0.00  0.00    +0.019 A 
ATOM     38  C   UNL     1      25.019  29.911 -14.740  0.00  0.00    +0.120 A 
ATOM     39  N   UNL     1      25.992  29.942 -15.734  0.00  0.00    -0.263 NA
ATOM     40  C   UNL     1      27.351  30.150 -15.454  0.00  0.00    +0.111 A 
ENDBRANCH   4   3
ENDBRANCH  10   9
BRANCH  12  13
ATOM     13  N   UNL     1      16.626  31.359 -10.603  0.00  0.00    -0.281 N 
ATOM     14  C   UNL     1      16.083  31.227 -11.870  0.00  0.00    +0.248 C 
ATOM     30  O   UNL     1      16.567  31.710 -12.883  0.00  0.00    -0.270 OA
ATOM     31  H   UNL     1      16.026  31.080  -9.827  0.00  0.00    +0.155 HD
BRANCH  14  15
ATOM     15  C   UNL     1      14.810  30.461 -12.034  0.00  0.00    +0.037 A 
ATOM     16  C   UNL     1      13.546  31.142 -12.326  0.00  0.00    +0.013 A 
ATOM     17  C   UNL     1      12.329  30.381 -12.463  0.00  0.00    +0.005 A 
ATOM     18  C   UNL     1      12.372  28.929 -12.309  0.00  0.00    -0.033 A 
ATOM     28  C   UNL     1      13.641  28.279 -12.024  0.00  0.00    +0.005 A 
ATOM     29  C   UNL     1      14.835  29.022 -11.889  0.00  0.00    +0.013 A 
BRANCH  18  19
ATOM     19  C   UNL     1      11.120  28.039 -12.417  0.00  0.00    +0.119 C 
BRANCH  19  20
ATOM     20  N   UNL     1      10.477  27.605 -11.140  0.00  0.00    -0.302 NA
ATOM     21  C   UNL     1      10.705  28.613 -10.010  0.00  0.00    +0.066 C 
ATOM     22  C   UNL     1      10.007  28.154  -8.689  0.00  0.00    -0.064 C 
ATOM     23  N   UNL     1      10.528  26.771  -8.294  0.00  0.00    +0.379 N 
ATOM     24  C   UNL     1       9.917  26.362  -7.021  0.00  0.00    -0.096 C 
ATOM     25  H   UNL     1      11.627  26.857  -8.129  0.00  0.00    -0.082 HD
ATOM     26  C   UNL     1      10.307  25.763  -9.413  0.00  0.00    -0.064 C 
ATOM     27  C   UNL     1      10.980  26.243 -10.730  0.00  0.00    +0.066 C 
ENDBRANCH  19  20
ENDBRANCH  18  19
ENDBRANCH  14  15
ENDBRANCH  12  13
TORSDOF 6
ENDMDL
MODEL 2
REMARK VINA RESULT:      -9.7      6.368     15.165
REMARK  Name = C:\Users\Docking\Desktop\test protocol\1iep_ligandH.pdb
REMARK  8 active torsions:
REMARK  status: ('A' for Active; 'I' for Inactive)
REMARK    1  A    between atoms: _5  and  _11
REMARK    2  A    between atoms: _19  and  _21
REMARK    3  A    between atoms: _22  and  _66
REMARK    4  A    between atoms: _27  and  _30
REMARK    5  A    between atoms: _32  and  _33
REMARK    6  A    between atoms: _38  and  _43
REMARK    7  A    between atoms: _43  and  _46
REMARK    8  A    between atoms: _53  and  _55
REMARK                            x       y       z     vdW  Elec       q    Type
REMARK                         _______ _______ _______ _____ _____    ______ ____
ROOT
ATOM     10  C   UNL     1      24.602  30.080 -14.382  0.00  0.00    +0.038 A 
ATOM     11  C   UNL     1      25.258  29.763 -15.599  0.00  0.00    +0.047 A 
ATOM     12  C   UNL     1      26.691  29.514 -15.638  0.00  0.00    +0.035 A 
ATOM     32  C   UNL     1      27.424  29.593 -14.418  0.00  0.00    +0.024 A 
ATOM     33  C   UNL     1      26.773  29.914 -13.172  0.00  0.00    +0.007 A 
ATOM     34  C   UNL     1      25.360  30.164 -13.128  0.00  0.00    -0.029 A 
ATOM     35  C   UNL     1      24.716  30.510 -11.766  0.00  0.00    +0.045 C 
ENDROOT
BRANCH  10   9
ATOM      4  C   UNL     1      20.054  28.573 -14.086  0.00  0.00    +0.077 A 
ATOM      5  C   UNL     1      20.456  27.209 -13.901  0.00  0.00    +0.048 A 
ATOM      6  C   UNL     1      21.842  26.936 -13.896  0.00  0.00    +0.116 A 
ATOM      7  N   UNL     1      22.750  27.959 -14.063  0.00  0.00    -0.223 NA
ATOM      8  C   UNL     1      22.329  29.264 -14.240  0.00  0.00    +0.220 A 
ATOM      9  N   UNL     1      23.224  30.310 -14.402  0.00  0.00    -0.283 N 
ATOM     36  H   UNL     1      22.873  31.258 -14.538  0.00  0.00    +0.155 HD
ATOM     37  N   UNL     1      21.010  29.551 -14.251  0.00  0.00    -0.214 NA
BRANCH   4   3
ATOM      1  C   UNL     1      16.825  30.768 -13.846  0.00  0.00    +0.020 A 
ATOM      2  C   UNL     1      18.218  30.387 -13.806  0.00  0.00    +0.013 A 
ATOM      3  C   UNL     1      18.626  29.022 -14.111  0.00  0.00    +0.019 A 
ATOM     38  C   UNL     1      17.591  28.058 -14.456  0.00  0.00    +0.120 A 
ATOM     39  N   UNL     1      16.257  28.454 -14.485  0.00  0.00    -0.263 NA
ATOM     40  C   UNL     1      15.853  29.765 -14.191  0.00  0.00    +0.111 A 
ENDBRANCH   4   3
ENDBRANCH  10   9
BRANCH  12  13
ATOM     13  N   UNL     1      27.413  29.196 -16.845  0.00  0.00    -0.281 N 
ATOM     14  C   UNL     1      28.415  28.255 -17.015  0.00  0.00    +0.248 C 
ATOM     30  O   UNL     1      28.993  27.687 -16.099  0.00  0.00    -0.270 OA
ATOM     31  H   UNL     1      27.155  29.731 -17.674  0.00  0.00    +0.155 HD
BRANCH  14  15
ATOM     15  C   UNL     1      28.847  27.903 -18.401  0.00  0.00    +0.037 A 
ATOM     16  C   UNL     1      27.877  27.789 -19.494  0.00  0.00    +0.013 A 
ATOM     17  C   UNL     1      28.319  27.432 -20.819  0.00  0.00    +0.005 A 
ATOM     18  C   UNL     1      29.739  27.186 -21.058  0.00  0.00    -0.033 A 
ATOM     28  C   UNL     1      30.680  27.310 -19.957  0.00  0.00    +0.005 A 
ATOM     29  C   UNL     1      30.251  27.660 -18.657  0.00  0.00    +0.013 A 
BRANCH  18  19
ATOM     19  C   UNL     1      30.297  26.779 -22.435  0.00  0.00    +0.119 C 
BRANCH  19  20
ATOM     20  N   UNL     1      30.434  25.318 -22.712  0.00  0.00    -0.302 NA
ATOM     21  C   UNL     1      31.890  24.914 -22.957  0.00  0.00    +0.066 C 
ATOM     22  C   UNL     1      32.018  23.378 -23.223  0.00  0.00    -0.064 C 
ATOM     23  N   UNL     1      31.142  22.996 -24.418  0.00  0.00    +0.379 N 
ATOM     24  C   UNL     1      31.304  21.564 -24.707  0.00  0.00    -0.096 C 
ATOM     25  H   UNL     1      31.511  23.564 -25.303  0.00  0.00    -0.082 HD
ATOM     26  C   UNL     1      29.692  23.397 -24.184  0.00  0.00    -0.064 C 
ATOM     27  C   UNL     1      29.580  24.919 -23.891  0.00  0.00    +0.066 C 
ENDBRANCH  19  20
ENDBRANCH  18  19
ENDBRANCH  14  15
ENDBRANCH  12  13
TORSDOF 6
ENDMDL
MODEL 3
REMARK VINA RESULT:      -9.6      6.715     15.360
REMARK  Name = C:\Users\Docking\Desktop\test protocol\1iep_ligandH.pdb
REMARK  8 active torsions:
REMARK  status: ('A' for Active; 'I' for Inactive)
REMARK    1  A    between atoms: _5  and  _11
REMARK    2  A    between atoms: _19  and  _21
REMARK    3  A    between atoms: _22  and  _66
REMARK    4  A    between atoms: _27  and  _30
REMARK    5  A    between atoms: _32  and  _33
REMARK    6  A    between atoms: _38  and  _43
REMARK    7  A    between atoms: _43  and  _46
REMARK    8  A    between atoms: _53  and  _55
REMARK                            x       y       z     vdW  Elec       q    Type
REMARK                         _______ _______ _______ _____ _____    ______ ____
ROOT
ATOM     10  C   UNL     1      24.914  29.084 -14.353  0.00  0.00    +0.038 A 
ATOM     11  C   UNL     1      25.525  28.751 -15.590  0.00  0.00    +0.047 A 
ATOM     12  C   UNL     1      26.855  29.234 -15.925  0.00  0.00    +0.035 A 
ATOM     32  C   UNL     1      27.537  30.051 -14.977  0.00  0.00    +0.024 A 
ATOM     33  C   UNL     1      26.930  30.400 -13.716  0.00  0.00    +0.007 A 
ATOM     34  C   UNL     1      25.617  29.929 -13.381  0.00  0.00    -0.029 A 
ATOM     35  C   UNL     1      25.014  30.339 -12.017  0.00  0.00    +0.045 C 
ENDROOT
BRANCH  10   9
ATOM      4  C   UNL     1      20.190  28.897 -15.180  0.00  0.00    +0.077 A 
ATOM      5  C   UNL     1      20.273  29.880 -16.222  0.00  0.00    +0.048 A 
ATOM      6  C   UNL     1      21.549  30.414 -16.509  0.00  0.00    +0.116 A 
ATOM      7  N   UNL     1      22.653  29.989 -15.801  0.00  0.00    -0.223 NA
ATOM      8  C   UNL     1      22.537  29.041 -14.802  0.00  0.00    +0.220 A 
ATOM      9  N   UNL     1      23.635  28.593 -14.083  0.00  0.00    -0.283 N 
ATOM     36  H   UNL     1      23.507  27.897 -13.348  0.00  0.00    +0.155 HD
ATOM     37  N   UNL     1      21.330  28.516 -14.508  0.00  0.00    -0.214 NA
BRANCH   4   3
ATOM      1  C   UNL     1      17.558  26.224 -14.070  0.00  0.00    +0.020 A 
ATOM      2  C   UNL     1      18.816  26.812 -14.470  0.00  0.00    +0.013 A 
ATOM      3  C   UNL     1      18.913  28.237 -14.763  0.00  0.00    +0.019 A 
ATOM     38  C   UNL     1      17.709  29.045 -14.640  0.00  0.00    +0.120 A 
ATOM     39  N   UNL     1      16.511  28.451 -14.255  0.00  0.00    -0.263 NA
ATOM     40  C   UNL     1      16.405  27.081 -13.972  0.00  0.00    +0.111 A 
ENDBRANCH   4   3
ENDBRANCH  10   9
BRANCH  12  13
ATOM     13  N   UNL     1      27.523  28.936 -17.168  0.00  0.00    -0.281 N 
ATOM     14  C   UNL     1      28.585  28.072 -17.379  0.00  0.00    +0.248 C 
ATOM     30  O   UNL     1      29.265  27.583 -16.489  0.00  0.00    -0.270 OA
ATOM     31  H   UNL     1      27.169  29.421 -17.993  0.00  0.00    +0.155 HD
BRANCH  14  15
ATOM     15  C   UNL     1      28.955  27.710 -18.781  0.00  0.00    +0.037 A 
ATOM     16  C   UNL     1      28.007  27.880 -19.885  0.00  0.00    +0.013 A 
ATOM     17  C   UNL     1      28.383  27.508 -21.225  0.00  0.00    +0.005 A 
ATOM     18  C   UNL     1      29.716  26.962 -21.469  0.00  0.00    -0.033 A 
ATOM     28  C   UNL     1      30.639  26.809 -20.357  0.00  0.00    +0.005 A 
ATOM     29  C   UNL     1      30.273  27.172 -19.041  0.00  0.00    +0.013 A 
BRANCH  18  19
ATOM     19  C   UNL     1      30.196  26.518 -22.864  0.00  0.00    +0.119 C 
BRANCH  19  20
ATOM     20  N   UNL     1      30.308  25.050 -23.113  0.00  0.00    -0.302 NA
ATOM     21  C   UNL     1      31.733  24.640 -23.496  0.00  0.00    +0.066 C 
ATOM     22  C   UNL     1      31.837  23.098 -23.731  0.00  0.00    -0.064 C 
ATOM     23  N   UNL     1      30.844  22.682 -24.817  0.00  0.00    +0.379 N 
ATOM     24  C   UNL     1      30.980  21.242 -25.082  0.00  0.00    -0.096 C 
ATOM     25  H   UNL     1      31.117  23.225 -25.752  0.00  0.00    -0.082 HD
ATOM     26  C   UNL     1      29.425  23.089 -24.446  0.00  0.00    -0.064 C 
ATOM     27  C   UNL     1      29.338  24.618 -24.186  0.00  0.00    +0.066 C 
ENDBRANCH  19  20
ENDBRANCH  18  19
ENDBRANCH  14  15
ENDBRANCH  12  13
TORSDOF 6
ENDMDL
MODEL 4
REMARK VINA RESULT:      -9.1      2.830      4.146
REMARK  Name = C:\Users\Docking\Desktop\test protocol\1iep_ligandH.pdb
REMARK  8 active torsions:
REMARK  status: ('A' for Active; 'I' for Inactive)
REMARK    1  A    between atoms: _5  and  _11
REMARK    2  A    between atoms: _19  and  _21
REMARK    3  A    between atoms: _22  and  _66
REMARK    4  A    between atoms: _27  and  _30
REMARK    5  A    between atoms: _32  and  _33
REMARK    6  A    between atoms: _38  and  _43
REMARK    7  A    between atoms: _43  and  _46
REMARK    8  A    between atoms: _53  and  _55
REMARK                            x       y       z     vdW  Elec       q    Type
REMARK                         _______ _______ _______ _____ _____    ______ ____
ROOT
ATOM     10  C   UNL     1      20.066  32.087 -10.713  0.00  0.00    +0.038 A 
ATOM     11  C   UNL     1      18.869  31.779 -11.408  0.00  0.00    +0.047 A 
ATOM     12  C   UNL     1      17.584  31.767 -10.726  0.00  0.00    +0.035 A 
ATOM     32  C   UNL     1      17.555  32.076  -9.335  0.00  0.00    +0.024 A 
ATOM     33  C   UNL     1      18.763  32.391  -8.612  0.00  0.00    +0.007 A 
ATOM     34  C   UNL     1      20.033  32.402  -9.279  0.00  0.00    -0.029 A 
ATOM     35  C   UNL     1      21.296  32.740  -8.453  0.00  0.00    +0.045 C 
ENDROOT
BRANCH  10   9
ATOM      4  C   UNL     1      23.750  29.816 -12.788  0.00  0.00    +0.077 A 
ATOM      5  C   UNL     1      23.243  28.527 -12.414  0.00  0.00    +0.048 A 
ATOM      6  C   UNL     1      22.035  28.493 -11.682  0.00  0.00    +0.116 A 
ATOM      7  N   UNL     1      21.391  29.666 -11.354  0.00  0.00    -0.223 NA
ATOM      8  C   UNL     1      21.908  30.892 -11.729  0.00  0.00    +0.220 A 
ATOM      9  N   UNL     1      21.272  32.084 -11.417  0.00  0.00    -0.283 N 
ATOM     36  H   UNL     1      21.690  32.969 -11.706  0.00  0.00    +0.155 HD
ATOM     37  N   UNL     1      23.061  30.952 -12.428  0.00  0.00    -0.214 NA
BRANCH   4   3
ATOM      1  C   UNL     1      26.288  30.311 -15.724  0.00  0.00    +0.020 A 
ATOM      2  C   UNL     1      25.041  30.116 -15.021  0.00  0.00    +0.013 A 
ATOM      3  C   UNL     1      25.013  30.017 -13.567  0.00  0.00    +0.019 A 
ATOM     38  C   UNL     1      26.275  30.120 -12.849  0.00  0.00    +0.120 A 
ATOM     39  N   UNL     1      27.460  30.306 -13.553  0.00  0.00    -0.263 NA
ATOM     40  C   UNL     1      27.499  30.401 -14.952  0.00  0.00    +0.111 A 
ENDBRANCH   4   3
ENDBRANCH  10   9
BRANCH  12  13
ATOM     13  N   UNL     1      16.337  31.453 -11.378  0.00  0.00    -0.281 N 
ATOM     14  C   UNL     1      16.080  31.387 -12.738  0.00  0.00    +0.248 C 
ATOM     30  O   UNL     1      16.836  31.798 -13.605  0.00  0.00    -0.270 OA
ATOM     31  H   UNL     1      15.548  31.256 -10.762  0.00  0.00    +0.155 HD
BRANCH  14  15
ATOM     15  C   UNL     1      14.790  30.790 -13.200  0.00  0.00    +0.037 A 
ATOM     16  C   UNL     1      14.357  29.468 -12.741  0.00  0.00    +0.013 A 
ATOM     17  C   UNL     1      13.116  28.908 -13.217  0.00  0.00    +0.005 A 
ATOM     18  C   UNL     1      12.299  29.672 -14.156  0.00  0.00    -0.033 A 
ATOM     28  C   UNL     1      12.750  30.984 -14.591  0.00  0.00    +0.005 A 
ATOM     29  C   UNL     1      13.966  31.535 -14.128  0.00  0.00    +0.013 A 
BRANCH  18  19
ATOM     19  C   UNL     1      10.972  29.144 -14.731  0.00  0.00    +0.119 C 
BRANCH  19  20
ATOM     20  N   UNL     1      10.938  28.825 -16.190  0.00  0.00    -0.302 NA
ATOM     21  C   UNL     1       9.518  28.896 -16.760  0.00  0.00    +0.066 C 
ATOM     22  C   UNL     1       9.504  28.581 -18.292  0.00  0.00    -0.064 C 
ATOM     23  N   UNL     1      10.116  27.200 -18.531  0.00  0.00    +0.379 N 
ATOM     24  C   UNL     1      10.051  26.877 -19.964  0.00  0.00    -0.096 C 
ATOM     25  H   UNL     1       9.490  26.455 -17.988  0.00  0.00    -0.082 HD
ATOM     26  C   UNL     1      11.526  27.120 -17.965  0.00  0.00    -0.064 C 
ATOM     27  C   UNL     1      11.533  27.463 -16.449  0.00  0.00    +0.066 C 
ENDBRANCH  19  20
ENDBRANCH  18  19
ENDBRANCH  14  15
ENDBRANCH  12  13
TORSDOF 6
ENDMDL
MODEL 5
REMARK VINA RESULT:      -8.9      3.520     13.242
REMARK  Name = C:\Users\Docking\Desktop\test protocol\1iep_ligandH.pdb
REMARK  8 active torsions:
REMARK  status: ('A' for Active; 'I' for Inactive)
REMARK    1  A    between atoms: _5  and  _11
REMARK    2  A    between atoms: _19  and  _21
REMARK    3  A    between atoms: _22  and  _66
REMARK    4  A    between atoms: _27  and  _30
REMARK    5  A    between atoms: _32  and  _33
REMARK    6  A    between atoms: _38  and  _43
REMARK    7  A    between atoms: _43  and  _46
REMARK    8  A    between atoms: _53  and  _55
REMARK                            x       y       z     vdW  Elec       q    Type
REMARK                         _______ _______ _______ _____ _____    ______ ____
ROOT
ATOM     10  C   UNL     1       9.910  28.867 -10.096  0.00  0.00    +0.038 A 
ATOM     11  C   UNL     1      11.280  28.805 -10.457  0.00  0.00    +0.047 A 
ATOM     12  C   UNL     1      11.688  28.684 -11.847  0.00  0.00    +0.035 A 
ATOM     32  C   UNL     1      10.673  28.631 -12.847  0.00  0.00    +0.024 A 
ATOM     33  C   UNL     1       9.275  28.691 -12.499  0.00  0.00    +0.007 A 
ATOM     34  C   UNL     1       8.867  28.809 -11.128  0.00  0.00    -0.029 A 
ATOM     35  C   UNL     1       7.354  28.863 -10.812  0.00  0.00    +0.045 C 
ENDROOT
BRANCH  10   9
ATOM      4  C   UNL     1       9.372  27.030  -5.695  0.00  0.00    +0.077 A 
ATOM      5  C   UNL     1       9.765  25.721  -6.129  0.00  0.00    +0.048 A 
ATOM      6  C   UNL     1      10.091  25.561  -7.495  0.00  0.00    +0.116 A 
ATOM      7  N   UNL     1      10.026  26.637  -8.353  0.00  0.00    -0.223 NA
ATOM      8  C   UNL     1       9.640  27.886  -7.902  0.00  0.00    +0.220 A 
ATOM      9  N   UNL     1       9.575  28.984  -8.746  0.00  0.00    -0.283 N 
ATOM     36  H   UNL     1       9.279  29.887  -8.376  0.00  0.00    +0.155 HD
ATOM     37  N   UNL     1       9.323  28.065  -6.603  0.00  0.00    -0.214 NA
BRANCH   4   3
ATOM      1  C   UNL     1       8.110  26.744  -2.004  0.00  0.00    +0.020 A 
ATOM      2  C   UNL     1       8.452  26.375  -3.358  0.00  0.00    +0.013 A 
ATOM      3  C   UNL     1       9.000  27.359  -4.283  0.00  0.00    +0.019 A 
ATOM     38  C   UNL     1       9.192  28.719  -3.802  0.00  0.00    +0.120 A 
ATOM     39  N   UNL     1       8.852  29.046  -2.492  0.00  0.00    -0.263 NA
ATOM     40  C   UNL     1       8.322  28.108  -1.594  0.00  0.00    +0.111 A 
ENDBRANCH   4   3
ENDBRANCH  10   9
BRANCH  12  13
ATOM     13  N   UNL     1      13.064  28.608 -12.273  0.00  0.00    -0.281 N 
ATOM     14  C   UNL     1      13.771  27.486 -12.672  0.00  0.00    +0.248 C 
ATOM     30  O   UNL     1      13.387  26.336 -12.519  0.00  0.00    -0.270 OA
ATOM     31  H   UNL     1      13.579  29.488 -12.280  0.00  0.00    +0.155 HD
BRANCH  14  15
ATOM     15  C   UNL     1      15.105  27.666 -13.321  0.00  0.00    +0.037 A 
ATOM     16  C   UNL     1      15.536  28.974 -13.821  0.00  0.00    +0.013 A 
ATOM     17  C   UNL     1      16.821  29.118 -14.459  0.00  0.00    +0.005 A 
ATOM     18  C   UNL     1      17.685  27.948 -14.599  0.00  0.00    -0.033 A 
ATOM     28  C   UNL     1      17.235  26.663 -14.090  0.00  0.00    +0.005 A 
ATOM     29  C   UNL     1      15.976  26.519 -13.465  0.00  0.00    +0.013 A 
BRANCH  18  19
ATOM     19  C   UNL     1      19.063  28.004 -15.285  0.00  0.00    +0.119 C 
BRANCH  19  20
ATOM     20  N   UNL     1      20.240  28.341 -14.430  0.00  0.00    -0.302 NA
ATOM     21  C   UNL     1      20.900  29.656 -14.853  0.00  0.00    +0.066 C 
ATOM     22  C   UNL     1      22.115  30.005 -13.933  0.00  0.00    -0.064 C 
ATOM     23  N   UNL     1      23.124  28.856 -13.969  0.00  0.00    +0.379 N 
ATOM     24  C   UNL     1      24.295  29.206 -13.151  0.00  0.00    -0.096 C 
ATOM     25  H   UNL     1      23.470  28.743 -15.023  0.00  0.00    -0.082 HD
ATOM     26  C   UNL     1      22.476  27.544 -13.552  0.00  0.00    -0.064 C 
ATOM     27  C   UNL     1      21.251  27.222 -14.454  0.00  0.00    +0.066 C 
ENDBRANCH  19  20
ENDBRANCH  18  19
ENDBRANCH  14  15
ENDBRANCH  12  13
TORSDOF 6
ENDMDL
