MODEL 1
REMARK VINA RESULT:     -10.9      0.000      0.000
REMARK  Name = C:\Users\Docking\Desktop\test protocol\1iep_ligandH.pdb
REMARK  8 active torsions:
REMARK  status: ('A' for Active; 'I' for Inactive)
REMARK    1  A    between atoms: _5  and  _11
REMARK    2  A    between atoms: _19  and  _21
REMARK    3  A    between atoms: _22  and  _66
REMARK    4  A    between atoms: _27  and  _30
REMARK    5  A    between atoms: _32  and  _33
REMARK    6  A    between atoms: _38  and  _43
REMARK    7  A    between atoms: _43  and  _46
REMARK    8  A    between atoms: _53  and  _55
REMARK                            x       y       z     vdW  Elec       q    Type
REMARK                         _______ _______ _______ _____ _____    ______ ____
ROOT
ATOM     10  C   UNL     1     -13.344 -27.926 -13.227  0.00  0.00    +0.038 A 
ATOM     11  C   UNL     1     -14.753 -27.810 -13.110  0.00  0.00    +0.047 A 
ATOM     12  C   UNL     1     -15.557 -27.274 -14.197  0.00  0.00    +0.035 A 
ATOM     32  C   UNL     1     -14.893 -26.867 -15.391  0.00  0.00    +0.024 A 
ATOM     33  C   UNL     1     -13.462 -26.977 -15.527  0.00  0.00    +0.007 A 
ATOM     34  C   UNL     1     -12.664 -27.503 -14.457  0.00  0.00    -0.029 A 
ATOM     35  C   UNL     1     -11.132 -27.591 -14.656  0.00  0.00    +0.045 C 
ENDROOT
BRANCH  10   9
ATOM      4  C   UNL     1     -11.084 -27.454  -9.019  0.00  0.00    +0.077 A 
ATOM      5  C   UNL     1     -11.342 -26.043  -8.971  0.00  0.00    +0.048 A 
ATOM      6  C   UNL     1     -12.053 -25.477 -10.053  0.00  0.00    +0.116 A 
ATOM      7  N   UNL     1     -12.471 -26.271 -11.099  0.00  0.00    -0.223 NA
ATOM      8  C   UNL     1     -12.204 -27.628 -11.114  0.00  0.00    +0.220 A 
ATOM      9  N   UNL     1     -12.621 -28.447 -12.152  0.00  0.00    -0.283 N 
ATOM     36  H   UNL     1     -12.398 -29.442 -12.130  0.00  0.00    +0.155 HD
ATOM     37  N   UNL     1     -11.525 -28.193 -10.094  0.00  0.00    -0.214 NA
BRANCH   4   3
ATOM      1  C   UNL     1      -9.703 -28.603  -5.545  0.00  0.00    +0.020 A 
ATOM      2  C   UNL     1     -10.434 -27.850  -6.537  0.00  0.00    +0.013 A 
ATOM      3  C   UNL     1     -10.347 -28.199  -7.950  0.00  0.00    +0.019 A 
ATOM     38  C   UNL     1      -9.504 -29.324  -8.327  0.00  0.00    +0.120 A 
ATOM     39  N   UNL     1      -8.810 -30.029  -7.349  0.00  0.00    -0.263 NA
ATOM     40  C   UNL     1      -8.885 -29.702  -5.987  0.00  0.00    +0.111 A 
ENDBRANCH   4   3
ENDBRANCH  10   9
BRANCH  12  13
ATOM     13  N   UNL     1     -16.990 -27.125 -14.132  0.00  0.00    -0.281 N 
ATOM     14  C   UNL     1     -17.958 -28.058 -14.463  0.00  0.00    +0.248 C 
ATOM     30  O   UNL     1     -17.740 -29.095 -15.072  0.00  0.00    -0.270 OA
ATOM     31  H   UNL     1     -17.331 -26.223 -13.801  0.00  0.00    +0.155 HD
BRANCH  14  15
ATOM     15  C   UNL     1     -19.378 -27.795 -14.075  0.00  0.00    +0.037 A 
ATOM     16  C   UNL     1     -19.867 -26.430 -13.864  0.00  0.00    +0.013 A 
ATOM     17  C   UNL     1     -21.236 -26.204 -13.473  0.00  0.00    +0.005 A 
ATOM     18  C   UNL     1     -22.126 -27.348 -13.293  0.00  0.00    -0.033 A 
ATOM     28  C   UNL     1     -21.617 -28.691 -13.514  0.00  0.00    +0.005 A 
ATOM     29  C   UNL     1     -20.275 -28.916 -13.896  0.00  0.00    +0.013 A 
BRANCH  18  19
ATOM     19  C   UNL     1     -23.597 -27.203 -12.857  0.00  0.00    +0.119 C 
BRANCH  19  20
ATOM     20  N   UNL     1     -24.610 -28.021 -13.587  0.00  0.00    -0.302 NA
ATOM     21  C   UNL     1     -24.933 -27.440 -14.966  0.00  0.00    +0.066 C 
ATOM     22  C   UNL     1     -25.978 -28.321 -15.725  0.00  0.00    -0.064 C 
ATOM     23  N   UNL     1     -27.247 -28.445 -14.879  0.00  0.00    +0.379 N 
ATOM     24  C   UNL     1     -28.253 -29.224 -15.615  0.00  0.00    -0.096 C 
ATOM     25  H   UNL     1     -27.656 -27.418 -14.731  0.00  0.00    -0.082 HD
ATOM     26  C   UNL     1     -26.934 -29.019 -13.505  0.00  0.00    -0.064 C 
ATOM     27  C   UNL     1     -25.873 -28.153 -12.771  0.00  0.00    +0.066 C 
ENDBRANCH  19  20
ENDBRANCH  18  19
ENDBRANCH  14  15
ENDBRANCH  12  13
TORSDOF 6
ENDMDL
MODEL 2
REMARK VINA RESULT:      -9.9      3.678      6.185
REMARK  Name = C:\Users\Docking\Desktop\test protocol\1iep_ligandH.pdb
REMARK  8 active torsions:
REMARK  status: ('A' for Active; 'I' for Inactive)
REMARK    1  A    between atoms: _5  and  _11
REMARK    2  A    between atoms: _19  and  _21
REMARK    3  A    between atoms: _22  and  _66
REMARK    4  A    between atoms: _27  and  _30
REMARK    5  A    between atoms: _32  and  _33
REMARK    6  A    between atoms: _38  and  _43
REMARK    7  A    between atoms: _43  and  _46
REMARK    8  A    between atoms: _53  and  _55
REMARK                            x       y       z     vdW  Elec       q    Type
REMARK                         _______ _______ _______ _____ _____    ______ ____
ROOT
ATOM     10  C   UNL     1     -14.117 -28.075 -14.107  0.00  0.00    +0.038 A 
ATOM     11  C   UNL     1     -15.470 -28.458 -14.295  0.00  0.00    +0.047 A 
ATOM     12  C   UNL     1     -16.552 -27.748 -13.630  0.00  0.00    +0.035 A 
ATOM     32  C   UNL     1     -16.219 -26.651 -12.783  0.00  0.00    +0.024 A 
ATOM     33  C   UNL     1     -14.850 -26.249 -12.580  0.00  0.00    +0.007 A 
ATOM     34  C   UNL     1     -13.778 -26.947 -13.231  0.00  0.00    -0.029 A 
ATOM     35  C   UNL     1     -12.328 -26.477 -12.973  0.00  0.00    +0.045 C 
ENDROOT
BRANCH  10   9
ATOM      4  C   UNL     1     -11.341 -28.918 -17.931  0.00  0.00    +0.077 A 
ATOM      5  C   UNL     1     -11.950 -27.857 -18.681  0.00  0.00    +0.048 A 
ATOM      6  C   UNL     1     -12.979 -27.123 -18.049  0.00  0.00    +0.116 A 
ATOM      7  N   UNL     1     -13.362 -27.436 -16.762  0.00  0.00    -0.223 NA
ATOM      8  C   UNL     1     -12.755 -28.466 -16.068  0.00  0.00    +0.220 A 
ATOM      9  N   UNL     1     -13.119 -28.792 -14.771  0.00  0.00    -0.283 N 
ATOM     36  H   UNL     1     -12.652 -29.564 -14.295  0.00  0.00    +0.155 HD
ATOM     37  N   UNL     1     -11.771 -29.182 -16.650  0.00  0.00    -0.214 NA
BRANCH   4   3
ATOM      1  C   UNL     1      -8.861 -31.894 -18.468  0.00  0.00    +0.020 A 
ATOM      2  C   UNL     1      -9.937 -31.100 -17.920  0.00  0.00    +0.013 A 
ATOM      3  C   UNL     1     -10.239 -29.781 -18.461  0.00  0.00    +0.019 A 
ATOM     38  C   UNL     1      -9.428 -29.291 -19.565  0.00  0.00    +0.120 A 
ATOM     39  N   UNL     1      -8.398 -30.077 -20.071  0.00  0.00    -0.263 NA
ATOM     40  C   UNL     1      -8.096 -31.347 -19.558  0.00  0.00    +0.111 A 
ENDBRANCH   4   3
ENDBRANCH  10   9
BRANCH  12  13
ATOM     13  N   UNL     1     -17.944 -28.096 -13.775  0.00  0.00    -0.281 N 
ATOM     14  C   UNL     1     -19.036 -27.244 -13.800  0.00  0.00    +0.248 C 
ATOM     30  O   UNL     1     -19.000 -26.064 -13.484  0.00  0.00    -0.270 OA
ATOM     31  H   UNL     1     -18.148 -29.090 -13.872  0.00  0.00    +0.155 HD
BRANCH  14  15
ATOM     15  C   UNL     1     -20.364 -27.785 -14.222  0.00  0.00    +0.037 A 
ATOM     16  C   UNL     1     -20.805 -29.121 -13.812  0.00  0.00    +0.013 A 
ATOM     17  C   UNL     1     -22.083 -29.625 -14.247  0.00  0.00    +0.005 A 
ATOM     18  C   UNL     1     -22.931 -28.792 -15.097  0.00  0.00    -0.033 A 
ATOM     28  C   UNL     1     -22.470 -27.469 -15.484  0.00  0.00    +0.005 A 
ATOM     29  C   UNL     1     -21.218 -26.971 -15.061  0.00  0.00    +0.013 A 
BRANCH  18  19
ATOM     19  C   UNL     1     -24.300 -29.257 -15.626  0.00  0.00    +0.119 C 
BRANCH  19  20
ATOM     20  N   UNL     1     -25.512 -28.793 -14.887  0.00  0.00    -0.302 NA
ATOM     21  C   UNL     1     -25.464 -29.177 -13.405  0.00  0.00    +0.066 C 
ATOM     22  C   UNL     1     -26.728 -28.664 -12.643  0.00  0.00    -0.064 C 
ATOM     23  N   UNL     1     -27.985 -29.228 -13.307  0.00  0.00    +0.379 N 
ATOM     24  C   UNL     1     -29.173 -28.795 -12.558  0.00  0.00    -0.096 C 
ATOM     25  H   UNL     1     -27.931 -30.340 -13.243  0.00  0.00    -0.082 HD
ATOM     26  C   UNL     1     -28.040 -28.854 -14.782  0.00  0.00    -0.064 C 
ATOM     27  C   UNL     1     -26.765 -29.342 -15.524  0.00  0.00    +0.066 C 
ENDBRANCH  19  20
ENDBRANCH  18  19
ENDBRANCH  14  15
ENDBRANCH  12  13
TORSDOF 6
ENDMDL
MODEL 3
REMARK VINA RESULT:      -9.6      3.839      7.314
REMARK  Name = C:\Users\Docking\Desktop\test protocol\1iep_ligandH.pdb
REMARK  8 active torsions:
REMARK  status: ('A' for Active; 'I' for Inactive)
REMARK    1  A    between atoms: _5  and  _11
REMARK    2  A    between atoms: _19  and  _21
REMARK    3  A    between atoms: _22  and  _66
REMARK    4  A    between atoms: _27  and  _30
REMARK    5  A    between atoms: _32  and  _33
REMARK    6  A    between atoms: _38  and  _43
REMARK    7  A    between atoms: _43  and  _46
REMARK    8  A    between atoms: _53  and  _55
REMARK                            x       y       z     vdW  Elec       q    Type
REMARK                         _______ _______ _______ _____ _____    ______ ____
ROOT
ATOM     10  C   UNL     1     -13.634 -26.622 -15.164  0.00  0.00    +0.038 A 
ATOM     11  C   UNL     1     -15.049 -26.580 -15.092  0.00  0.00    +0.047 A 
ATOM     12  C   UNL     1     -15.757 -27.066 -13.918  0.00  0.00    +0.035 A 
ATOM     32  C   UNL     1     -14.991 -27.586 -12.834  0.00  0.00    +0.024 A 
ATOM     33  C   UNL     1     -13.551 -27.636 -12.891  0.00  0.00    +0.007 A 
ATOM     34  C   UNL     1     -12.848 -27.161 -14.048  0.00  0.00    -0.029 A 
ATOM     35  C   UNL     1     -11.304 -27.245 -14.057  0.00  0.00    +0.045 C 
ENDROOT
BRANCH  10   9
ATOM      4  C   UNL     1     -11.853 -27.228 -19.580  0.00  0.00    +0.077 A 
ATOM      5  C   UNL     1     -12.177 -28.626 -19.583  0.00  0.00    +0.048 A 
ATOM      6  C   UNL     1     -12.795 -29.151 -18.425  0.00  0.00    +0.116 A 
ATOM      7  N   UNL     1     -13.064 -28.330 -17.352  0.00  0.00    -0.223 NA
ATOM      8  C   UNL     1     -12.737 -26.987 -17.381  0.00  0.00    +0.220 A 
ATOM      9  N   UNL     1     -13.006 -26.142 -16.316  0.00  0.00    -0.283 N 
ATOM     36  H   UNL     1     -12.742 -25.158 -16.373  0.00  0.00    +0.155 HD
ATOM     37  N   UNL     1     -12.145 -26.462 -18.474  0.00  0.00    -0.214 NA
BRANCH   4   3
ATOM      1  C   UNL     1      -9.274 -25.296 -21.796  0.00  0.00    +0.020 A 
ATOM      2  C   UNL     1      -9.858 -25.964 -20.657  0.00  0.00    +0.013 A 
ATOM      3  C   UNL     1     -11.201 -26.525 -20.730  0.00  0.00    +0.019 A 
ATOM     38  C   UNL     1     -11.932 -26.393 -21.981  0.00  0.00    +0.120 A 
ATOM     39  N   UNL     1     -11.344 -25.742 -23.062  0.00  0.00    -0.263 NA
ATOM     40  C   UNL     1     -10.053 -25.197 -23.002  0.00  0.00    +0.111 A 
ENDBRANCH   4   3
ENDBRANCH  10   9
BRANCH  12  13
ATOM     13  N   UNL     1     -17.194 -27.057 -13.790  0.00  0.00    -0.281 N 
ATOM     14  C   UNL     1     -18.105 -27.927 -14.366  0.00  0.00    +0.248 C 
ATOM     30  O   UNL     1     -17.836 -28.722 -15.254  0.00  0.00    -0.270 OA
ATOM     31  H   UNL     1     -17.586 -26.319 -13.205  0.00  0.00    +0.155 HD
BRANCH  14  15
ATOM     15  C   UNL     1     -19.524 -27.901 -13.896  0.00  0.00    +0.037 A 
ATOM     16  C   UNL     1     -20.265 -29.140 -13.646  0.00  0.00    +0.013 A 
ATOM     17  C   UNL     1     -21.637 -29.087 -13.210  0.00  0.00    +0.005 A 
ATOM     18  C   UNL     1     -22.278 -27.788 -13.019  0.00  0.00    -0.033 A 
ATOM     28  C   UNL     1     -21.518 -26.574 -13.269  0.00  0.00    +0.005 A 
ATOM     29  C   UNL     1     -20.173 -26.623 -13.698  0.00  0.00    +0.013 A 
BRANCH  18  19
ATOM     19  C   UNL     1     -23.746 -27.636 -12.576  0.00  0.00    +0.119 C 
BRANCH  19  20
ATOM     20  N   UNL     1     -24.787 -28.290 -13.423  0.00  0.00    -0.302 NA
ATOM     21  C   UNL     1     -24.914 -27.622 -14.795  0.00  0.00    +0.066 C 
ATOM     22  C   UNL     1     -25.992 -28.333 -15.677  0.00  0.00    -0.064 C 
ATOM     23  N   UNL     1     -27.334 -28.324 -14.943  0.00  0.00    +0.379 N 
ATOM     24  C   UNL     1     -28.363 -28.941 -15.794  0.00  0.00    -0.096 C 
ATOM     25  H   UNL     1     -27.623 -27.260 -14.780  0.00  0.00    -0.082 HD
ATOM     26  C   UNL     1     -27.216 -28.984 -13.577  0.00  0.00    -0.064 C 
ATOM     27  C   UNL     1     -26.121 -28.289 -12.720  0.00  0.00    +0.066 C 
ENDBRANCH  19  20
ENDBRANCH  18  19
ENDBRANCH  14  15
ENDBRANCH  12  13
TORSDOF 6
ENDMDL
MODEL 4
REMARK VINA RESULT:      -9.5      2.613      4.411
REMARK  Name = C:\Users\Docking\Desktop\test protocol\1iep_ligandH.pdb
REMARK  8 active torsions:
REMARK  status: ('A' for Active; 'I' for Inactive)
REMARK    1  A    between atoms: _5  and  _11
REMARK    2  A    between atoms: _19  and  _21
REMARK    3  A    between atoms: _22  and  _66
REMARK    4  A    between atoms: _27  and  _30
REMARK    5  A    between atoms: _32  and  _33
REMARK    6  A    between atoms: _38  and  _43
REMARK    7  A    between atoms: _43  and  _46
REMARK    8  A    between atoms: _53  and  _55
REMARK                            x       y       z     vdW  Elec       q    Type
REMARK                         _______ _______ _______ _____ _____    ______ ____
ROOT
ATOM     10  C   UNL     1     -11.246 -27.373 -10.643  0.00  0.00    +0.038 A 
ATOM     11  C   UNL     1     -12.497 -27.652 -11.249  0.00  0.00    +0.047 A 
ATOM     12  C   UNL     1     -13.586 -26.687 -11.207  0.00  0.00    +0.035 A 
ATOM     32  C   UNL     1     -13.363 -25.447 -10.540  0.00  0.00    +0.024 A 
ATOM     33  C   UNL     1     -12.098 -25.148  -9.917  0.00  0.00    +0.007 A 
ATOM     34  C   UNL     1     -11.022 -26.096  -9.954  0.00  0.00    -0.029 A 
ATOM     35  C   UNL     1      -9.689 -25.725  -9.264  0.00  0.00    +0.045 C 
ENDROOT
BRANCH  10   9
ATOM      4  C   UNL     1      -9.123 -31.401  -9.124  0.00  0.00    +0.077 A 
ATOM      5  C   UNL     1     -10.093 -31.590  -8.084  0.00  0.00    +0.048 A 
ATOM      6  C   UNL     1     -11.118 -30.624  -7.969  0.00  0.00    +0.116 A 
ATOM      7  N   UNL     1     -11.160 -29.553  -8.835  0.00  0.00    -0.223 NA
ATOM      8  C   UNL     1     -10.208 -29.400  -9.827  0.00  0.00    +0.220 A 
ATOM      9  N   UNL     1     -10.236 -28.335 -10.714  0.00  0.00    -0.283 N 
ATOM     36  H   UNL     1      -9.511 -28.253 -11.427  0.00  0.00    +0.155 HD
ATOM     37  N   UNL     1      -9.218 -30.308  -9.956  0.00  0.00    -0.214 NA
BRANCH   4   3
ATOM      1  C   UNL     1      -6.549 -33.762 -10.885  0.00  0.00    +0.020 A 
ATOM      2  C   UNL     1      -7.663 -32.861 -10.697  0.00  0.00    +0.013 A 
ATOM      3  C   UNL     1      -7.982 -32.337  -9.375  0.00  0.00    +0.019 A 
ATOM     38  C   UNL     1      -7.147 -32.746  -8.255  0.00  0.00    +0.120 A 
ATOM     39  N   UNL     1      -6.082 -33.617  -8.467  0.00  0.00    -0.263 NA
ATOM     40  C   UNL     1      -5.767 -34.129  -9.734  0.00  0.00    +0.111 A 
ENDBRANCH   4   3
ENDBRANCH  10   9
BRANCH  12  13
ATOM     13  N   UNL     1     -14.880 -26.918 -11.798  0.00  0.00    -0.281 N 
ATOM     14  C   UNL     1     -15.322 -26.539 -13.055  0.00  0.00    +0.248 C 
ATOM     30  O   UNL     1     -14.737 -25.754 -13.786  0.00  0.00    -0.270 OA
ATOM     31  H   UNL     1     -15.553 -27.421 -11.219  0.00  0.00    +0.155 HD
BRANCH  14  15
ATOM     15  C   UNL     1     -16.607 -27.105 -13.569  0.00  0.00    +0.037 A 
ATOM     16  C   UNL     1     -17.900 -26.585 -13.118  0.00  0.00    +0.013 A 
ATOM     17  C   UNL     1     -19.125 -27.160 -13.617  0.00  0.00    +0.005 A 
ATOM     18  C   UNL     1     -19.061 -28.261 -14.575  0.00  0.00    -0.033 A 
ATOM     28  C   UNL     1     -17.764 -28.753 -15.010  0.00  0.00    +0.005 A 
ATOM     29  C   UNL     1     -16.562 -28.193 -14.522  0.00  0.00    +0.013 A 
BRANCH  18  19
ATOM     19  C   UNL     1     -20.316 -28.948 -15.144  0.00  0.00    +0.119 C 
BRANCH  19  20
ATOM     20  N   UNL     1     -21.635 -28.546 -14.571  0.00  0.00    -0.302 NA
ATOM     21  C   UNL     1     -22.168 -29.578 -13.574  0.00  0.00    +0.066 C 
ATOM     22  C   UNL     1     -23.537 -29.130 -12.968  0.00  0.00    -0.064 C 
ATOM     23  N   UNL     1     -24.542 -28.901 -14.098  0.00  0.00    +0.379 N 
ATOM     24  C   UNL     1     -25.847 -28.536 -13.529  0.00  0.00    -0.096 C 
ATOM     25  H   UNL     1     -24.667 -29.868 -14.640  0.00  0.00    -0.082 HD
ATOM     26  C   UNL     1     -24.019 -27.878 -15.096  0.00  0.00    -0.064 C 
ATOM     27  C   UNL     1     -22.643 -28.318 -15.670  0.00  0.00    +0.066 C 
ENDBRANCH  19  20
ENDBRANCH  18  19
ENDBRANCH  14  15
ENDBRANCH  12  13
TORSDOF 6
ENDMDL
MODEL 5
REMARK VINA RESULT:      -9.5      4.085      7.405
REMARK  Name = C:\Users\Docking\Desktop\test protocol\1iep_ligandH.pdb
REMARK  8 active torsions:
REMARK  status: ('A' for Active; 'I' for Inactive)
REMARK    1  A    between atoms: _5  and  _11
REMARK    2  A    between atoms: _19  and  _21
REMARK    3  A    between atoms: _22  and  _66
REMARK    4  A    between atoms: _27  and  _30
REMARK    5  A    between atoms: _32  and  _33
REMARK    6  A    between atoms: _38  and  _43
REMARK    7  A    between atoms: _43  and  _46
REMARK    8  A    between atoms: _53  and  _55
REMARK                            x       y       z     vdW  Elec       q    Type
REMARK                         _______ _______ _______ _____ _____    ______ ____
ROOT
ATOM     10  C   UNL     1     -14.120 -26.365 -14.698  0.00  0.00    +0.038 A 
ATOM     11  C   UNL     1     -15.535 -26.462 -14.697  0.00  0.00    +0.047 A 
ATOM     12  C   UNL     1     -16.260 -26.876 -13.506  0.00  0.00    +0.035 A 
ATOM     32  C   UNL     1     -15.512 -27.181 -12.332  0.00  0.00    +0.024 A 
ATOM     33  C   UNL     1     -14.074 -27.089 -12.315  0.00  0.00    +0.007 A 
ATOM     34  C   UNL     1     -13.353 -26.683 -13.488  0.00  0.00    -0.029 A 
ATOM     35  C   UNL     1     -11.810 -26.608 -13.415  0.00  0.00    +0.045 C 
ENDROOT
BRANCH  10   9
ATOM      4  C   UNL     1     -11.762 -27.308 -18.771  0.00  0.00    +0.077 A 
ATOM      5  C   UNL     1     -11.795 -28.723 -18.531  0.00  0.00    +0.048 A 
ATOM      6  C   UNL     1     -12.421 -29.165 -17.344  0.00  0.00    +0.116 A 
ATOM      7  N   UNL     1     -12.971 -28.253 -16.470  0.00  0.00    -0.223 NA
ATOM      8  C   UNL     1     -12.922 -26.896 -16.731  0.00  0.00    +0.220 A 
ATOM      9  N   UNL     1     -13.475 -25.962 -15.870  0.00  0.00    -0.283 N 
ATOM     36  H   UNL     1     -13.411 -24.969 -16.094  0.00  0.00    +0.155 HD
ATOM     37  N   UNL     1     -12.328 -26.448 -17.856  0.00  0.00    -0.214 NA
BRANCH   4   3
ATOM      1  C   UNL     1     -11.222 -25.233 -22.042  0.00  0.00    +0.020 A 
ATOM      2  C   UNL     1     -11.871 -25.809 -20.887  0.00  0.00    +0.013 A 
ATOM      3  C   UNL     1     -11.139 -26.686 -19.981  0.00  0.00    +0.019 A 
ATOM     38  C   UNL     1      -9.741 -26.962 -20.275  0.00  0.00    +0.120 A 
ATOM     39  N   UNL     1      -9.143 -26.395 -21.396  0.00  0.00    -0.263 NA
ATOM     40  C   UNL     1      -9.837 -25.550 -22.275  0.00  0.00    +0.111 A 
ENDBRANCH   4   3
ENDBRANCH  10   9
BRANCH  12  13
ATOM     13  N   UNL     1     -17.696 -27.001 -13.448  0.00  0.00    -0.281 N 
ATOM     14  C   UNL     1     -18.502 -27.891 -14.139  0.00  0.00    +0.248 C 
ATOM     30  O   UNL     1     -18.127 -28.577 -15.078  0.00  0.00    -0.270 OA
ATOM     31  H   UNL     1     -18.176 -26.355 -12.822  0.00  0.00    +0.155 HD
BRANCH  14  15
ATOM     15  C   UNL     1     -19.935 -28.028 -13.738  0.00  0.00    +0.037 A 
ATOM     16  C   UNL     1     -20.787 -26.852 -13.547  0.00  0.00    +0.013 A 
ATOM     17  C   UNL     1     -22.161 -27.012 -13.143  0.00  0.00    +0.005 A 
ATOM     18  C   UNL     1     -22.693 -28.355 -12.929  0.00  0.00    -0.033 A 
ATOM     28  C   UNL     1     -21.827 -29.505 -13.131  0.00  0.00    +0.005 A 
ATOM     29  C   UNL     1     -20.479 -29.353 -13.526  0.00  0.00    +0.013 A 
BRANCH  18  19
ATOM     19  C   UNL     1     -24.142 -28.619 -12.477  0.00  0.00    +0.119 C 
BRANCH  19  20
ATOM     20  N   UNL     1     -24.348 -29.055 -11.064  0.00  0.00    -0.302 NA
ATOM     21  C   UNL     1     -23.373 -28.369 -10.103  0.00  0.00    +0.066 C 
ATOM     22  C   UNL     1     -23.618 -28.819  -8.626  0.00  0.00    -0.064 C 
ATOM     23  N   UNL     1     -23.491 -30.341  -8.532  0.00  0.00    +0.379 N 
ATOM     24  C   UNL     1     -23.664 -30.762  -7.134  0.00  0.00    -0.096 C 
ATOM     25  H   UNL     1     -22.455 -30.613  -8.842  0.00  0.00    -0.082 HD
ATOM     26  C   UNL     1     -24.455 -31.031  -9.486  0.00  0.00    -0.064 C 
ATOM     27  C   UNL     1     -24.223 -30.554 -10.947  0.00  0.00    +0.066 C 
ENDBRANCH  19  20
ENDBRANCH  18  19
ENDBRANCH  14  15
ENDBRANCH  12  13
TORSDOF 6
ENDMDL
