MODEL 1
REMARK VINA RESULT:      -9.7      0.000      0.000
REMARK  Name = C:\Users\Docking\Desktop\test protocol\1iep_ligandH.pdb
REMARK  8 active torsions:
REMARK  status: ('A' for Active; 'I' for Inactive)
REMARK    1  A    between atoms: _5  and  _11
REMARK    2  A    between atoms: _19  and  _21
REMARK    3  A    between atoms: _22  and  _66
REMARK    4  A    between atoms: _27  and  _30
REMARK    5  A    between atoms: _32  and  _33
REMARK    6  A    between atoms: _38  and  _43
REMARK    7  A    between atoms: _43  and  _46
REMARK    8  A    between atoms: _53  and  _55
REMARK                            x       y       z     vdW  Elec       q    Type
REMARK                         _______ _______ _______ _____ _____    ______ ____
ROOT
ATOM     10  C   UNL     1     -20.781 -32.005 -11.740  0.00  0.00    +0.038 A 
ATOM     11  C   UNL     1     -19.456 -31.549 -11.959  0.00  0.00    +0.047 A 
ATOM     12  C   UNL     1     -18.326 -32.167 -11.283  0.00  0.00    +0.035 A 
ATOM     32  C   UNL     1     -18.582 -33.249 -10.391  0.00  0.00    +0.024 A 
ATOM     33  C   UNL     1     -19.923 -33.724 -10.156  0.00  0.00    +0.007 A 
ATOM     34  C   UNL     1     -21.041 -33.117 -10.818  0.00  0.00    -0.029 A 
ATOM     35  C   UNL     1     -22.458 -33.664 -10.523  0.00  0.00    +0.045 C 
ENDROOT
BRANCH  10   9
ATOM      4  C   UNL     1     -23.580 -31.410 -15.594  0.00  0.00    +0.077 A 
ATOM      5  C   UNL     1     -22.878 -32.420 -16.332  0.00  0.00    +0.048 A 
ATOM      6  C   UNL     1     -21.799 -33.064 -15.687  0.00  0.00    +0.116 A 
ATOM      7  N   UNL     1     -21.456 -32.716 -14.399  0.00  0.00    -0.223 NA
ATOM      8  C   UNL     1     -22.152 -31.736 -13.715  0.00  0.00    +0.220 A 
ATOM      9  N   UNL     1     -21.829 -31.375 -12.416  0.00  0.00    -0.283 N 
ATOM     36  H   UNL     1     -22.362 -30.643 -11.949  0.00  0.00    +0.155 HD
ATOM     37  N   UNL     1     -23.186 -31.105 -14.310  0.00  0.00    -0.214 NA
BRANCH   4   3
ATOM      1  C   UNL     1     -27.211 -30.323 -16.561  0.00  0.00    +0.020 A 
ATOM      2  C   UNL     1     -26.122 -31.103 -16.019  0.00  0.00    +0.013 A 
ATOM      3  C   UNL     1     -24.744 -30.642 -16.138  0.00  0.00    +0.019 A 
ATOM     38  C   UNL     1     -24.501 -29.378 -16.817  0.00  0.00    +0.120 A 
ATOM     39  N   UNL     1     -25.569 -28.650 -17.331  0.00  0.00    -0.263 NA
ATOM     40  C   UNL     1     -26.899 -29.084 -17.223  0.00  0.00    +0.111 A 
ENDBRANCH   4   3
ENDBRANCH  10   9
BRANCH  12  13
ATOM     13  N   UNL     1     -16.960 -31.741 -11.460  0.00  0.00    -0.281 N 
ATOM     14  C   UNL     1     -16.071 -31.306 -10.491  0.00  0.00    +0.248 C 
ATOM     30  O   UNL     1     -16.385 -31.012  -9.347  0.00  0.00    -0.270 OA
ATOM     31  H   UNL     1     -16.605 -31.764 -12.416  0.00  0.00    +0.155 HD
BRANCH  14  15
ATOM     15  C   UNL     1     -14.627 -31.163 -10.847  0.00  0.00    +0.037 A 
ATOM     16  C   UNL     1     -13.599 -31.982 -10.200  0.00  0.00    +0.013 A 
ATOM     17  C   UNL     1     -12.212 -31.812 -10.551  0.00  0.00    +0.005 A 
ATOM     18  C   UNL     1     -11.844 -30.817 -11.556  0.00  0.00    -0.033 A 
ATOM     28  C   UNL     1     -12.884 -30.021 -12.186  0.00  0.00    +0.005 A 
ATOM     29  C   UNL     1     -14.245 -30.185 -11.844  0.00  0.00    +0.013 A 
BRANCH  18  19
ATOM     19  C   UNL     1     -10.386 -30.553 -11.976  0.00  0.00    +0.119 C 
BRANCH  19  20
ATOM     20  N   UNL     1      -9.668 -29.437 -11.291  0.00  0.00    -0.302 NA
ATOM     21  C   UNL     1     -10.294 -29.099  -9.935  0.00  0.00    +0.066 C 
ATOM     22  C   UNL     1      -9.517 -27.945  -9.222  0.00  0.00    -0.064 C 
ATOM     23  N   UNL     1      -9.492 -26.713 -10.129  0.00  0.00    +0.379 N 
ATOM     24  C   UNL     1      -8.813 -25.608  -9.438  0.00  0.00    -0.096 C 
ATOM     25  H   UNL     1     -10.548 -26.403 -10.307  0.00  0.00    -0.082 HD
ATOM     26  C   UNL     1      -8.874 -27.042 -11.481  0.00  0.00    -0.064 C 
ATOM     27  C   UNL     1      -9.635 -28.210 -12.168  0.00  0.00    +0.066 C 
ENDBRANCH  19  20
ENDBRANCH  18  19
ENDBRANCH  14  15
ENDBRANCH  12  13
TORSDOF 6
ENDMDL
MODEL 2
REMARK VINA RESULT:      -9.6      5.625     14.908
REMARK  Name = C:\Users\Docking\Desktop\test protocol\1iep_ligandH.pdb
REMARK  8 active torsions:
REMARK  status: ('A' for Active; 'I' for Inactive)
REMARK    1  A    between atoms: _5  and  _11
REMARK    2  A    between atoms: _19  and  _21
REMARK    3  A    between atoms: _22  and  _66
REMARK    4  A    between atoms: _27  and  _30
REMARK    5  A    between atoms: _32  and  _33
REMARK    6  A    between atoms: _38  and  _43
REMARK    7  A    between atoms: _43  and  _46
REMARK    8  A    between atoms: _53  and  _55
REMARK                            x       y       z     vdW  Elec       q    Type
REMARK                         _______ _______ _______ _____ _____    ______ ____
ROOT
ATOM     10  C   UNL     1     -23.043 -30.088 -15.361  0.00  0.00    +0.038 A 
ATOM     11  C   UNL     1     -23.886 -29.563 -16.374  0.00  0.00    +0.047 A 
ATOM     12  C   UNL     1     -25.330 -29.728 -16.313  0.00  0.00    +0.035 A 
ATOM     32  C   UNL     1     -25.883 -30.431 -15.203  0.00  0.00    +0.024 A 
ATOM     33  C   UNL     1     -25.041 -30.972 -14.165  0.00  0.00    +0.007 A 
ATOM     34  C   UNL     1     -23.616 -30.815 -14.222  0.00  0.00    -0.029 A 
ATOM     35  C   UNL     1     -22.763 -31.422 -13.084  0.00  0.00    +0.045 C 
ENDROOT
BRANCH  10   9
ATOM      4  C   UNL     1     -19.054 -27.511 -14.670  0.00  0.00    +0.077 A 
ATOM      5  C   UNL     1     -19.784 -26.434 -14.064  0.00  0.00    +0.048 A 
ATOM      6  C   UNL     1     -21.185 -26.580 -13.955  0.00  0.00    +0.116 A 
ATOM      7  N   UNL     1     -21.800 -27.722 -14.421  0.00  0.00    -0.223 NA
ATOM      8  C   UNL     1     -21.067 -28.741 -15.002  0.00  0.00    +0.220 A 
ATOM      9  N   UNL     1     -21.664 -29.901 -15.471  0.00  0.00    -0.283 N 
ATOM     36  H   UNL     1     -21.089 -30.626 -15.900  0.00  0.00    +0.155 HD
ATOM     37  N   UNL     1     -19.728 -28.625 -15.119  0.00  0.00    -0.214 NA
BRANCH   4   3
ATOM      1  C   UNL     1     -15.417 -28.512 -15.705  0.00  0.00    +0.020 A 
ATOM      2  C   UNL     1     -16.853 -28.564 -15.556  0.00  0.00    +0.013 A 
ATOM      3  C   UNL     1     -17.568 -27.506 -14.853  0.00  0.00    +0.019 A 
ATOM     38  C   UNL     1     -16.794 -26.400 -14.311  0.00  0.00    +0.120 A 
ATOM     39  N   UNL     1     -15.412 -26.377 -14.469  0.00  0.00    -0.263 NA
ATOM     40  C   UNL     1     -14.713 -27.390 -15.141  0.00  0.00    +0.111 A 
ENDBRANCH   4   3
ENDBRANCH  10   9
BRANCH  12  13
ATOM     13  N   UNL     1     -26.234 -29.223 -17.316  0.00  0.00    -0.281 N 
ATOM     14  C   UNL     1     -27.402 -28.503 -17.125  0.00  0.00    +0.248 C 
ATOM     30  O   UNL     1     -27.961 -28.366 -16.047  0.00  0.00    -0.270 OA
ATOM     31  H   UNL     1     -25.983 -29.421 -18.285  0.00  0.00    +0.155 HD
BRANCH  14  15
ATOM     15  C   UNL     1     -28.050 -27.853 -18.304  0.00  0.00    +0.037 A 
ATOM     16  C   UNL     1     -27.906 -26.416 -18.555  0.00  0.00    +0.013 A 
ATOM     17  C   UNL     1     -28.556 -25.811 -19.690  0.00  0.00    +0.005 A 
ATOM     18  C   UNL     1     -29.356 -26.644 -20.585  0.00  0.00    -0.033 A 
ATOM     28  C   UNL     1     -29.478 -28.067 -20.316  0.00  0.00    +0.005 A 
ATOM     29  C   UNL     1     -28.843 -28.663 -19.204  0.00  0.00    +0.013 A 
BRANCH  18  19
ATOM     19  C   UNL     1     -30.102 -26.079 -21.809  0.00  0.00    +0.119 C 
BRANCH  19  20
ATOM     20  N   UNL     1     -29.297 -25.314 -22.807  0.00  0.00    -0.302 NA
ATOM     21  C   UNL     1     -30.090 -24.154 -23.417  0.00  0.00    +0.066 C 
ATOM     22  C   UNL     1     -29.225 -23.351 -24.442  0.00  0.00    -0.064 C 
ATOM     23  N   UNL     1     -28.723 -24.297 -25.534  0.00  0.00    +0.379 N 
ATOM     24  C   UNL     1     -27.959 -23.533 -26.531  0.00  0.00    -0.096 C 
ATOM     25  H   UNL     1     -29.616 -24.725 -26.047  0.00  0.00    -0.082 HD
ATOM     26  C   UNL     1     -27.936 -25.454 -24.936  0.00  0.00    -0.064 C 
ATOM     27  C   UNL     1     -28.794 -26.228 -23.897  0.00  0.00    +0.066 C 
ENDBRANCH  19  20
ENDBRANCH  18  19
ENDBRANCH  14  15
ENDBRANCH  12  13
TORSDOF 6
ENDMDL
MODEL 3
REMARK VINA RESULT:      -9.6      6.103     15.332
REMARK  Name = C:\Users\Docking\Desktop\test protocol\1iep_ligandH.pdb
REMARK  8 active torsions:
REMARK  status: ('A' for Active; 'I' for Inactive)
REMARK    1  A    between atoms: _5  and  _11
REMARK    2  A    between atoms: _19  and  _21
REMARK    3  A    between atoms: _22  and  _66
REMARK    4  A    between atoms: _27  and  _30
REMARK    5  A    between atoms: _32  and  _33
REMARK    6  A    between atoms: _38  and  _43
REMARK    7  A    between atoms: _43  and  _46
REMARK    8  A    between atoms: _53  and  _55
REMARK                            x       y       z     vdW  Elec       q    Type
REMARK                         _______ _______ _______ _____ _____    ______ ____
ROOT
ATOM     10  C   UNL     1     -24.198 -29.347 -15.125  0.00  0.00    +0.038 A 
ATOM     11  C   UNL     1     -24.858 -28.880 -16.291  0.00  0.00    +0.047 A 
ATOM     12  C   UNL     1     -26.120 -29.459 -16.724  0.00  0.00    +0.035 A 
ATOM     32  C   UNL     1     -26.685 -30.510 -15.943  0.00  0.00    +0.024 A 
ATOM     33  C   UNL     1     -26.027 -30.997 -14.756  0.00  0.00    +0.007 A 
ATOM     34  C   UNL     1     -24.781 -30.431 -14.325  0.00  0.00    -0.029 A 
ATOM     35  C   UNL     1     -24.117 -30.997 -13.048  0.00  0.00    +0.045 C 
ENDROOT
BRANCH  10   9
ATOM      4  C   UNL     1     -19.494 -28.602 -15.722  0.00  0.00    +0.077 A 
ATOM      5  C   UNL     1     -19.437 -29.488 -16.849  0.00  0.00    +0.048 A 
ATOM      6  C   UNL     1     -20.639 -30.121 -17.238  0.00  0.00    +0.116 A 
ATOM      7  N   UNL     1     -21.805 -29.878 -16.545  0.00  0.00    -0.223 NA
ATOM      8  C   UNL     1     -21.825 -29.020 -15.462  0.00  0.00    +0.220 A 
ATOM      9  N   UNL     1     -22.988 -28.755 -14.755  0.00  0.00    -0.283 N 
ATOM     36  H   UNL     1     -22.960 -28.121 -13.957  0.00  0.00    +0.155 HD
ATOM     37  N   UNL     1     -20.691 -28.404 -15.069  0.00  0.00    -0.214 NA
BRANCH   4   3
ATOM      1  C   UNL     1     -15.891 -27.711 -14.487  0.00  0.00    +0.020 A 
ATOM      2  C   UNL     1     -17.004 -28.476 -15.002  0.00  0.00    +0.013 A 
ATOM      3  C   UNL     1     -18.309 -27.857 -15.191  0.00  0.00    +0.019 A 
ATOM     38  C   UNL     1     -18.457 -26.450 -14.848  0.00  0.00    +0.120 A 
ATOM     39  N   UNL     1     -17.369 -25.739 -14.352  0.00  0.00    -0.263 NA
ATOM     40  C   UNL     1     -16.108 -26.325 -14.164  0.00  0.00    +0.111 A 
ENDBRANCH   4   3
ENDBRANCH  10   9
BRANCH  12  13
ATOM     13  N   UNL     1     -26.831 -29.032 -17.903  0.00  0.00    -0.281 N 
ATOM     14  C   UNL     1     -27.822 -28.069 -17.998  0.00  0.00    +0.248 C 
ATOM     30  O   UNL     1     -28.400 -27.575 -17.042  0.00  0.00    -0.270 OA
ATOM     31  H   UNL     1     -26.573 -29.497 -18.774  0.00  0.00    +0.155 HD
BRANCH  14  15
ATOM     15  C   UNL     1     -28.242 -27.596 -19.353  0.00  0.00    +0.037 A 
ATOM     16  C   UNL     1     -27.317 -27.627 -20.489  0.00  0.00    +0.013 A 
ATOM     17  C   UNL     1     -27.741 -27.148 -21.780  0.00  0.00    +0.005 A 
ATOM     18  C   UNL     1     -29.100 -26.636 -21.943  0.00  0.00    -0.033 A 
ATOM     28  C   UNL     1     -29.998 -26.622 -20.801  0.00  0.00    +0.005 A 
ATOM     29  C   UNL     1     -29.585 -27.089 -19.533  0.00  0.00    +0.013 A 
BRANCH  18  19
ATOM     19  C   UNL     1     -29.631 -26.086 -23.280  0.00  0.00    +0.119 C 
BRANCH  19  20
ATOM     20  N   UNL     1     -29.707 -24.602 -23.427  0.00  0.00    -0.302 NA
ATOM     21  C   UNL     1     -31.147 -24.116 -23.616  0.00  0.00    +0.066 C 
ATOM     22  C   UNL     1     -31.210 -22.559 -23.745  0.00  0.00    -0.064 C 
ATOM     23  N   UNL     1     -30.330 -22.111 -24.913  0.00  0.00    +0.379 N 
ATOM     24  C   UNL     1     -30.432 -20.653 -25.074  0.00  0.00    -0.096 C 
ATOM     25  H   UNL     1     -30.731 -22.583 -25.840  0.00  0.00    -0.082 HD
ATOM     26  C   UNL     1     -28.897 -22.592 -24.734  0.00  0.00    -0.064 C 
ATOM     27  C   UNL     1     -28.848 -24.138 -24.577  0.00  0.00    +0.066 C 
ENDBRANCH  19  20
ENDBRANCH  18  19
ENDBRANCH  14  15
ENDBRANCH  12  13
TORSDOF 6
ENDMDL
MODEL 4
REMARK VINA RESULT:      -9.3      5.639     15.432
REMARK  Name = C:\Users\Docking\Desktop\test protocol\1iep_ligandH.pdb
REMARK  8 active torsions:
REMARK  status: ('A' for Active; 'I' for Inactive)
REMARK    1  A    between atoms: _5  and  _11
REMARK    2  A    between atoms: _19  and  _21
REMARK    3  A    between atoms: _22  and  _66
REMARK    4  A    between atoms: _27  and  _30
REMARK    5  A    between atoms: _32  and  _33
REMARK    6  A    between atoms: _38  and  _43
REMARK    7  A    between atoms: _43  and  _46
REMARK    8  A    between atoms: _53  and  _55
REMARK                            x       y       z     vdW  Elec       q    Type
REMARK                         _______ _______ _______ _____ _____    ______ ____
ROOT
ATOM     10  C   UNL     1     -23.636 -30.377 -15.151  0.00  0.00    +0.038 A 
ATOM     11  C   UNL     1     -24.364 -29.966 -16.296  0.00  0.00    +0.047 A 
ATOM     12  C   UNL     1     -25.818 -29.939 -16.294  0.00  0.00    +0.035 A 
ATOM     32  C   UNL     1     -26.500 -30.334 -15.106  0.00  0.00    +0.024 A 
ATOM     33  C   UNL     1     -25.776 -30.756 -13.933  0.00  0.00    +0.007 A 
ATOM     34  C   UNL     1     -24.341 -30.787 -13.930  0.00  0.00    -0.029 A 
ATOM     35  C   UNL     1     -23.617 -31.254 -12.646  0.00  0.00    +0.045 C 
ENDROOT
BRANCH  10   9
ATOM      4  C   UNL     1     -19.385 -28.150 -15.071  0.00  0.00    +0.077 A 
ATOM      5  C   UNL     1     -19.997 -26.860 -14.930  0.00  0.00    +0.048 A 
ATOM      6  C   UNL     1     -21.408 -26.813 -14.889  0.00  0.00    +0.116 A 
ATOM      7  N   UNL     1     -22.143 -27.975 -14.983  0.00  0.00    -0.223 NA
ATOM      8  C   UNL     1     -21.522 -29.202 -15.120  0.00  0.00    +0.220 A 
ATOM      9  N   UNL     1     -22.241 -30.384 -15.208  0.00  0.00    -0.283 N 
ATOM     36  H   UNL     1     -21.745 -31.269 -15.316  0.00  0.00    +0.155 HD
ATOM     37  N   UNL     1     -20.175 -29.274 -15.163  0.00  0.00    -0.214 NA
BRANCH   4   3
ATOM      1  C   UNL     1     -15.521 -27.589 -14.843  0.00  0.00    +0.020 A 
ATOM      2  C   UNL     1     -16.940 -27.330 -14.773  0.00  0.00    +0.013 A 
ATOM      3  C   UNL     1     -17.904 -28.364 -15.127  0.00  0.00    +0.019 A 
ATOM     38  C   UNL     1     -17.395 -29.660 -15.551  0.00  0.00    +0.120 A 
ATOM     39  N   UNL     1     -16.022 -29.879 -15.610  0.00  0.00    -0.263 NA
ATOM     40  C   UNL     1     -15.085 -28.891 -15.274  0.00  0.00    +0.111 A 
ENDBRANCH   4   3
ENDBRANCH  10   9
BRANCH  12  13
ATOM     13  N   UNL     1     -26.611 -29.538 -17.430  0.00  0.00    -0.281 N 
ATOM     14  C   UNL     1     -27.575 -28.545 -17.488  0.00  0.00    +0.248 C 
ATOM     30  O   UNL     1     -28.056 -27.991 -16.511  0.00  0.00    -0.270 OA
ATOM     31  H   UNL     1     -26.441 -30.049 -18.296  0.00  0.00    +0.155 HD
BRANCH  14  15
ATOM     15  C   UNL     1     -28.091 -28.116 -18.824  0.00  0.00    +0.037 A 
ATOM     16  C   UNL     1     -27.179 -27.683 -19.886  0.00  0.00    +0.013 A 
ATOM     17  C   UNL     1     -27.704 -27.258 -21.160  0.00  0.00    +0.005 A 
ATOM     18  C   UNL     1     -29.148 -27.266 -21.378  0.00  0.00    -0.033 A 
ATOM     28  C   UNL     1     -30.029 -27.705 -20.309  0.00  0.00    +0.005 A 
ATOM     29  C   UNL     1     -29.519 -28.122 -19.059  0.00  0.00    +0.013 A 
BRANCH  18  19
ATOM     19  C   UNL     1     -29.797 -26.809 -22.698  0.00  0.00    +0.119 C 
BRANCH  19  20
ATOM     20  N   UNL     1     -30.958 -25.874 -22.602  0.00  0.00    -0.302 NA
ATOM     21  C   UNL     1     -31.474 -25.455 -23.982  0.00  0.00    +0.066 C 
ATOM     22  C   UNL     1     -32.702 -24.495 -23.862  0.00  0.00    -0.064 C 
ATOM     23  N   UNL     1     -32.309 -23.269 -23.036  0.00  0.00    +0.379 N 
ATOM     24  C   UNL     1     -33.445 -22.338 -22.971  0.00  0.00    -0.096 C 
ATOM     25  H   UNL     1     -31.478 -22.754 -23.571  0.00  0.00    -0.082 HD
ATOM     26  C   UNL     1     -31.792 -23.677 -21.664  0.00  0.00    -0.064 C 
ATOM     27  C   UNL     1     -30.591 -24.654 -21.794  0.00  0.00    +0.066 C 
ENDBRANCH  19  20
ENDBRANCH  18  19
ENDBRANCH  14  15
ENDBRANCH  12  13
TORSDOF 6
ENDMDL
MODEL 5
REMARK VINA RESULT:      -9.2      2.007      2.777
REMARK  Name = C:\Users\Docking\Desktop\test protocol\1iep_ligandH.pdb
REMARK  8 active torsions:
REMARK  status: ('A' for Active; 'I' for Inactive)
REMARK    1  A    between atoms: _5  and  _11
REMARK    2  A    between atoms: _19  and  _21
REMARK    3  A    between atoms: _22  and  _66
REMARK    4  A    between atoms: _27  and  _30
REMARK    5  A    between atoms: _32  and  _33
REMARK    6  A    between atoms: _38  and  _43
REMARK    7  A    between atoms: _43  and  _46
REMARK    8  A    between atoms: _53  and  _55
REMARK                            x       y       z     vdW  Elec       q    Type
REMARK                         _______ _______ _______ _____ _____    ______ ____
ROOT
ATOM     10  C   UNL     1     -19.361 -32.175 -11.039  0.00  0.00    +0.038 A 
ATOM     11  C   UNL     1     -18.140 -31.740 -11.615  0.00  0.00    +0.047 A 
ATOM     12  C   UNL     1     -16.922 -31.654 -10.823  0.00  0.00    +0.035 A 
ATOM     32  C   UNL     1     -16.984 -32.023  -9.448  0.00  0.00    +0.024 A 
ATOM     33  C   UNL     1     -18.217 -32.466  -8.846  0.00  0.00    +0.007 A 
ATOM     34  C   UNL     1     -19.421 -32.550  -9.621  0.00  0.00    -0.029 A 
ATOM     35  C   UNL     1     -20.715 -33.027  -8.922  0.00  0.00    +0.045 C 
ENDROOT
BRANCH  10   9
ATOM      4  C   UNL     1     -23.487 -30.360 -12.686  0.00  0.00    +0.077 A 
ATOM      5  C   UNL     1     -23.380 -29.200 -11.849  0.00  0.00    +0.048 A 
ATOM      6  C   UNL     1     -22.251 -29.112 -11.004  0.00  0.00    +0.116 A 
ATOM      7  N   UNL     1     -21.306 -30.115 -11.005  0.00  0.00    -0.223 NA
ATOM      8  C   UNL     1     -21.441 -31.222 -11.823  0.00  0.00    +0.220 A 
ATOM      9  N   UNL     1     -20.499 -32.239 -11.846  0.00  0.00    -0.283 N 
ATOM     36  H   UNL     1     -20.639 -33.042 -12.458  0.00  0.00    +0.155 HD
ATOM     37  N   UNL     1     -22.511 -31.330 -12.638  0.00  0.00    -0.214 NA
BRANCH   4   3
ATOM      1  C   UNL     1     -25.551 -31.102 -15.925  0.00  0.00    +0.020 A 
ATOM      2  C   UNL     1     -24.422 -30.881 -15.051  0.00  0.00    +0.013 A 
ATOM      3  C   UNL     1     -24.621 -30.596 -13.636  0.00  0.00    +0.019 A 
ATOM     38  C   UNL     1     -25.985 -30.541 -13.132  0.00  0.00    +0.120 A 
ATOM     39  N   UNL     1     -27.052 -30.756 -13.999  0.00  0.00    -0.263 NA
ATOM     40  C   UNL     1     -26.873 -31.030 -15.363  0.00  0.00    +0.111 A 
ENDBRANCH   4   3
ENDBRANCH  10   9
BRANCH  12  13
ATOM     13  N   UNL     1     -15.656 -31.212 -11.352  0.00  0.00    -0.281 N 
ATOM     14  C   UNL     1     -15.399 -30.656 -12.595  0.00  0.00    +0.248 C 
ATOM     30  O   UNL     1     -16.189 -30.653 -13.527  0.00  0.00    -0.270 OA
ATOM     31  H   UNL     1     -14.851 -31.321 -10.734  0.00  0.00    +0.155 HD
BRANCH  14  15
ATOM     15  C   UNL     1     -14.066 -30.027 -12.842  0.00  0.00    +0.037 A 
ATOM     16  C   UNL     1     -12.882 -30.842 -13.127  0.00  0.00    +0.013 A 
ATOM     17  C   UNL     1     -11.605 -30.210 -13.345  0.00  0.00    +0.005 A 
ATOM     18  C   UNL     1     -11.506 -28.754 -13.282  0.00  0.00    -0.033 A 
ATOM     28  C   UNL     1     -12.698 -27.969 -13.003  0.00  0.00    +0.005 A 
ATOM     29  C   UNL     1     -13.951 -28.585 -12.787  0.00  0.00    +0.013 A 
BRANCH  18  19
ATOM     19  C   UNL     1     -10.180 -27.996 -13.481  0.00  0.00    +0.119 C 
BRANCH  19  20
ATOM     20  N   UNL     1      -9.523 -27.436 -12.262  0.00  0.00    -0.302 NA
ATOM     21  C   UNL     1      -9.793 -28.290 -11.020  0.00  0.00    +0.066 C 
ATOM     22  C   UNL     1      -9.079 -27.702  -9.759  0.00  0.00    -0.064 C 
ATOM     23  N   UNL     1      -9.545 -26.261  -9.539  0.00  0.00    +0.379 N 
ATOM     24  C   UNL     1      -8.920 -25.725  -8.321  0.00  0.00    -0.096 C 
ATOM     25  H   UNL     1     -10.647 -26.284  -9.372  0.00  0.00    -0.082 HD
ATOM     26  C   UNL     1      -9.283 -25.406 -10.770  0.00  0.00    -0.064 C 
ATOM     27  C   UNL     1      -9.972 -26.015 -12.023  0.00  0.00    +0.066 C 
ENDBRANCH  19  20
ENDBRANCH  18  19
ENDBRANCH  14  15
ENDBRANCH  12  13
TORSDOF 6
ENDMDL
