MODEL 1
REMARK VINA RESULT:      -7.7      0.000      0.000
REMARK  Name = C:\Users\Docking\Desktop\test protocol\1iep_ligandH.pdb
REMARK  8 active torsions:
REMARK  status: ('A' for Active; 'I' for Inactive)
REMARK    1  A    between atoms: _5  and  _11
REMARK    2  A    between atoms: _19  and  _21
REMARK    3  A    between atoms: _22  and  _66
REMARK    4  A    between atoms: _27  and  _30
REMARK    5  A    between atoms: _32  and  _33
REMARK    6  A    between atoms: _38  and  _43
REMARK    7  A    between atoms: _43  and  _46
REMARK    8  A    between atoms: _53  and  _55
REMARK                            x       y       z     vdW  Elec       q    Type
REMARK                         _______ _______ _______ _____ _____    ______ ____
ROOT
ATOM     10  C   UNL     1     -10.765 -42.984 -31.010  0.00  0.00    +0.038 A 
ATOM     11  C   UNL     1     -10.111 -42.568 -29.823  0.00  0.00    +0.047 A 
ATOM     12  C   UNL     1      -8.750 -42.990 -29.527  0.00  0.00    +0.035 A 
ATOM     32  C   UNL     1      -8.085 -43.834 -30.463  0.00  0.00    +0.024 A 
ATOM     33  C   UNL     1      -8.736 -44.267 -31.674  0.00  0.00    +0.007 A 
ATOM     34  C   UNL     1     -10.079 -43.856 -31.971  0.00  0.00    -0.029 A 
ATOM     35  C   UNL     1     -10.730 -44.357 -33.281  0.00  0.00    +0.045 C 
ENDROOT
BRANCH  10   9
ATOM      4  C   UNL     1     -13.950 -40.134 -33.195  0.00  0.00    +0.077 A 
ATOM      5  C   UNL     1     -12.922 -39.434 -33.910  0.00  0.00    +0.048 A 
ATOM      6  C   UNL     1     -11.586 -39.834 -33.682  0.00  0.00    +0.116 A 
ATOM      7  N   UNL     1     -11.310 -40.858 -32.802  0.00  0.00    -0.223 NA
ATOM      8  C   UNL     1     -12.325 -41.511 -32.127  0.00  0.00    +0.220 A 
ATOM      9  N   UNL     1     -12.072 -42.549 -31.244  0.00  0.00    -0.283 N 
ATOM     36  H   UNL     1     -12.848 -43.001 -30.761  0.00  0.00    +0.155 HD
ATOM     37  N   UNL     1     -13.609 -41.147 -32.327  0.00  0.00    -0.214 NA
BRANCH   4   3
ATOM      1  C   UNL     1     -17.843 -40.497 -33.324  0.00  0.00    +0.020 A 
ATOM      2  C   UNL     1     -16.447 -40.843 -33.183  0.00  0.00    +0.013 A 
ATOM      3  C   UNL     1     -15.410 -39.830 -33.331  0.00  0.00    +0.019 A 
ATOM     38  C   UNL     1     -15.821 -38.465 -33.623  0.00  0.00    +0.120 A 
ATOM     39  N   UNL     1     -17.173 -38.162 -33.755  0.00  0.00    -0.263 NA
ATOM     40  C   UNL     1     -18.180 -39.128 -33.617  0.00  0.00    +0.111 A 
ENDBRANCH   4   3
ENDBRANCH  10   9
BRANCH  12  13
ATOM     13  N   UNL     1      -8.037 -42.606 -28.333  0.00  0.00    -0.281 N 
ATOM     14  C   UNL     1      -7.817 -43.360 -27.193  0.00  0.00    +0.248 C 
ATOM     30  O   UNL     1      -8.387 -44.411 -26.939  0.00  0.00    -0.270 OA
ATOM     31  H   UNL     1      -7.648 -41.663 -28.329  0.00  0.00    +0.155 HD
BRANCH  14  15
ATOM     15  C   UNL     1      -6.833 -42.869 -26.181  0.00  0.00    +0.037 A 
ATOM     16  C   UNL     1      -6.791 -41.460 -25.783  0.00  0.00    +0.013 A 
ATOM     17  C   UNL     1      -5.820 -41.009 -24.818  0.00  0.00    +0.005 A 
ATOM     18  C   UNL     1      -4.884 -41.971 -24.242  0.00  0.00    -0.033 A 
ATOM     28  C   UNL     1      -4.951 -43.364 -24.650  0.00  0.00    +0.005 A 
ATOM     29  C   UNL     1      -5.900 -43.809 -25.597  0.00  0.00    +0.013 A 
BRANCH  18  19
ATOM     19  C   UNL     1      -3.801 -41.575 -23.220  0.00  0.00    +0.119 C 
BRANCH  19  20
ATOM     20  N   UNL     1      -2.895 -40.446 -23.587  0.00  0.00    -0.302 NA
ATOM     21  C   UNL     1      -1.467 -40.667 -23.081  0.00  0.00    +0.066 C 
ATOM     22  C   UNL     1      -0.528 -39.487 -23.493  0.00  0.00    -0.064 C 
ATOM     23  N   UNL     1      -1.096 -38.174 -22.953  0.00  0.00    +0.379 N 
ATOM     24  C   UNL     1      -0.186 -37.070 -23.290  0.00  0.00    -0.096 C 
ATOM     25  H   UNL     1      -1.136 -38.254 -21.842  0.00  0.00    -0.082 HD
ATOM     26  C   UNL     1      -2.517 -37.947 -23.451  0.00  0.00    -0.064 C 
ATOM     27  C   UNL     1      -3.436 -39.139 -23.061  0.00  0.00    +0.066 C 
ENDBRANCH  19  20
ENDBRANCH  18  19
ENDBRANCH  14  15
ENDBRANCH  12  13
TORSDOF 6
ENDMDL
MODEL 2
REMARK VINA RESULT:      -7.6      1.388      2.223
REMARK  Name = C:\Users\Docking\Desktop\test protocol\1iep_ligandH.pdb
REMARK  8 active torsions:
REMARK  status: ('A' for Active; 'I' for Inactive)
REMARK    1  A    between atoms: _5  and  _11
REMARK    2  A    between atoms: _19  and  _21
REMARK    3  A    between atoms: _22  and  _66
REMARK    4  A    between atoms: _27  and  _30
REMARK    5  A    between atoms: _32  and  _33
REMARK    6  A    between atoms: _38  and  _43
REMARK    7  A    between atoms: _43  and  _46
REMARK    8  A    between atoms: _53  and  _55
REMARK                            x       y       z     vdW  Elec       q    Type
REMARK                         _______ _______ _______ _____ _____    ______ ____
ROOT
ATOM     10  C   UNL     1     -10.663 -43.062 -30.949  0.00  0.00    +0.038 A 
ATOM     11  C   UNL     1      -9.903 -42.495 -29.894  0.00  0.00    +0.047 A 
ATOM     12  C   UNL     1      -8.553 -42.954 -29.608  0.00  0.00    +0.035 A 
ATOM     32  C   UNL     1      -8.006 -43.991 -30.419  0.00  0.00    +0.024 A 
ATOM     33  C   UNL     1      -8.764 -44.579 -31.495  0.00  0.00    +0.007 A 
ATOM     34  C   UNL     1     -10.098 -44.132 -31.780  0.00  0.00    -0.029 A 
ATOM     35  C   UNL     1     -10.867 -44.803 -32.942  0.00  0.00    +0.045 C 
ENDROOT
BRANCH  10   9
ATOM      4  C   UNL     1     -13.769 -40.184 -33.209  0.00  0.00    +0.077 A 
ATOM      5  C   UNL     1     -12.727 -39.564 -33.976  0.00  0.00    +0.048 A 
ATOM      6  C   UNL     1     -11.405 -40.009 -33.754  0.00  0.00    +0.116 A 
ATOM      7  N   UNL     1     -11.155 -41.001 -32.832  0.00  0.00    -0.223 NA
ATOM      8  C   UNL     1     -12.182 -41.577 -32.107  0.00  0.00    +0.220 A 
ATOM      9  N   UNL     1     -11.954 -42.583 -31.180  0.00  0.00    -0.283 N 
ATOM     36  H   UNL     1     -12.738 -42.977 -30.661  0.00  0.00    +0.155 HD
ATOM     37  N   UNL     1     -13.454 -41.169 -32.300  0.00  0.00    -0.214 NA
BRANCH   4   3
ATOM      1  C   UNL     1     -17.673 -40.399 -33.311  0.00  0.00    +0.020 A 
ATOM      2  C   UNL     1     -16.291 -40.798 -33.182  0.00  0.00    +0.013 A 
ATOM      3  C   UNL     1     -15.217 -39.824 -33.333  0.00  0.00    +0.019 A 
ATOM     38  C   UNL     1     -15.579 -38.444 -33.616  0.00  0.00    +0.120 A 
ATOM     39  N   UNL     1     -16.919 -38.089 -33.736  0.00  0.00    -0.263 NA
ATOM     40  C   UNL     1     -17.961 -39.017 -33.594  0.00  0.00    +0.111 A 
ENDBRANCH   4   3
ENDBRANCH  10   9
BRANCH  12  13
ATOM     13  N   UNL     1      -7.737 -42.422 -28.545  0.00  0.00    -0.281 N 
ATOM     14  C   UNL     1      -7.483 -42.983 -27.304  0.00  0.00    +0.248 C 
ATOM     30  O   UNL     1      -8.094 -43.932 -26.836  0.00  0.00    -0.270 OA
ATOM     31  H   UNL     1      -7.293 -41.522 -28.729  0.00  0.00    +0.155 HD
BRANCH  14  15
ATOM     15  C   UNL     1      -6.404 -42.396 -26.453  0.00  0.00    +0.037 A 
ATOM     16  C   UNL     1      -5.006 -42.809 -26.606  0.00  0.00    +0.013 A 
ATOM     17  C   UNL     1      -3.987 -42.239 -25.761  0.00  0.00    +0.005 A 
ATOM     18  C   UNL     1      -4.362 -41.248 -24.756  0.00  0.00    -0.033 A 
ATOM     28  C   UNL     1      -5.755 -40.852 -24.629  0.00  0.00    +0.005 A 
ATOM     29  C   UNL     1      -6.757 -41.409 -25.455  0.00  0.00    +0.013 A 
BRANCH  18  19
ATOM     19  C   UNL     1      -3.344 -40.603 -23.797  0.00  0.00    +0.119 C 
BRANCH  19  20
ATOM     20  N   UNL     1      -2.599 -41.514 -22.877  0.00  0.00    -0.302 NA
ATOM     21  C   UNL     1      -3.524 -42.532 -22.204  0.00  0.00    +0.066 C 
ATOM     22  C   UNL     1      -2.725 -43.491 -21.262  0.00  0.00    -0.064 C 
ATOM     23  N   UNL     1      -1.976 -42.666 -20.215  0.00  0.00    +0.379 N 
ATOM     24  C   UNL     1      -1.270 -43.567 -19.293  0.00  0.00    -0.096 C 
ATOM     25  H   UNL     1      -2.734 -42.102 -19.624  0.00  0.00    -0.082 HD
ATOM     26  C   UNL     1      -1.056 -41.648 -20.876  0.00  0.00    -0.064 C 
ATOM     27  C   UNL     1      -1.855 -40.719 -21.832  0.00  0.00    +0.066 C 
ENDBRANCH  19  20
ENDBRANCH  18  19
ENDBRANCH  14  15
ENDBRANCH  12  13
TORSDOF 6
ENDMDL
MODEL 3
REMARK VINA RESULT:      -7.2     22.044     26.997
REMARK  Name = C:\Users\Docking\Desktop\test protocol\1iep_ligandH.pdb
REMARK  8 active torsions:
REMARK  status: ('A' for Active; 'I' for Inactive)
REMARK    1  A    between atoms: _5  and  _11
REMARK    2  A    between atoms: _19  and  _21
REMARK    3  A    between atoms: _22  and  _66
REMARK    4  A    between atoms: _27  and  _30
REMARK    5  A    between atoms: _32  and  _33
REMARK    6  A    between atoms: _38  and  _43
REMARK    7  A    between atoms: _43  and  _46
REMARK    8  A    between atoms: _53  and  _55
REMARK                            x       y       z     vdW  Elec       q    Type
REMARK                         _______ _______ _______ _____ _____    ______ ____
ROOT
ATOM     10  C   UNL     1     -33.228 -35.161 -20.194  0.00  0.00    +0.038 A 
ATOM     11  C   UNL     1     -32.329 -34.722 -21.201  0.00  0.00    +0.047 A 
ATOM     12  C   UNL     1     -32.480 -35.151 -22.582  0.00  0.00    +0.035 A 
ATOM     32  C   UNL     1     -33.559 -36.025 -22.905  0.00  0.00    +0.024 A 
ATOM     33  C   UNL     1     -34.481 -36.481 -21.894  0.00  0.00    +0.007 A 
ATOM     34  C   UNL     1     -34.335 -36.064 -20.529  0.00  0.00    -0.029 A 
ATOM     35  C   UNL     1     -35.349 -36.589 -19.486  0.00  0.00    +0.045 C 
ENDROOT
BRANCH  10   9
ATOM      4  C   UNL     1     -33.886 -31.976 -16.664  0.00  0.00    +0.077 A 
ATOM      5  C   UNL     1     -34.655 -31.109 -17.509  0.00  0.00    +0.048 A 
ATOM      6  C   UNL     1     -34.852 -31.516 -18.848  0.00  0.00    +0.116 A 
ATOM      7  N   UNL     1     -34.316 -32.703 -19.297  0.00  0.00    -0.223 NA
ATOM      8  C   UNL     1     -33.578 -33.515 -18.456  0.00  0.00    +0.220 A 
ATOM      9  N   UNL     1     -33.036 -34.718 -18.884  0.00  0.00    -0.283 N 
ATOM     36  H   UNL     1     -32.491 -35.285 -18.234  0.00  0.00    +0.155 HD
ATOM     37  N   UNL     1     -33.374 -33.149 -17.173  0.00  0.00    -0.214 NA
BRANCH   4   3
ATOM      1  C   UNL     1     -33.414 -32.360 -12.800  0.00  0.00    +0.020 A 
ATOM      2  C   UNL     1     -33.708 -32.692 -14.175  0.00  0.00    +0.013 A 
ATOM      3  C   UNL     1     -33.594 -31.686 -15.224  0.00  0.00    +0.019 A 
ATOM     38  C   UNL     1     -33.177 -30.345 -14.846  0.00  0.00    +0.120 A 
ATOM     39  N   UNL     1     -32.902 -30.054 -13.513  0.00  0.00    -0.263 NA
ATOM     40  C   UNL     1     -33.009 -31.013 -12.495  0.00  0.00    +0.111 A 
ENDBRANCH   4   3
ENDBRANCH  10   9
BRANCH  12  13
ATOM     13  N   UNL     1     -31.595 -34.745 -23.646  0.00  0.00    -0.281 N 
ATOM     14  C   UNL     1     -31.838 -33.825 -24.652  0.00  0.00    +0.248 C 
ATOM     30  O   UNL     1     -32.939 -33.365 -24.917  0.00  0.00    -0.270 OA
ATOM     31  H   UNL     1     -30.677 -35.191 -23.658  0.00  0.00    +0.155 HD
BRANCH  14  15
ATOM     15  C   UNL     1     -30.696 -33.359 -25.495  0.00  0.00    +0.037 A 
ATOM     16  C   UNL     1     -29.338 -33.264 -24.952  0.00  0.00    +0.013 A 
ATOM     17  C   UNL     1     -28.258 -32.795 -25.782  0.00  0.00    +0.005 A 
ATOM     18  C   UNL     1     -28.530 -32.418 -27.167  0.00  0.00    -0.033 A 
ATOM     28  C   UNL     1     -29.885 -32.526 -27.682  0.00  0.00    +0.005 A 
ATOM     29  C   UNL     1     -30.947 -32.985 -26.871  0.00  0.00    +0.013 A 
BRANCH  18  19
ATOM     19  C   UNL     1     -27.442 -31.887 -28.119  0.00  0.00    +0.119 C 
BRANCH  19  20
ATOM     20  N   UNL     1     -27.618 -30.504 -28.654  0.00  0.00    -0.302 NA
ATOM     21  C   UNL     1     -26.389 -30.030 -29.436  0.00  0.00    +0.066 C 
ATOM     22  C   UNL     1     -26.599 -28.590 -30.008  0.00  0.00    -0.064 C 
ATOM     23  N   UNL     1     -26.915 -27.629 -28.860  0.00  0.00    +0.379 N 
ATOM     24  C   UNL     1     -27.056 -26.264 -29.388  0.00  0.00    -0.096 C 
ATOM     25  H   UNL     1     -26.044 -27.635 -28.165  0.00  0.00    -0.082 HD
ATOM     26  C   UNL     1     -28.134 -28.094 -28.077  0.00  0.00    -0.064 C 
ATOM     27  C   UNL     1     -27.927 -29.537 -27.537  0.00  0.00    +0.066 C 
ENDBRANCH  19  20
ENDBRANCH  18  19
ENDBRANCH  14  15
ENDBRANCH  12  13
TORSDOF 6
ENDMDL
MODEL 4
REMARK VINA RESULT:      -7.1     22.453     26.155
REMARK  Name = C:\Users\Docking\Desktop\test protocol\1iep_ligandH.pdb
REMARK  8 active torsions:
REMARK  status: ('A' for Active; 'I' for Inactive)
REMARK    1  A    between atoms: _5  and  _11
REMARK    2  A    between atoms: _19  and  _21
REMARK    3  A    between atoms: _22  and  _66
REMARK    4  A    between atoms: _27  and  _30
REMARK    5  A    between atoms: _32  and  _33
REMARK    6  A    between atoms: _38  and  _43
REMARK    7  A    between atoms: _43  and  _46
REMARK    8  A    between atoms: _53  and  _55
REMARK                            x       y       z     vdW  Elec       q    Type
REMARK                         _______ _______ _______ _____ _____    ______ ____
ROOT
ATOM     10  C   UNL     1     -16.482 -26.074  -8.552  0.00  0.00    +0.038 A 
ATOM     11  C   UNL     1     -15.333 -26.886  -8.727  0.00  0.00    +0.047 A 
ATOM     12  C   UNL     1     -14.128 -26.361  -9.350  0.00  0.00    +0.035 A 
ATOM     32  C   UNL     1     -14.127 -25.002  -9.780  0.00  0.00    +0.024 A 
ATOM     33  C   UNL     1     -15.287 -24.163  -9.611  0.00  0.00    +0.007 A 
ATOM     34  C   UNL     1     -16.480 -24.677  -9.000  0.00  0.00    -0.029 A 
ATOM     35  C   UNL     1     -17.696 -23.733  -8.850  0.00  0.00    +0.045 C 
ENDROOT
BRANCH  10   9
ATOM      4  C   UNL     1     -19.119 -27.149  -4.688  0.00  0.00    +0.077 A 
ATOM      5  C   UNL     1     -18.152 -26.578  -3.796  0.00  0.00    +0.048 A 
ATOM      6  C   UNL     1     -16.986 -26.024  -4.371  0.00  0.00    +0.116 A 
ATOM      7  N   UNL     1     -16.811 -26.045  -5.738  0.00  0.00    -0.223 NA
ATOM      8  C   UNL     1     -17.763 -26.605  -6.570  0.00  0.00    +0.220 A 
ATOM      9  N   UNL     1     -17.612 -26.630  -7.947  0.00  0.00    -0.283 N 
ATOM     36  H   UNL     1     -18.333 -27.060  -8.526  0.00  0.00    +0.155 HD
ATOM     37  N   UNL     1     -18.884 -27.142  -6.045  0.00  0.00    -0.214 NA
BRANCH   4   3
ATOM      1  C   UNL     1     -22.042 -28.459  -2.443  0.00  0.00    +0.020 A 
ATOM      2  C   UNL     1     -20.790 -27.850  -2.830  0.00  0.00    +0.013 A 
ATOM      3  C   UNL     1     -20.403 -27.769  -4.232  0.00  0.00    +0.019 A 
ATOM     38  C   UNL     1     -21.313 -28.318  -5.227  0.00  0.00    +0.120 A 
ATOM     39  N   UNL     1     -22.511 -28.900  -4.825  0.00  0.00    -0.263 NA
ATOM     40  C   UNL     1     -22.893 -28.985  -3.478  0.00  0.00    +0.111 A 
ENDBRANCH   4   3
ENDBRANCH  10   9
BRANCH  12  13
ATOM     13  N   UNL     1     -12.933 -27.140  -9.561  0.00  0.00    -0.281 N 
ATOM     14  C   UNL     1     -12.304 -27.426 -10.762  0.00  0.00    +0.248 C 
ATOM     30  O   UNL     1     -12.796 -27.231 -11.863  0.00  0.00    -0.270 OA
ATOM     31  H   UNL     1     -12.498 -27.529  -8.724  0.00  0.00    +0.155 HD
BRANCH  14  15
ATOM     15  C   UNL     1     -10.937 -28.028 -10.735  0.00  0.00    +0.037 A 
ATOM     16  C   UNL     1     -10.035 -27.818  -9.599  0.00  0.00    +0.013 A 
ATOM     17  C   UNL     1      -8.715 -28.396  -9.607  0.00  0.00    +0.005 A 
ATOM     18  C   UNL     1      -8.289 -29.193 -10.754  0.00  0.00    -0.033 A 
ATOM     28  C   UNL     1      -9.205 -29.391 -11.865  0.00  0.00    +0.005 A 
ATOM     29  C   UNL     1     -10.499 -28.824 -11.862  0.00  0.00    +0.013 A 
BRANCH  18  19
ATOM     19  C   UNL     1      -6.890 -29.830 -10.857  0.00  0.00    +0.119 C 
BRANCH  19  20
ATOM     20  N   UNL     1      -5.772 -28.955 -11.317  0.00  0.00    -0.302 NA
ATOM     21  C   UNL     1      -4.753 -29.722 -12.166  0.00  0.00    +0.066 C 
ATOM     22  C   UNL     1      -3.602 -28.785 -12.657  0.00  0.00    -0.064 C 
ATOM     23  N   UNL     1      -2.923 -28.138 -11.449  0.00  0.00    +0.379 N 
ATOM     24  C   UNL     1      -1.803 -27.303 -11.905  0.00  0.00    -0.096 C 
ATOM     25  H   UNL     1      -2.501 -28.957 -10.821  0.00  0.00    -0.082 HD
ATOM     26  C   UNL     1      -3.929 -27.376 -10.599  0.00  0.00    -0.064 C 
ATOM     27  C   UNL     1      -5.084 -28.309 -10.139  0.00  0.00    +0.066 C 
ENDBRANCH  19  20
ENDBRANCH  18  19
ENDBRANCH  14  15
ENDBRANCH  12  13
TORSDOF 6
ENDMDL
MODEL 5
REMARK VINA RESULT:      -7.0     19.610     24.374
REMARK  Name = C:\Users\Docking\Desktop\test protocol\1iep_ligandH.pdb
REMARK  8 active torsions:
REMARK  status: ('A' for Active; 'I' for Inactive)
REMARK    1  A    between atoms: _5  and  _11
REMARK    2  A    between atoms: _19  and  _21
REMARK    3  A    between atoms: _22  and  _66
REMARK    4  A    between atoms: _27  and  _30
REMARK    5  A    between atoms: _32  and  _33
REMARK    6  A    between atoms: _38  and  _43
REMARK    7  A    between atoms: _43  and  _46
REMARK    8  A    between atoms: _53  and  _55
REMARK                            x       y       z     vdW  Elec       q    Type
REMARK                         _______ _______ _______ _____ _____    ______ ____
ROOT
ATOM     10  C   UNL     1     -15.866 -50.335  -7.364  0.00  0.00    +0.038 A 
ATOM     11  C   UNL     1     -15.782 -50.183  -8.772  0.00  0.00    +0.047 A 
ATOM     12  C   UNL     1     -16.767 -50.789  -9.654  0.00  0.00    +0.035 A 
ATOM     32  C   UNL     1     -17.827 -51.542  -9.068  0.00  0.00    +0.024 A 
ATOM     33  C   UNL     1     -17.926 -51.707  -7.639  0.00  0.00    +0.007 A 
ATOM     34  C   UNL     1     -16.956 -51.113  -6.764  0.00  0.00    -0.029 A 
ATOM     35  C   UNL     1     -17.109 -51.329  -5.240  0.00  0.00    +0.045 C 
ENDROOT
BRANCH  10   9
ATOM      4  C   UNL     1     -14.113 -46.582  -4.938  0.00  0.00    +0.077 A 
ATOM      5  C   UNL     1     -15.215 -45.746  -5.318  0.00  0.00    +0.048 A 
ATOM      6  C   UNL     1     -16.208 -46.318  -6.145  0.00  0.00    +0.116 A 
ATOM      7  N   UNL     1     -16.098 -47.629  -6.554  0.00  0.00    -0.223 NA
ATOM      8  C   UNL     1     -15.021 -48.407  -6.171  0.00  0.00    +0.220 A 
ATOM      9  N   UNL     1     -14.893 -49.731  -6.564  0.00  0.00    -0.283 N 
ATOM     36  H   UNL     1     -14.080 -50.269  -6.267  0.00  0.00    +0.155 HD
ATOM     37  N   UNL     1     -14.058 -47.884  -5.383  0.00  0.00    -0.214 NA
BRANCH   4   3
ATOM      1  C   UNL     1     -11.466 -46.362  -2.066  0.00  0.00    +0.020 A 
ATOM      2  C   UNL     1     -12.561 -46.847  -2.874  0.00  0.00    +0.013 A 
ATOM      3  C   UNL     1     -12.986 -46.124  -4.066  0.00  0.00    +0.019 A 
ATOM     38  C   UNL     1     -12.275 -44.903  -4.416  0.00  0.00    +0.120 A 
ATOM     39  N   UNL     1     -11.226 -44.459  -3.618  0.00  0.00    -0.263 NA
ATOM     40  C   UNL     1     -10.809 -45.146  -2.468  0.00  0.00    +0.111 A 
ENDBRANCH   4   3
ENDBRANCH  10   9
BRANCH  12  13
ATOM     13  N   UNL     1     -16.729 -50.676 -11.091  0.00  0.00    -0.281 N 
ATOM     14  C   UNL     1     -16.620 -49.524 -11.852  0.00  0.00    +0.248 C 
ATOM     30  O   UNL     1     -16.753 -48.391 -11.413  0.00  0.00    -0.270 OA
ATOM     31  H   UNL     1     -16.791 -51.552 -11.610  0.00  0.00    +0.155 HD
BRANCH  14  15
ATOM     15  C   UNL     1     -16.335 -49.648 -13.314  0.00  0.00    +0.037 A 
ATOM     16  C   UNL     1     -15.588 -48.613 -14.033  0.00  0.00    +0.013 A 
ATOM     17  C   UNL     1     -15.342 -48.750 -15.447  0.00  0.00    +0.005 A 
ATOM     18  C   UNL     1     -15.843 -49.928 -16.151  0.00  0.00    -0.033 A 
ATOM     28  C   UNL     1     -16.577 -50.942 -15.411  0.00  0.00    +0.005 A 
ATOM     29  C   UNL     1     -16.821 -50.811 -14.026  0.00  0.00    +0.013 A 
BRANCH  18  19
ATOM     19  C   UNL     1     -15.645 -50.147 -17.662  0.00  0.00    +0.119 C 
BRANCH  19  20
ATOM     20  N   UNL     1     -16.593 -51.074 -18.349  0.00  0.00    -0.302 NA
ATOM     21  C   UNL     1     -15.876 -52.281 -18.959  0.00  0.00    +0.066 C 
ATOM     22  C   UNL     1     -16.885 -53.252 -19.654  0.00  0.00    -0.064 C 
ATOM     23  N   UNL     1     -17.668 -52.489 -20.724  0.00  0.00    +0.379 N 
ATOM     24  C   UNL     1     -18.576 -53.413 -21.419  0.00  0.00    -0.096 C 
ATOM     25  H   UNL     1     -16.934 -52.110 -21.473  0.00  0.00    -0.082 HD
ATOM     26  C   UNL     1     -18.382 -51.286 -20.127  0.00  0.00    -0.064 C 
ATOM     27  C   UNL     1     -17.374 -50.342 -19.413  0.00  0.00    +0.066 C 
ENDBRANCH  19  20
ENDBRANCH  18  19
ENDBRANCH  14  15
ENDBRANCH  12  13
TORSDOF 6
ENDMDL
