MODEL 1
REMARK VINA RESULT:      -7.6      0.000      0.000
REMARK  Name = C:\Users\Docking\Desktop\test protocol\1iep_ligandH.pdb
REMARK  8 active torsions:
REMARK  status: ('A' for Active; 'I' for Inactive)
REMARK    1  A    between atoms: _5  and  _11
REMARK    2  A    between atoms: _19  and  _21
REMARK    3  A    between atoms: _22  and  _66
REMARK    4  A    between atoms: _27  and  _30
REMARK    5  A    between atoms: _32  and  _33
REMARK    6  A    between atoms: _38  and  _43
REMARK    7  A    between atoms: _43  and  _46
REMARK    8  A    between atoms: _53  and  _55
REMARK                            x       y       z     vdW  Elec       q    Type
REMARK                         _______ _______ _______ _____ _____    ______ ____
ROOT
ATOM     10  C   UNL     1      -9.049  16.257 -25.099  0.00  0.00    +0.038 A 
ATOM     11  C   UNL     1      -9.015  16.687 -23.747  0.00  0.00    +0.047 A 
ATOM     12  C   UNL     1      -9.585  15.873 -22.685  0.00  0.00    +0.035 A 
ATOM     32  C   UNL     1     -10.179  14.626 -23.034  0.00  0.00    +0.024 A 
ATOM     33  C   UNL     1     -10.223  14.174 -24.403  0.00  0.00    +0.007 A 
ATOM     34  C   UNL     1      -9.664  14.974 -25.455  0.00  0.00    -0.029 A 
ATOM     35  C   UNL     1      -9.745  14.443 -26.905  0.00  0.00    +0.045 C 
ENDROOT
BRANCH  10   9
ATOM      4  C   UNL     1      -9.219  20.014 -28.081  0.00  0.00    +0.077 A 
ATOM      5  C   UNL     1     -10.552  20.354 -27.672  0.00  0.00    +0.048 A 
ATOM      6  C   UNL     1     -11.160  19.532 -26.697  0.00  0.00    +0.116 A 
ATOM      7  N   UNL     1     -10.478  18.454 -26.176  0.00  0.00    -0.223 NA
ATOM      8  C   UNL     1      -9.194  18.153 -26.594  0.00  0.00    +0.220 A 
ATOM      9  N   UNL     1      -8.486  17.079 -26.078  0.00  0.00    -0.283 N 
ATOM     36  H   UNL     1      -7.544  16.886 -26.418  0.00  0.00    +0.155 HD
ATOM     37  N   UNL     1      -8.592  18.922 -27.525  0.00  0.00    -0.214 NA
BRANCH   4   3
ATOM      1  C   UNL     1      -7.399  22.911 -29.977  0.00  0.00    +0.020 A 
ATOM      2  C   UNL     1      -8.155  22.211 -28.965  0.00  0.00    +0.013 A 
ATOM      3  C   UNL     1      -8.441  20.788 -29.100  0.00  0.00    +0.019 A 
ATOM     38  C   UNL     1      -7.943  20.098 -30.280  0.00  0.00    +0.120 A 
ATOM     39  N   UNL     1      -7.219  20.799 -31.239  0.00  0.00    -0.263 NA
ATOM     40  C   UNL     1      -6.939  22.168 -31.121  0.00  0.00    +0.111 A 
ENDBRANCH   4   3
ENDBRANCH  10   9
BRANCH  12  13
ATOM     13  N   UNL     1      -9.588  16.261 -21.296  0.00  0.00    -0.281 N 
ATOM     14  C   UNL     1     -10.466  17.119 -20.653  0.00  0.00    +0.248 C 
ATOM     30  O   UNL     1     -11.257  17.854 -21.225  0.00  0.00    -0.270 OA
ATOM     31  H   UNL     1      -8.854  15.854 -20.716  0.00  0.00    +0.155 HD
BRANCH  14  15
ATOM     15  C   UNL     1     -10.452  17.180 -19.160  0.00  0.00    +0.037 A 
ATOM     16  C   UNL     1     -11.668  16.945 -18.378  0.00  0.00    +0.013 A 
ATOM     17  C   UNL     1     -11.631  17.027 -16.940  0.00  0.00    +0.005 A 
ATOM     18  C   UNL     1     -10.370  17.344 -16.273  0.00  0.00    -0.033 A 
ATOM     28  C   UNL     1      -9.177  17.568 -17.072  0.00  0.00    +0.005 A 
ATOM     29  C   UNL     1      -9.210  17.489 -18.483  0.00  0.00    +0.013 A 
BRANCH  18  19
ATOM     19  C   UNL     1     -10.243  17.473 -14.743  0.00  0.00    +0.119 C 
BRANCH  19  20
ATOM     20  N   UNL     1     -11.089  18.503 -14.071  0.00  0.00    -0.302 NA
ATOM     21  C   UNL     1     -10.460  19.897 -14.139  0.00  0.00    +0.066 C 
ATOM     22  C   UNL     1     -11.369  20.967 -13.450  0.00  0.00    -0.064 C 
ATOM     23  N   UNL     1     -11.623  20.557 -11.998  0.00  0.00    +0.379 N 
ATOM     24  C   UNL     1     -12.429  21.590 -11.331  0.00  0.00    -0.096 C 
ATOM     25  H   UNL     1     -10.636  20.513 -11.482  0.00  0.00    -0.082 HD
ATOM     26  C   UNL     1     -12.246  19.171 -11.921  0.00  0.00    -0.064 C 
ATOM     27  C   UNL     1     -11.349  18.121 -12.634  0.00  0.00    +0.066 C 
ENDBRANCH  19  20
ENDBRANCH  18  19
ENDBRANCH  14  15
ENDBRANCH  12  13
TORSDOF 6
ENDMDL
MODEL 2
REMARK VINA RESULT:      -7.4     18.432     21.683
REMARK  Name = C:\Users\Docking\Desktop\test protocol\1iep_ligandH.pdb
REMARK  8 active torsions:
REMARK  status: ('A' for Active; 'I' for Inactive)
REMARK    1  A    between atoms: _5  and  _11
REMARK    2  A    between atoms: _19  and  _21
REMARK    3  A    between atoms: _22  and  _66
REMARK    4  A    between atoms: _27  and  _30
REMARK    5  A    between atoms: _32  and  _33
REMARK    6  A    between atoms: _38  and  _43
REMARK    7  A    between atoms: _43  and  _46
REMARK    8  A    between atoms: _53  and  _55
REMARK                            x       y       z     vdW  Elec       q    Type
REMARK                         _______ _______ _______ _____ _____    ______ ____
ROOT
ATOM     10  C   UNL     1       9.069  23.394  -8.902  0.00  0.00    +0.038 A 
ATOM     11  C   UNL     1       7.821  23.220  -8.251  0.00  0.00    +0.047 A 
ATOM     12  C   UNL     1       7.686  23.421  -6.816  0.00  0.00    +0.035 A 
ATOM     32  C   UNL     1       8.843  23.800  -6.076  0.00  0.00    +0.024 A 
ATOM     33  C   UNL     1      10.120  23.980  -6.721  0.00  0.00    +0.007 A 
ATOM     34  C   UNL     1      10.259  23.782  -8.135  0.00  0.00    -0.029 A 
ATOM     35  C   UNL     1      11.654  23.982  -8.773  0.00  0.00    +0.045 C 
ENDROOT
BRANCH  10   9
ATOM      4  C   UNL     1       9.003  24.991 -13.428  0.00  0.00    +0.077 A 
ATOM      5  C   UNL     1       8.779  26.345 -13.009  0.00  0.00    +0.048 A 
ATOM      6  C   UNL     1       8.680  26.587 -11.621  0.00  0.00    +0.116 A 
ATOM      7  N   UNL     1       8.797  25.545 -10.726  0.00  0.00    -0.223 NA
ATOM      8  C   UNL     1       9.012  24.251 -11.164  0.00  0.00    +0.220 A 
ATOM      9  N   UNL     1       9.141  23.189 -10.282  0.00  0.00    -0.283 N 
ATOM     36  H   UNL     1       9.291  22.248 -10.644  0.00  0.00    +0.155 HD
ATOM     37  N   UNL     1       9.109  23.993 -12.484  0.00  0.00    -0.214 NA
BRANCH   4   3
ATOM      1  C   UNL     1       8.744  22.973 -16.769  0.00  0.00    +0.020 A 
ATOM      2  C   UNL     1       8.590  23.326 -15.376  0.00  0.00    +0.013 A 
ATOM      3  C   UNL     1       9.134  24.576 -14.860  0.00  0.00    +0.019 A 
ATOM     38  C   UNL     1       9.832  25.454 -15.787  0.00  0.00    +0.120 A 
ATOM     39  N   UNL     1       9.966  25.087 -17.123  0.00  0.00    -0.263 NA
ATOM     40  C   UNL     1       9.448  23.886 -17.630  0.00  0.00    +0.111 A 
ENDBRANCH   4   3
ENDBRANCH  10   9
BRANCH  12  13
ATOM     13  N   UNL     1       6.447  23.251  -6.099  0.00  0.00    -0.281 N 
ATOM     14  C   UNL     1       5.291  24.007  -6.206  0.00  0.00    +0.248 C 
ATOM     30  O   UNL     1       5.218  25.081  -6.784  0.00  0.00    -0.270 OA
ATOM     31  H   UNL     1       6.418  22.480  -5.432  0.00  0.00    +0.155 HD
BRANCH  14  15
ATOM     15  C   UNL     1       4.037  23.503  -5.567  0.00  0.00    +0.037 A 
ATOM     16  C   UNL     1       4.081  22.621  -4.398  0.00  0.00    +0.013 A 
ATOM     17  C   UNL     1       2.857  22.136  -3.812  0.00  0.00    +0.005 A 
ATOM     18  C   UNL     1       1.577  22.533  -4.394  0.00  0.00    -0.033 A 
ATOM     28  C   UNL     1       1.562  23.413  -5.550  0.00  0.00    +0.005 A 
ATOM     29  C   UNL     1       2.760  23.890  -6.129  0.00  0.00    +0.013 A 
BRANCH  18  19
ATOM     19  C   UNL     1       0.222  22.046  -3.846  0.00  0.00    +0.119 C 
BRANCH  19  20
ATOM     20  N   UNL     1      -0.477  20.970  -4.610  0.00  0.00    -0.302 NA
ATOM     21  C   UNL     1      -0.352  21.166  -6.124  0.00  0.00    +0.066 C 
ATOM     22  C   UNL     1      -1.070  20.019  -6.907  0.00  0.00    -0.064 C 
ATOM     23  N   UNL     1      -2.540  19.962  -6.488  0.00  0.00    +0.379 N 
ATOM     24  C   UNL     1      -3.231  18.923  -7.266  0.00  0.00    -0.096 C 
ATOM     25  H   UNL     1      -3.003  20.943  -6.747  0.00  0.00    -0.082 HD
ATOM     26  C   UNL     1      -2.673  19.770  -4.984  0.00  0.00    -0.064 C 
ATOM     27  C   UNL     1      -1.931  20.899  -4.215  0.00  0.00    +0.066 C 
ENDBRANCH  19  20
ENDBRANCH  18  19
ENDBRANCH  14  15
ENDBRANCH  12  13
TORSDOF 6
ENDMDL
MODEL 3
REMARK VINA RESULT:      -7.3      1.838      2.311
REMARK  Name = C:\Users\Docking\Desktop\test protocol\1iep_ligandH.pdb
REMARK  8 active torsions:
REMARK  status: ('A' for Active; 'I' for Inactive)
REMARK    1  A    between atoms: _5  and  _11
REMARK    2  A    between atoms: _19  and  _21
REMARK    3  A    between atoms: _22  and  _66
REMARK    4  A    between atoms: _27  and  _30
REMARK    5  A    between atoms: _32  and  _33
REMARK    6  A    between atoms: _38  and  _43
REMARK    7  A    between atoms: _43  and  _46
REMARK    8  A    between atoms: _53  and  _55
REMARK                            x       y       z     vdW  Elec       q    Type
REMARK                         _______ _______ _______ _____ _____    ______ ____
ROOT
ATOM     10  C   UNL     1     -10.629  17.185 -25.115  0.00  0.00    +0.038 A 
ATOM     11  C   UNL     1     -10.727  17.330 -23.707  0.00  0.00    +0.047 A 
ATOM     12  C   UNL     1     -10.468  16.210 -22.816  0.00  0.00    +0.035 A 
ATOM     32  C   UNL     1     -10.108  14.957 -23.392  0.00  0.00    +0.024 A 
ATOM     33  C   UNL     1     -10.004  14.792 -24.820  0.00  0.00    +0.007 A 
ATOM     34  C   UNL     1     -10.261  15.892 -25.705  0.00  0.00    -0.029 A 
ATOM     35  C   UNL     1     -10.141  15.656 -27.229  0.00  0.00    +0.045 C 
ENDROOT
BRANCH  10   9
ATOM      4  C   UNL     1      -9.283  21.248 -27.287  0.00  0.00    +0.077 A 
ATOM      5  C   UNL     1      -7.958  21.170 -26.742  0.00  0.00    +0.048 A 
ATOM      6  C   UNL     1      -7.666  20.072 -25.902  0.00  0.00    +0.116 A 
ATOM      7  N   UNL     1      -8.633  19.129 -25.634  0.00  0.00    -0.223 NA
ATOM      8  C   UNL     1      -9.902  19.235 -26.174  0.00  0.00    +0.220 A 
ATOM      9  N   UNL     1     -10.888  18.293 -25.924  0.00  0.00    -0.283 N 
ATOM     36  H   UNL     1     -11.814  18.411 -26.336  0.00  0.00    +0.155 HD
ATOM     37  N   UNL     1     -10.206  20.274 -26.978  0.00  0.00    -0.214 NA
BRANCH   4   3
ATOM      1  C   UNL     1     -11.468  23.996 -29.012  0.00  0.00    +0.020 A 
ATOM      2  C   UNL     1     -11.073  22.937 -28.112  0.00  0.00    +0.013 A 
ATOM      3  C   UNL     1      -9.743  22.346 -28.195  0.00  0.00    +0.019 A 
ATOM     38  C   UNL     1      -8.830  22.854 -29.207  0.00  0.00    +0.120 A 
ATOM     39  N   UNL     1      -9.238  23.873 -30.061  0.00  0.00    -0.263 NA
ATOM     40  C   UNL     1     -10.516  24.448 -29.992  0.00  0.00    +0.111 A 
ENDBRANCH   4   3
ENDBRANCH  10   9
BRANCH  12  13
ATOM     13  N   UNL     1     -10.561  16.295 -21.379  0.00  0.00    -0.281 N 
ATOM     14  C   UNL     1      -9.528  16.430 -20.466  0.00  0.00    +0.248 C 
ATOM     30  O   UNL     1      -8.345  16.283 -20.734  0.00  0.00    -0.270 OA
ATOM     31  H   UNL     1     -11.502  16.251 -20.988  0.00  0.00    +0.155 HD
BRANCH  14  15
ATOM     15  C   UNL     1      -9.858  16.763 -19.047  0.00  0.00    +0.037 A 
ATOM     16  C   UNL     1      -8.890  17.438 -18.179  0.00  0.00    +0.013 A 
ATOM     17  C   UNL     1      -9.227  17.731 -16.809  0.00  0.00    +0.005 A 
ATOM     18  C   UNL     1     -10.542  17.351 -16.298  0.00  0.00    -0.033 A 
ATOM     28  C   UNL     1     -11.486  16.688 -17.182  0.00  0.00    +0.005 A 
ATOM     29  C   UNL     1     -11.158  16.397 -18.525  0.00  0.00    +0.013 A 
BRANCH  18  19
ATOM     19  C   UNL     1     -10.981  17.606 -14.844  0.00  0.00    +0.119 C 
BRANCH  19  20
ATOM     20  N   UNL     1     -11.472  18.976 -14.508  0.00  0.00    -0.302 NA
ATOM     21  C   UNL     1     -11.133  19.371 -13.068  0.00  0.00    +0.066 C 
ATOM     22  C   UNL     1     -11.634  20.815 -12.741  0.00  0.00    -0.064 C 
ATOM     23  N   UNL     1     -13.142  20.896 -12.984  0.00  0.00    +0.379 N 
ATOM     24  C   UNL     1     -13.626  22.236 -12.621  0.00  0.00    -0.096 C 
ATOM     25  H   UNL     1     -13.634  20.163 -12.303  0.00  0.00    -0.082 HD
ATOM     26  C   UNL     1     -13.488  20.502 -14.413  0.00  0.00    -0.064 C 
ATOM     27  C   UNL     1     -12.960  19.077 -14.737  0.00  0.00    +0.066 C 
ENDBRANCH  19  20
ENDBRANCH  18  19
ENDBRANCH  14  15
ENDBRANCH  12  13
TORSDOF 6
ENDMDL
MODEL 4
REMARK VINA RESULT:      -7.3      9.033     14.520
REMARK  Name = C:\Users\Docking\Desktop\test protocol\1iep_ligandH.pdb
REMARK  8 active torsions:
REMARK  status: ('A' for Active; 'I' for Inactive)
REMARK    1  A    between atoms: _5  and  _11
REMARK    2  A    between atoms: _19  and  _21
REMARK    3  A    between atoms: _22  and  _66
REMARK    4  A    between atoms: _27  and  _30
REMARK    5  A    between atoms: _32  and  _33
REMARK    6  A    between atoms: _38  and  _43
REMARK    7  A    between atoms: _43  and  _46
REMARK    8  A    between atoms: _53  and  _55
REMARK                            x       y       z     vdW  Elec       q    Type
REMARK                         _______ _______ _______ _____ _____    ______ ____
ROOT
ATOM     10  C   UNL     1     -10.615   5.740 -21.429  0.00  0.00    +0.038 A 
ATOM     11  C   UNL     1     -10.492   7.153 -21.473  0.00  0.00    +0.047 A 
ATOM     12  C   UNL     1     -11.358   7.958 -22.318  0.00  0.00    +0.035 A 
ATOM     32  C   UNL     1     -12.343   7.293 -23.105  0.00  0.00    +0.024 A 
ATOM     33  C   UNL     1     -12.482   5.858 -23.074  0.00  0.00    +0.007 A 
ATOM     34  C   UNL     1     -11.628   5.058 -22.244  0.00  0.00    -0.029 A 
ATOM     35  C   UNL     1     -11.817   3.523 -22.256  0.00  0.00    +0.045 C 
ENDROOT
BRANCH  10   9
ATOM      4  C   UNL     1      -9.553   3.618 -17.258  0.00  0.00    +0.077 A 
ATOM      5  C   UNL     1     -10.803   4.008 -16.673  0.00  0.00    +0.048 A 
ATOM      6  C   UNL     1     -11.689   4.760 -17.477  0.00  0.00    +0.116 A 
ATOM      7  N   UNL     1     -11.339   5.091 -18.768  0.00  0.00    -0.223 NA
ATOM      8  C   UNL     1     -10.125   4.701 -19.301  0.00  0.00    +0.220 A 
ATOM      9  N   UNL     1      -9.756   5.016 -20.600  0.00  0.00    -0.283 N 
ATOM     36  H   UNL     1      -8.848   4.715 -20.953  0.00  0.00    +0.155 HD
ATOM     37  N   UNL     1      -9.261   3.983 -18.553  0.00  0.00    -0.214 NA
BRANCH   4   3
ATOM      1  C   UNL     1      -7.620   1.635 -14.495  0.00  0.00    +0.020 A 
ATOM      2  C   UNL     1      -8.653   2.408 -15.145  0.00  0.00    +0.013 A 
ATOM      3  C   UNL     1      -8.513   2.818 -16.536  0.00  0.00    +0.019 A 
ATOM     38  C   UNL     1      -7.306   2.426 -17.248  0.00  0.00    +0.120 A 
ATOM     39  N   UNL     1      -6.327   1.683 -16.595  0.00  0.00    -0.263 NA
ATOM     40  C   UNL     1      -6.450   1.284 -15.256  0.00  0.00    +0.111 A 
ENDBRANCH   4   3
ENDBRANCH  10   9
BRANCH  12  13
ATOM     13  N   UNL     1     -11.274   9.395 -22.409  0.00  0.00    -0.281 N 
ATOM     14  C   UNL     1     -11.488  10.326 -21.406  0.00  0.00    +0.248 C 
ATOM     30  O   UNL     1     -11.996  10.071 -20.324  0.00  0.00    -0.270 OA
ATOM     31  H   UNL     1     -11.027   9.771 -23.325  0.00  0.00    +0.155 HD
BRANCH  14  15
ATOM     15  C   UNL     1     -11.094  11.748 -21.644  0.00  0.00    +0.037 A 
ATOM     16  C   UNL     1     -10.905  12.267 -23.002  0.00  0.00    +0.013 A 
ATOM     17  C   UNL     1     -10.508  13.638 -23.203  0.00  0.00    +0.005 A 
ATOM     18  C   UNL     1     -10.299  14.500 -22.043  0.00  0.00    -0.033 A 
ATOM     28  C   UNL     1     -10.498  13.961 -20.708  0.00  0.00    +0.005 A 
ATOM     29  C   UNL     1     -10.886  12.618 -20.506  0.00  0.00    +0.013 A 
BRANCH  18  19
ATOM     19  C   UNL     1      -9.854  15.970 -22.163  0.00  0.00    +0.119 C 
BRANCH  19  20
ATOM     20  N   UNL     1      -9.658  16.515 -23.539  0.00  0.00    -0.302 NA
ATOM     21  C   UNL     1      -8.176  16.682 -23.885  0.00  0.00    +0.066 C 
ATOM     22  C   UNL     1      -7.988  17.231 -25.337  0.00  0.00    -0.064 C 
ATOM     23  N   UNL     1      -8.730  18.562 -25.475  0.00  0.00    +0.379 N 
ATOM     24  C   UNL     1      -8.508  19.110 -26.821  0.00  0.00    -0.096 C 
ATOM     25  H   UNL     1      -8.285  19.274 -24.742  0.00  0.00    -0.082 HD
ATOM     26  C   UNL     1     -10.204  18.406 -25.130  0.00  0.00    -0.064 C 
ATOM     27  C   UNL     1     -10.379  17.831 -23.696  0.00  0.00    +0.066 C 
ENDBRANCH  19  20
ENDBRANCH  18  19
ENDBRANCH  14  15
ENDBRANCH  12  13
TORSDOF 6
ENDMDL
MODEL 5
REMARK VINA RESULT:      -7.2     18.552     20.809
REMARK  Name = C:\Users\Docking\Desktop\test protocol\1iep_ligandH.pdb
REMARK  8 active torsions:
REMARK  status: ('A' for Active; 'I' for Inactive)
REMARK    1  A    between atoms: _5  and  _11
REMARK    2  A    between atoms: _19  and  _21
REMARK    3  A    between atoms: _22  and  _66
REMARK    4  A    between atoms: _27  and  _30
REMARK    5  A    between atoms: _32  and  _33
REMARK    6  A    between atoms: _38  and  _43
REMARK    7  A    between atoms: _43  and  _46
REMARK    8  A    between atoms: _53  and  _55
REMARK                            x       y       z     vdW  Elec       q    Type
REMARK                         _______ _______ _______ _____ _____    ______ ____
ROOT
ATOM     10  C   UNL     1       8.961  25.358 -12.293  0.00  0.00    +0.038 A 
ATOM     11  C   UNL     1       7.922  25.034 -11.384  0.00  0.00    +0.047 A 
ATOM     12  C   UNL     1       8.213  24.447 -10.086  0.00  0.00    +0.035 A 
ATOM     32  C   UNL     1       9.576  24.207  -9.744  0.00  0.00    +0.024 A 
ATOM     33  C   UNL     1      10.645  24.530 -10.656  0.00  0.00    +0.007 A 
ATOM     34  C   UNL     1      10.363  25.106 -11.939  0.00  0.00    -0.029 A 
ATOM     35  C   UNL     1      11.549  25.426 -12.879  0.00  0.00    +0.045 C 
ENDROOT
BRANCH  10   9
ATOM      4  C   UNL     1       8.066  25.016 -16.996  0.00  0.00    +0.077 A 
ATOM      5  C   UNL     1       8.317  23.604 -17.001  0.00  0.00    +0.048 A 
ATOM      6  C   UNL     1       8.681  23.005 -15.774  0.00  0.00    +0.116 A 
ATOM      7  N   UNL     1       8.783  23.771 -14.634  0.00  0.00    -0.223 NA
ATOM      8  C   UNL     1       8.535  25.131 -14.664  0.00  0.00    +0.220 A 
ATOM      9  N   UNL     1       8.624  25.920 -13.527  0.00  0.00    -0.283 N 
ATOM     36  H   UNL     1       8.441  26.921 -13.592  0.00  0.00    +0.155 HD
ATOM     37  N   UNL     1       8.187  25.727 -15.823  0.00  0.00    -0.214 NA
BRANCH   4   3
ATOM      1  C   UNL     1       8.084  26.663 -20.544  0.00  0.00    +0.020 A 
ATOM      2  C   UNL     1       8.514  25.901 -19.395  0.00  0.00    +0.013 A 
ATOM      3  C   UNL     1       7.668  25.793 -18.213  0.00  0.00    +0.019 A 
ATOM     38  C   UNL     1       6.382  26.472 -18.227  0.00  0.00    +0.120 A 
ATOM     39  N   UNL     1       5.994  27.200 -19.347  0.00  0.00    -0.263 NA
ATOM     40  C   UNL     1       6.800  27.313 -20.490  0.00  0.00    +0.111 A 
ENDBRANCH   4   3
ENDBRANCH  10   9
BRANCH  12  13
ATOM     13  N   UNL     1       7.199  24.090  -9.125  0.00  0.00    -0.281 N 
ATOM     14  C   UNL     1       7.373  23.710  -7.804  0.00  0.00    +0.248 C 
ATOM     30  O   UNL     1       8.449  23.413  -7.307  0.00  0.00    -0.270 OA
ATOM     31  H   UNL     1       6.236  24.120  -9.459  0.00  0.00    +0.155 HD
BRANCH  14  15
ATOM     15  C   UNL     1       6.178  23.636  -6.910  0.00  0.00    +0.037 A 
ATOM     16  C   UNL     1       6.129  22.704  -5.782  0.00  0.00    +0.013 A 
ATOM     17  C   UNL     1       4.957  22.640  -4.945  0.00  0.00    +0.005 A 
ATOM     18  C   UNL     1       3.823  23.515  -5.235  0.00  0.00    -0.033 A 
ATOM     28  C   UNL     1       3.900  24.435  -6.358  0.00  0.00    +0.005 A 
ATOM     29  C   UNL     1       5.047  24.498  -7.180  0.00  0.00    +0.013 A 
BRANCH  18  19
ATOM     19  C   UNL     1       2.523  23.500  -4.409  0.00  0.00    +0.119 C 
BRANCH  19  20
ATOM     20  N   UNL     1       1.597  22.347  -4.612  0.00  0.00    -0.302 NA
ATOM     21  C   UNL     1       0.808  22.467  -5.919  0.00  0.00    +0.066 C 
ATOM     22  C   UNL     1      -0.140  21.241  -6.127  0.00  0.00    -0.064 C 
ATOM     23  N   UNL     1      -1.087  21.124  -4.932  0.00  0.00    +0.379 N 
ATOM     24  C   UNL     1      -2.018  20.007  -5.151  0.00  0.00    -0.096 C 
ATOM     25  H   UNL     1      -1.688  22.062  -4.884  0.00  0.00    -0.082 HD
ATOM     26  C   UNL     1      -0.311  21.007  -3.627  0.00  0.00    -0.064 C 
ATOM     27  C   UNL     1       0.649  22.216  -3.445  0.00  0.00    +0.066 C 
ENDBRANCH  19  20
ENDBRANCH  18  19
ENDBRANCH  14  15
ENDBRANCH  12  13
TORSDOF 6
ENDMDL
