MODEL 1
REMARK VINA RESULT:     -12.9      0.000      0.000
REMARK  Name = C:\Users\Docking\Desktop\test protocol\1iep_ligandH.pdb
REMARK  8 active torsions:
REMARK  status: ('A' for Active; 'I' for Inactive)
REMARK    1  A    between atoms: _5  and  _11
REMARK    2  A    between atoms: _19  and  _21
REMARK    3  A    between atoms: _22  and  _66
REMARK    4  A    between atoms: _27  and  _30
REMARK    5  A    between atoms: _32  and  _33
REMARK    6  A    between atoms: _38  and  _43
REMARK    7  A    between atoms: _43  and  _46
REMARK    8  A    between atoms: _53  and  _55
REMARK                            x       y       z     vdW  Elec       q    Type
REMARK                         _______ _______ _______ _____ _____    ______ ____
ROOT
ATOM     10  C   UNL     1      13.135   8.196  18.168  0.00  0.00    +0.038 A 
ATOM     11  C   UNL     1      14.333   8.791  18.641  0.00  0.00    +0.047 A 
ATOM     12  C   UNL     1      15.330   9.312  17.719  0.00  0.00    +0.035 A 
ATOM     32  C   UNL     1      15.073   9.213  16.320  0.00  0.00    +0.024 A 
ATOM     33  C   UNL     1      13.861   8.611  15.822  0.00  0.00    +0.007 A 
ATOM     34  C   UNL     1      12.875   8.093  16.727  0.00  0.00    -0.029 A 
ATOM     35  C   UNL     1      11.598   7.452  16.137  0.00  0.00    +0.045 C 
ENDROOT
BRANCH  10   9
ATOM      4  C   UNL     1       9.224   8.699  20.905  0.00  0.00    +0.077 A 
ATOM      5  C   UNL     1       9.017  10.049  20.465  0.00  0.00    +0.048 A 
ATOM      6  C   UNL     1       9.944  10.579  19.539  0.00  0.00    +0.116 A 
ATOM      7  N   UNL     1      10.995   9.807  19.093  0.00  0.00    -0.223 NA
ATOM      8  C   UNL     1      11.167   8.509  19.539  0.00  0.00    +0.220 A 
ATOM      9  N   UNL     1      12.212   7.713  19.099  0.00  0.00    -0.283 N 
ATOM     36  H   UNL     1      12.308   6.763  19.457  0.00  0.00    +0.155 HD
ATOM     37  N   UNL     1      10.296   7.981  20.425  0.00  0.00    -0.214 NA
BRANCH   4   3
ATOM      1  C   UNL     1       6.324   7.906  23.407  0.00  0.00    +0.020 A 
ATOM      2  C   UNL     1       7.156   8.627  22.472  0.00  0.00    +0.013 A 
ATOM      3  C   UNL     1       8.329   7.998  21.879  0.00  0.00    +0.019 A 
ATOM     38  C   UNL     1       8.634   6.626  22.255  0.00  0.00    +0.120 A 
ATOM     39  N   UNL     1       7.816   5.956  23.159  0.00  0.00    -0.263 NA
ATOM     40  C   UNL     1       6.685   6.552  23.738  0.00  0.00    +0.111 A 
ENDBRANCH   4   3
ENDBRANCH  10   9
BRANCH  12  13
ATOM     13  N   UNL     1      16.568   9.918  18.141  0.00  0.00    -0.281 N 
ATOM     14  C   UNL     1      17.240   9.738  19.339  0.00  0.00    +0.248 C 
ATOM     30  O   UNL     1      16.765   9.189  20.322  0.00  0.00    -0.270 OA
ATOM     31  H   UNL     1      17.002  10.558  17.475  0.00  0.00    +0.155 HD
BRANCH  14  15
ATOM     15  C   UNL     1      18.636  10.256  19.469  0.00  0.00    +0.037 A 
ATOM     16  C   UNL     1      19.251  11.057  18.407  0.00  0.00    +0.013 A 
ATOM     17  C   UNL     1      20.605  11.530  18.550  0.00  0.00    +0.005 A 
ATOM     18  C   UNL     1      21.353  11.204  19.762  0.00  0.00    -0.033 A 
ATOM     28  C   UNL     1      20.716  10.413  20.802  0.00  0.00    +0.005 A 
ATOM     29  C   UNL     1      19.390   9.947  20.665  0.00  0.00    +0.013 A 
BRANCH  18  19
ATOM     19  C   UNL     1      22.810  11.648  19.991  0.00  0.00    +0.119 C 
BRANCH  19  20
ATOM     20  N   UNL     1      23.309  12.798  19.179  0.00  0.00    -0.302 NA
ATOM     21  C   UNL     1      24.832  12.771  19.021  0.00  0.00    +0.066 C 
ATOM     22  C   UNL     1      25.336  13.968  18.150  0.00  0.00    -0.064 C 
ATOM     23  N   UNL     1      24.880  15.283  18.784  0.00  0.00    +0.379 N 
ATOM     24  C   UNL     1      25.401  16.412  18.000  0.00  0.00    -0.096 C 
ATOM     25  H   UNL     1      25.331  15.342  19.802  0.00  0.00    -0.082 HD
ATOM     26  C   UNL     1      23.367  15.317  18.948  0.00  0.00    -0.064 C 
ATOM     27  C   UNL     1      22.875  14.108  19.790  0.00  0.00    +0.066 C 
ENDBRANCH  19  20
ENDBRANCH  18  19
ENDBRANCH  14  15
ENDBRANCH  12  13
TORSDOF 6
ENDMDL
MODEL 2
REMARK VINA RESULT:     -11.6      6.515     13.122
REMARK  Name = C:\Users\Docking\Desktop\test protocol\1iep_ligandH.pdb
REMARK  8 active torsions:
REMARK  status: ('A' for Active; 'I' for Inactive)
REMARK    1  A    between atoms: _5  and  _11
REMARK    2  A    between atoms: _19  and  _21
REMARK    3  A    between atoms: _22  and  _66
REMARK    4  A    between atoms: _27  and  _30
REMARK    5  A    between atoms: _32  and  _33
REMARK    6  A    between atoms: _38  and  _43
REMARK    7  A    between atoms: _43  and  _46
REMARK    8  A    between atoms: _53  and  _55
REMARK                            x       y       z     vdW  Elec       q    Type
REMARK                         _______ _______ _______ _____ _____    ______ ____
ROOT
ATOM     10  C   UNL     1       2.079   6.307  26.492  0.00  0.00    +0.038 A 
ATOM     11  C   UNL     1       3.298   6.460  25.785  0.00  0.00    +0.047 A 
ATOM     12  C   UNL     1       3.311   6.691  24.348  0.00  0.00    +0.035 A 
ATOM     32  C   UNL     1       2.062   6.763  23.665  0.00  0.00    +0.024 A 
ATOM     33  C   UNL     1       0.813   6.608  24.368  0.00  0.00    +0.007 A 
ATOM     34  C   UNL     1       0.795   6.378  25.785  0.00  0.00    -0.029 A 
ATOM     35  C   UNL     1      -0.573   6.213  26.486  0.00  0.00    +0.045 C 
ENDROOT
BRANCH  10   9
ATOM      4  C   UNL     1       2.573   7.851  31.010  0.00  0.00    +0.077 A 
ATOM      5  C   UNL     1       2.783   9.206  30.587  0.00  0.00    +0.048 A 
ATOM      6  C   UNL     1       2.763   9.462  29.197  0.00  0.00    +0.116 A 
ATOM      7  N   UNL     1       2.548   8.432  28.307  0.00  0.00    -0.223 NA
ATOM      8  C   UNL     1       2.351   7.137  28.748  0.00  0.00    +0.220 A 
ATOM      9  N   UNL     1       2.125   6.087  27.871  0.00  0.00    -0.283 N 
ATOM     36  H   UNL     1       1.992   5.145  28.236  0.00  0.00    +0.155 HD
ATOM     37  N   UNL     1       2.367   6.866  30.070  0.00  0.00    -0.214 NA
BRANCH   4   3
ATOM      1  C   UNL     1       2.274   5.695  34.260  0.00  0.00    +0.020 A 
ATOM      2  C   UNL     1       2.271   6.057  32.861  0.00  0.00    +0.013 A 
ATOM      3  C   UNL     1       2.562   7.423  32.444  0.00  0.00    +0.019 A 
ATOM     38  C   UNL     1       2.855   8.406  33.476  0.00  0.00    +0.120 A 
ATOM     39  N   UNL     1       2.849   8.029  34.815  0.00  0.00    -0.263 NA
ATOM     40  C   UNL     1       2.569   6.717  35.228  0.00  0.00    +0.111 A 
ENDBRANCH   4   3
ENDBRANCH  10   9
BRANCH  12  13
ATOM     13  N   UNL     1       4.518   6.846  23.575  0.00  0.00    -0.281 N 
ATOM     14  C   UNL     1       5.488   7.827  23.698  0.00  0.00    +0.248 C 
ATOM     30  O   UNL     1       5.358   8.849  24.355  0.00  0.00    -0.270 OA
ATOM     31  H   UNL     1       4.676   6.147  22.849  0.00  0.00    +0.155 HD
BRANCH  14  15
ATOM     15  C   UNL     1       6.785   7.654  22.976  0.00  0.00    +0.037 A 
ATOM     16  C   UNL     1       7.536   8.809  22.476  0.00  0.00    +0.013 A 
ATOM     17  C   UNL     1       8.776   8.613  21.767  0.00  0.00    +0.005 A 
ATOM     18  C   UNL     1       9.274   7.256  21.556  0.00  0.00    -0.033 A 
ATOM     28  C   UNL     1       8.512   6.129  22.067  0.00  0.00    +0.005 A 
ATOM     29  C   UNL     1       7.295   6.317  22.761  0.00  0.00    +0.013 A 
BRANCH  18  19
ATOM     19  C   UNL     1      10.577   6.953  20.793  0.00  0.00    +0.119 C 
BRANCH  19  20
ATOM     20  N   UNL     1      11.315   8.113  20.212  0.00  0.00    -0.302 NA
ATOM     21  C   UNL     1      10.858   8.429  18.785  0.00  0.00    +0.066 C 
ATOM     22  C   UNL     1      11.624   9.660  18.201  0.00  0.00    -0.064 C 
ATOM     23  N   UNL     1      13.129   9.386  18.239  0.00  0.00    +0.379 N 
ATOM     24  C   UNL     1      13.849  10.517  17.637  0.00  0.00    -0.096 C 
ATOM     25  H   UNL     1      13.324   8.486  17.610  0.00  0.00    -0.082 HD
ATOM     26  C   UNL     1      13.592   9.068  19.654  0.00  0.00    -0.064 C 
ATOM     27  C   UNL     1      12.803   7.862  20.236  0.00  0.00    +0.066 C 
ENDBRANCH  19  20
ENDBRANCH  18  19
ENDBRANCH  14  15
ENDBRANCH  12  13
TORSDOF 6
ENDMDL
MODEL 3
REMARK VINA RESULT:     -10.3      1.977     13.670
REMARK  Name = C:\Users\Docking\Desktop\test protocol\1iep_ligandH.pdb
REMARK  8 active torsions:
REMARK  status: ('A' for Active; 'I' for Inactive)
REMARK    1  A    between atoms: _5  and  _11
REMARK    2  A    between atoms: _19  and  _21
REMARK    3  A    between atoms: _22  and  _66
REMARK    4  A    between atoms: _27  and  _30
REMARK    5  A    between atoms: _32  and  _33
REMARK    6  A    between atoms: _38  and  _43
REMARK    7  A    between atoms: _43  and  _46
REMARK    8  A    between atoms: _53  and  _55
REMARK                            x       y       z     vdW  Elec       q    Type
REMARK                         _______ _______ _______ _____ _____    ______ ____
ROOT
ATOM     10  C   UNL     1      20.295  10.550  18.997  0.00  0.00    +0.038 A 
ATOM     11  C   UNL     1      18.880  10.559  18.899  0.00  0.00    +0.047 A 
ATOM     12  C   UNL     1      18.051   9.952  19.929  0.00  0.00    +0.035 A 
ATOM     32  C   UNL     1      18.696   9.345  21.045  0.00  0.00    +0.024 A 
ATOM     33  C   UNL     1      20.133   9.326  21.160  0.00  0.00    +0.007 A 
ATOM     34  C   UNL     1      20.956   9.922  20.146  0.00  0.00    -0.029 A 
ATOM     35  C   UNL     1      22.492   9.866  20.318  0.00  0.00    +0.045 C 
ENDROOT
BRANCH  10   9
ATOM      4  C   UNL     1      23.201  13.994  17.345  0.00  0.00    +0.077 A 
ATOM      5  C   UNL     1      23.211  14.673  18.608  0.00  0.00    +0.048 A 
ATOM      6  C   UNL     1      22.449  14.108  19.655  0.00  0.00    +0.116 A 
ATOM      7  N   UNL     1      21.735  12.949  19.444  0.00  0.00    -0.223 NA
ATOM      8  C   UNL     1      21.746  12.319  18.212  0.00  0.00    +0.220 A 
ATOM      9  N   UNL     1      21.042  11.148  17.979  0.00  0.00    -0.283 N 
ATOM     36  H   UNL     1      21.069  10.719  17.055  0.00  0.00    +0.155 HD
ATOM     37  N   UNL     1      22.465  12.840  17.196  0.00  0.00    -0.214 NA
BRANCH   4   3
ATOM      1  C   UNL     1      24.110  15.131  13.715  0.00  0.00    +0.020 A 
ATOM      2  C   UNL     1      23.333  14.674  14.843  0.00  0.00    +0.013 A 
ATOM      3  C   UNL     1      23.959  14.466  16.143  0.00  0.00    +0.019 A 
ATOM     38  C   UNL     1      25.384  14.732  16.268  0.00  0.00    +0.120 A 
ATOM     39  N   UNL     1      26.107  15.170  15.163  0.00  0.00    -0.263 NA
ATOM     40  C   UNL     1      25.516  15.373  13.907  0.00  0.00    +0.111 A 
ENDBRANCH   4   3
ENDBRANCH  10   9
BRANCH  12  13
ATOM     13  N   UNL     1      16.610   9.923  19.880  0.00  0.00    -0.281 N 
ATOM     14  C   UNL     1      15.801   9.565  18.814  0.00  0.00    +0.248 C 
ATOM     30  O   UNL     1      16.194   9.419  17.666  0.00  0.00    -0.270 OA
ATOM     31  H   UNL     1      16.128  10.200  20.735  0.00  0.00    +0.155 HD
BRANCH  14  15
ATOM     15  C   UNL     1      14.341   9.353  19.055  0.00  0.00    +0.037 A 
ATOM     16  C   UNL     1      13.868   8.426  20.086  0.00  0.00    +0.013 A 
ATOM     17  C   UNL     1      12.454   8.227  20.286  0.00  0.00    +0.005 A 
ATOM     18  C   UNL     1      11.503   8.960  19.453  0.00  0.00    -0.033 A 
ATOM     28  C   UNL     1      12.000   9.878  18.442  0.00  0.00    +0.005 A 
ATOM     29  C   UNL     1      13.385  10.074  18.242  0.00  0.00    +0.013 A 
BRANCH  18  19
ATOM     19  C   UNL     1       9.977   8.794  19.583  0.00  0.00    +0.119 C 
BRANCH  19  20
ATOM     20  N   UNL     1       9.443   8.408  20.923  0.00  0.00    -0.302 NA
ATOM     21  C   UNL     1       9.282   6.892  21.063  0.00  0.00    +0.066 C 
ATOM     22  C   UNL     1       8.743   6.505  22.478  0.00  0.00    -0.064 C 
ATOM     23  N   UNL     1       7.412   7.216  22.727  0.00  0.00    +0.379 N 
ATOM     24  C   UNL     1       6.874   6.809  24.033  0.00  0.00    -0.096 C 
ATOM     25  H   UNL     1       6.695   6.874  21.944  0.00  0.00    -0.082 HD
ATOM     26  C   UNL     1       7.562   8.724  22.587  0.00  0.00    -0.064 C 
ATOM     27  C   UNL     1       8.126   9.096  21.187  0.00  0.00    +0.066 C 
ENDBRANCH  19  20
ENDBRANCH  18  19
ENDBRANCH  14  15
ENDBRANCH  12  13
TORSDOF 6
ENDMDL
