MODEL 1
REMARK VINA RESULT:      -7.5      0.000      0.000
REMARK  Name = C:\Users\Docking\Desktop\test protocol\1iep_ligandH.pdb
REMARK  8 active torsions:
REMARK  status: ('A' for Active; 'I' for Inactive)
REMARK    1  A    between atoms: _5  and  _11
REMARK    2  A    between atoms: _19  and  _21
REMARK    3  A    between atoms: _22  and  _66
REMARK    4  A    between atoms: _27  and  _30
REMARK    5  A    between atoms: _32  and  _33
REMARK    6  A    between atoms: _38  and  _43
REMARK    7  A    between atoms: _43  and  _46
REMARK    8  A    between atoms: _53  and  _55
REMARK                            x       y       z     vdW  Elec       q    Type
REMARK                         _______ _______ _______ _____ _____    ______ ____
ROOT
ATOM     10  C   UNL     1      12.518  16.564  34.368  0.00  0.00    +0.038 A 
ATOM     11  C   UNL     1      11.314  17.156  33.908  0.00  0.00    +0.047 A 
ATOM     12  C   UNL     1      10.077  17.029  34.663  0.00  0.00    +0.035 A 
ATOM     32  C   UNL     1      10.104  16.294  35.884  0.00  0.00    +0.024 A 
ATOM     33  C   UNL     1      11.319  15.685  36.366  0.00  0.00    +0.007 A 
ATOM     34  C   UNL     1      12.541  15.805  35.624  0.00  0.00    -0.029 A 
ATOM     35  C   UNL     1      13.813  15.126  36.185  0.00  0.00    +0.045 C 
ENDROOT
BRANCH  10   9
ATOM      4  C   UNL     1      15.523  15.145  30.904  0.00  0.00    +0.077 A 
ATOM      5  C   UNL     1      14.731  13.985  30.611  0.00  0.00    +0.048 A 
ATOM      6  C   UNL     1      13.562  13.786  31.380  0.00  0.00    +0.116 A 
ATOM      7  N   UNL     1      13.220  14.687  32.365  0.00  0.00    -0.223 NA
ATOM      8  C   UNL     1      14.006  15.795  32.623  0.00  0.00    +0.220 A 
ATOM      9  N   UNL     1      13.677  16.718  33.603  0.00  0.00    -0.283 N 
ATOM     36  H   UNL     1      14.287  17.518  33.768  0.00  0.00    +0.155 HD
ATOM     37  N   UNL     1      15.128  16.006  31.904  0.00  0.00    -0.214 NA
BRANCH   4   3
ATOM      1  C   UNL     1      18.102  16.861  28.516  0.00  0.00    +0.020 A 
ATOM      2  C   UNL     1      16.859  16.564  29.190  0.00  0.00    +0.013 A 
ATOM      3  C   UNL     1      16.784  15.494  30.177  0.00  0.00    +0.019 A 
ATOM     38  C   UNL     1      17.994  14.738  30.462  0.00  0.00    +0.120 A 
ATOM     39  N   UNL     1      19.177  15.046  29.796  0.00  0.00    -0.263 NA
ATOM     40  C   UNL     1      19.260  16.072  28.843  0.00  0.00    +0.111 A 
ENDBRANCH   4   3
ENDBRANCH  10   9
BRANCH  12  13
ATOM     13  N   UNL     1       8.822  17.601  34.242  0.00  0.00    -0.281 N 
ATOM     14  C   UNL     1       7.759  16.961  33.625  0.00  0.00    +0.248 C 
ATOM     30  O   UNL     1       7.812  15.838  33.146  0.00  0.00    -0.270 OA
ATOM     31  H   UNL     1       8.703  18.598  34.420  0.00  0.00    +0.155 HD
BRANCH  14  15
ATOM     15  C   UNL     1       6.453  17.679  33.511  0.00  0.00    +0.037 A 
ATOM     16  C   UNL     1       5.335  17.106  32.758  0.00  0.00    +0.013 A 
ATOM     17  C   UNL     1       4.091  17.826  32.649  0.00  0.00    +0.005 A 
ATOM     18  C   UNL     1       3.960  19.129  33.297  0.00  0.00    -0.033 A 
ATOM     28  C   UNL     1       5.083  19.672  34.042  0.00  0.00    +0.005 A 
ATOM     29  C   UNL     1       6.304  18.969  34.150  0.00  0.00    +0.013 A 
BRANCH  18  19
ATOM     19  C   UNL     1       2.677  19.978  33.215  0.00  0.00    +0.119 C 
BRANCH  19  20
ATOM     20  N   UNL     1       1.422  19.373  33.752  0.00  0.00    -0.302 NA
ATOM     21  C   UNL     1       0.388  19.123  32.651  0.00  0.00    +0.066 C 
ATOM     22  C   UNL     1      -0.911  18.469  33.227  0.00  0.00    -0.064 C 
ATOM     23  N   UNL     1      -1.490  19.369  34.319  0.00  0.00    +0.379 N 
ATOM     24  C   UNL     1      -2.742  18.785  34.822  0.00  0.00    -0.096 C 
ATOM     25  H   UNL     1      -1.738  20.351  33.853  0.00  0.00    -0.082 HD
ATOM     26  C   UNL     1      -0.468  19.625  35.417  0.00  0.00    -0.064 C 
ATOM     27  C   UNL     1       0.830  20.247  34.830  0.00  0.00    +0.066 C 
ENDBRANCH  19  20
ENDBRANCH  18  19
ENDBRANCH  14  15
ENDBRANCH  12  13
TORSDOF 6
ENDMDL
MODEL 2
REMARK VINA RESULT:      -7.2      2.949      5.733
REMARK  Name = C:\Users\Docking\Desktop\test protocol\1iep_ligandH.pdb
REMARK  8 active torsions:
REMARK  status: ('A' for Active; 'I' for Inactive)
REMARK    1  A    between atoms: _5  and  _11
REMARK    2  A    between atoms: _19  and  _21
REMARK    3  A    between atoms: _22  and  _66
REMARK    4  A    between atoms: _27  and  _30
REMARK    5  A    between atoms: _32  and  _33
REMARK    6  A    between atoms: _38  and  _43
REMARK    7  A    between atoms: _43  and  _46
REMARK    8  A    between atoms: _53  and  _55
REMARK                            x       y       z     vdW  Elec       q    Type
REMARK                         _______ _______ _______ _____ _____    ______ ____
ROOT
ATOM     10  C   UNL     1      12.575  16.020  34.301  0.00  0.00    +0.038 A 
ATOM     11  C   UNL     1      11.277  16.591  34.280  0.00  0.00    +0.047 A 
ATOM     12  C   UNL     1      10.474  16.589  33.067  0.00  0.00    +0.035 A 
ATOM     32  C   UNL     1      11.024  15.994  31.894  0.00  0.00    +0.024 A 
ATOM     33  C   UNL     1      12.342  15.410  31.898  0.00  0.00    +0.007 A 
ATOM     34  C   UNL     1      13.140  15.412  33.090  0.00  0.00    -0.029 A 
ATOM     35  C   UNL     1      14.549  14.778  33.035  0.00  0.00    +0.045 C 
ENDROOT
BRANCH  10   9
ATOM      4  C   UNL     1      13.803  14.173  38.558  0.00  0.00    +0.077 A 
ATOM      5  C   UNL     1      12.899  13.069  38.406  0.00  0.00    +0.048 A 
ATOM      6  C   UNL     1      12.131  13.018  37.221  0.00  0.00    +0.116 A 
ATOM      7  N   UNL     1      12.266  14.002  36.265  0.00  0.00    -0.223 NA
ATOM      8  C   UNL     1      13.145  15.053  36.444  0.00  0.00    +0.220 A 
ATOM      9  N   UNL     1      13.303  16.050  35.493  0.00  0.00    -0.283 N 
ATOM     36  H   UNL     1      13.957  16.813  35.666  0.00  0.00    +0.155 HD
ATOM     37  N   UNL     1      13.889  15.126  37.568  0.00  0.00    -0.214 NA
BRANCH   4   3
ATOM      1  C   UNL     1      16.856  15.041  40.843  0.00  0.00    +0.020 A 
ATOM      2  C   UNL     1      16.046  14.874  39.658  0.00  0.00    +0.013 A 
ATOM      3  C   UNL     1      14.684  14.365  39.753  0.00  0.00    +0.019 A 
ATOM     38  C   UNL     1      14.167  14.032  41.071  0.00  0.00    +0.120 A 
ATOM     39  N   UNL     1      14.970  14.202  42.195  0.00  0.00    -0.263 NA
ATOM     40  C   UNL     1      16.283  14.690  42.116  0.00  0.00    +0.111 A 
ENDBRANCH   4   3
ENDBRANCH  10   9
BRANCH  12  13
ATOM     13  N   UNL     1       9.153  17.160  32.983  0.00  0.00    -0.281 N 
ATOM     14  C   UNL     1       7.941  16.546  33.253  0.00  0.00    +0.248 C 
ATOM     30  O   UNL     1       7.794  15.342  33.403  0.00  0.00    -0.270 OA
ATOM     31  H   UNL     1       9.106  18.136  32.689  0.00  0.00    +0.155 HD
BRANCH  14  15
ATOM     15  C   UNL     1       6.712  17.390  33.357  0.00  0.00    +0.037 A 
ATOM     16  C   UNL     1       6.732  18.681  34.050  0.00  0.00    +0.013 A 
ATOM     17  C   UNL     1       5.528  19.467  34.150  0.00  0.00    +0.005 A 
ATOM     18  C   UNL     1       4.293  18.964  33.555  0.00  0.00    -0.033 A 
ATOM     28  C   UNL     1       4.302  17.683  32.869  0.00  0.00    +0.005 A 
ATOM     29  C   UNL     1       5.479  16.909  32.769  0.00  0.00    +0.013 A 
BRANCH  18  19
ATOM     19  C   UNL     1       2.956  19.726  33.632  0.00  0.00    +0.119 C 
BRANCH  19  20
ATOM     20  N   UNL     1       1.788  18.999  34.212  0.00  0.00    -0.302 NA
ATOM     21  C   UNL     1       0.645  19.950  34.581  0.00  0.00    +0.066 C 
ATOM     22  C   UNL     1      -0.578  19.171  35.165  0.00  0.00    -0.064 C 
ATOM     23  N   UNL     1      -0.129  18.364  36.385  0.00  0.00    +0.379 N 
ATOM     24  C   UNL     1      -1.289  17.676  36.971  0.00  0.00    -0.096 C 
ATOM     25  H   UNL     1       0.256  19.084  37.144  0.00  0.00    -0.082 HD
ATOM     26  C   UNL     1       1.008  17.418  36.027  0.00  0.00    -0.064 C 
ATOM     27  C   UNL     1       2.207  18.199  35.421  0.00  0.00    +0.066 C 
ENDBRANCH  19  20
ENDBRANCH  18  19
ENDBRANCH  14  15
ENDBRANCH  12  13
TORSDOF 6
ENDMDL
MODEL 3
REMARK VINA RESULT:      -7.1      3.052      5.750
REMARK  Name = C:\Users\Docking\Desktop\test protocol\1iep_ligandH.pdb
REMARK  8 active torsions:
REMARK  status: ('A' for Active; 'I' for Inactive)
REMARK    1  A    between atoms: _5  and  _11
REMARK    2  A    between atoms: _19  and  _21
REMARK    3  A    between atoms: _22  and  _66
REMARK    4  A    between atoms: _27  and  _30
REMARK    5  A    between atoms: _32  and  _33
REMARK    6  A    between atoms: _38  and  _43
REMARK    7  A    between atoms: _43  and  _46
REMARK    8  A    between atoms: _53  and  _55
REMARK                            x       y       z     vdW  Elec       q    Type
REMARK                         _______ _______ _______ _____ _____    ______ ____
ROOT
ATOM     10  C   UNL     1      13.208  15.960  34.560  0.00  0.00    +0.038 A 
ATOM     11  C   UNL     1      11.912  16.535  34.543  0.00  0.00    +0.047 A 
ATOM     12  C   UNL     1      11.098  16.522  33.338  0.00  0.00    +0.035 A 
ATOM     32  C   UNL     1      11.635  15.910  32.167  0.00  0.00    +0.024 A 
ATOM     33  C   UNL     1      12.951  15.321  32.166  0.00  0.00    +0.007 A 
ATOM     34  C   UNL     1      13.759  15.334  33.352  0.00  0.00    -0.029 A 
ATOM     35  C   UNL     1      15.166  14.693  33.291  0.00  0.00    +0.045 C 
ENDROOT
BRANCH  10   9
ATOM      4  C   UNL     1      14.334  14.263  38.907  0.00  0.00    +0.077 A 
ATOM      5  C   UNL     1      13.350  13.222  38.820  0.00  0.00    +0.048 A 
ATOM      6  C   UNL     1      12.570  13.163  37.644  0.00  0.00    +0.116 A 
ATOM      7  N   UNL     1      12.768  14.080  36.635  0.00  0.00    -0.223 NA
ATOM      8  C   UNL     1      13.725  15.072  36.751  0.00  0.00    +0.220 A 
ATOM      9  N   UNL     1      13.946  16.001  35.745  0.00  0.00    -0.283 N 
ATOM     36  H   UNL     1      14.656  16.722  35.872  0.00  0.00    +0.155 HD
ATOM     37  N   UNL     1      14.481  15.152  37.865  0.00  0.00    -0.214 NA
BRANCH   4   3
ATOM      1  C   UNL     1      17.467  15.014  41.125  0.00  0.00    +0.020 A 
ATOM      2  C   UNL     1      16.637  14.842  39.955  0.00  0.00    +0.013 A 
ATOM      3  C   UNL     1      15.238  14.455  40.085  0.00  0.00    +0.019 A 
ATOM     38  C   UNL     1      14.705  14.249  41.423  0.00  0.00    +0.120 A 
ATOM     39  N   UNL     1      15.528  14.421  42.531  0.00  0.00    -0.263 NA
ATOM     40  C   UNL     1      16.876  14.791  42.419  0.00  0.00    +0.111 A 
ENDBRANCH   4   3
ENDBRANCH  10   9
BRANCH  12  13
ATOM     13  N   UNL     1       9.779  17.097  33.258  0.00  0.00    -0.281 N 
ATOM     14  C   UNL     1       8.569  16.438  33.117  0.00  0.00    +0.248 C 
ATOM     30  O   UNL     1       8.456  15.258  32.821  0.00  0.00    -0.270 OA
ATOM     31  H   UNL     1       9.731  18.115  33.313  0.00  0.00    +0.155 HD
BRANCH  14  15
ATOM     15  C   UNL     1       7.301  17.204  33.319  0.00  0.00    +0.037 A 
ATOM     16  C   UNL     1       6.009  16.660  32.893  0.00  0.00    +0.013 A 
ATOM     17  C   UNL     1       4.803  17.427  33.085  0.00  0.00    +0.005 A 
ATOM     18  C   UNL     1       4.885  18.746  33.707  0.00  0.00    -0.033 A 
ATOM     28  C   UNL     1       6.179  19.259  34.125  0.00  0.00    +0.005 A 
ATOM     29  C   UNL     1       7.363  18.511  33.938  0.00  0.00    +0.013 A 
BRANCH  18  19
ATOM     19  C   UNL     1       3.653  19.642  33.932  0.00  0.00    +0.119 C 
BRANCH  19  20
ATOM     20  N   UNL     1       2.314  19.052  33.632  0.00  0.00    -0.302 NA
ATOM     21  C   UNL     1       1.625  19.757  32.461  0.00  0.00    +0.066 C 
ATOM     22  C   UNL     1       0.235  19.112  32.147  0.00  0.00    -0.064 C 
ATOM     23  N   UNL     1      -0.641  19.160  33.399  0.00  0.00    +0.379 N 
ATOM     24  C   UNL     1      -1.968  18.607  33.091  0.00  0.00    -0.096 C 
ATOM     25  H   UNL     1      -0.777  20.232  33.676  0.00  0.00    -0.082 HD
ATOM     26  C   UNL     1       0.038  18.464  34.570  0.00  0.00    -0.064 C 
ATOM     27  C   UNL     1       1.431  19.093  34.855  0.00  0.00    +0.066 C 
ENDBRANCH  19  20
ENDBRANCH  18  19
ENDBRANCH  14  15
ENDBRANCH  12  13
TORSDOF 6
ENDMDL
MODEL 4
REMARK VINA RESULT:      -7.0      1.442      2.218
REMARK  Name = C:\Users\Docking\Desktop\test protocol\1iep_ligandH.pdb
REMARK  8 active torsions:
REMARK  status: ('A' for Active; 'I' for Inactive)
REMARK    1  A    between atoms: _5  and  _11
REMARK    2  A    between atoms: _19  and  _21
REMARK    3  A    between atoms: _22  and  _66
REMARK    4  A    between atoms: _27  and  _30
REMARK    5  A    between atoms: _32  and  _33
REMARK    6  A    between atoms: _38  and  _43
REMARK    7  A    between atoms: _43  and  _46
REMARK    8  A    between atoms: _53  and  _55
REMARK                            x       y       z     vdW  Elec       q    Type
REMARK                         _______ _______ _______ _____ _____    ______ ____
ROOT
ATOM     10  C   UNL     1      12.950  16.584  34.246  0.00  0.00    +0.038 A 
ATOM     11  C   UNL     1      11.704  17.158  33.886  0.00  0.00    +0.047 A 
ATOM     12  C   UNL     1      10.520  16.966  34.710  0.00  0.00    +0.035 A 
ATOM     32  C   UNL     1      10.643  16.185  35.896  0.00  0.00    +0.024 A 
ATOM     33  C   UNL     1      11.901  15.594  36.277  0.00  0.00    +0.007 A 
ATOM     34  C   UNL     1      13.071  15.778  35.467  0.00  0.00    -0.029 A 
ATOM     35  C   UNL     1      14.393  15.116  35.921  0.00  0.00    +0.045 C 
ENDROOT
BRANCH  10   9
ATOM      4  C   UNL     1      15.861  15.304  30.651  0.00  0.00    +0.077 A 
ATOM      5  C   UNL     1      15.137  14.087  30.420  0.00  0.00    +0.048 A 
ATOM      6  C   UNL     1      14.026  13.824  31.253  0.00  0.00    +0.116 A 
ATOM      7  N   UNL     1      13.674  14.719  32.240  0.00  0.00    -0.223 NA
ATOM      8  C   UNL     1      14.395  15.883  32.437  0.00  0.00    +0.220 A 
ATOM      9  N   UNL     1      14.054  16.801  33.419  0.00  0.00    -0.283 N 
ATOM     36  H   UNL     1      14.615  17.644  33.537  0.00  0.00    +0.155 HD
ATOM     37  N   UNL     1      15.460  16.156  31.656  0.00  0.00    -0.214 NA
BRANCH   4   3
ATOM      1  C   UNL     1      19.483  15.536  29.194  0.00  0.00    +0.020 A 
ATOM      2  C   UNL     1      18.362  15.093  29.990  0.00  0.00    +0.013 A 
ATOM      3  C   UNL     1      17.055  15.723  29.852  0.00  0.00    +0.019 A 
ATOM     38  C   UNL     1      16.915  16.807  28.891  0.00  0.00    +0.120 A 
ATOM     39  N   UNL     1      18.013  17.213  28.139  0.00  0.00    -0.263 NA
ATOM     40  C   UNL     1      19.276  16.615  28.265  0.00  0.00    +0.111 A 
ENDBRANCH   4   3
ENDBRANCH  10   9
BRANCH  12  13
ATOM     13  N   UNL     1       9.227  17.517  34.390  0.00  0.00    -0.281 N 
ATOM     14  C   UNL     1       8.295  17.033  33.487  0.00  0.00    +0.248 C 
ATOM     30  O   UNL     1       8.523  16.167  32.655  0.00  0.00    -0.270 OA
ATOM     31  H   UNL     1       8.967  18.367  34.891  0.00  0.00    +0.155 HD
BRANCH  14  15
ATOM     15  C   UNL     1       6.914  17.604  33.499  0.00  0.00    +0.037 A 
ATOM     16  C   UNL     1       6.652  18.950  34.015  0.00  0.00    +0.013 A 
ATOM     17  C   UNL     1       5.308  19.471  34.031  0.00  0.00    +0.005 A 
ATOM     18  C   UNL     1       4.214  18.644  33.526  0.00  0.00    -0.033 A 
ATOM     28  C   UNL     1       4.502  17.314  33.015  0.00  0.00    +0.005 A 
ATOM     29  C   UNL     1       5.818  16.801  32.999  0.00  0.00    +0.013 A 
BRANCH  18  19
ATOM     19  C   UNL     1       2.746  19.110  33.524  0.00  0.00    +0.119 C 
BRANCH  19  20
ATOM     20  N   UNL     1       1.921  18.765  32.328  0.00  0.00    -0.302 NA
ATOM     21  C   UNL     1       2.659  19.057  31.018  0.00  0.00    +0.066 C 
ATOM     22  C   UNL     1       1.790  18.669  29.778  0.00  0.00    -0.064 C 
ATOM     23  N   UNL     1       0.462  19.427  29.832  0.00  0.00    +0.379 N 
ATOM     24  C   UNL     1      -0.333  19.109  28.637  0.00  0.00    -0.096 C 
ATOM     25  H   UNL     1       0.694  20.517  29.804  0.00  0.00    -0.082 HD
ATOM     26  C   UNL     1      -0.277  19.145  31.132  0.00  0.00    -0.064 C 
ATOM     27  C   UNL     1       0.607  19.506  32.359  0.00  0.00    +0.066 C 
ENDBRANCH  19  20
ENDBRANCH  18  19
ENDBRANCH  14  15
ENDBRANCH  12  13
TORSDOF 6
ENDMDL
MODEL 5
REMARK VINA RESULT:      -6.9      2.942     13.697
REMARK  Name = C:\Users\Docking\Desktop\test protocol\1iep_ligandH.pdb
REMARK  8 active torsions:
REMARK  status: ('A' for Active; 'I' for Inactive)
REMARK    1  A    between atoms: _5  and  _11
REMARK    2  A    between atoms: _19  and  _21
REMARK    3  A    between atoms: _22  and  _66
REMARK    4  A    between atoms: _27  and  _30
REMARK    5  A    between atoms: _32  and  _33
REMARK    6  A    between atoms: _38  and  _43
REMARK    7  A    between atoms: _43  and  _46
REMARK    8  A    between atoms: _53  and  _55
REMARK                            x       y       z     vdW  Elec       q    Type
REMARK                         _______ _______ _______ _____ _____    ______ ____
ROOT
ATOM     10  C   UNL     1      12.700  16.444  34.358  0.00  0.00    +0.038 A 
ATOM     11  C   UNL     1      13.564  16.660  33.254  0.00  0.00    +0.047 A 
ATOM     12  C   UNL     1      14.861  16.006  33.174  0.00  0.00    +0.035 A 
ATOM     32  C   UNL     1      15.245  15.136  34.236  0.00  0.00    +0.024 A 
ATOM     33  C   UNL     1      14.379  14.907  35.367  0.00  0.00    +0.007 A 
ATOM     34  C   UNL     1      13.100  15.551  35.451  0.00  0.00    -0.029 A 
ATOM     35  C   UNL     1      12.216  15.273  36.689  0.00  0.00    +0.045 C 
ENDROOT
BRANCH  10   9
ATOM      4  C   UNL     1       8.038  16.729  33.251  0.00  0.00    +0.077 A 
ATOM      5  C   UNL     1       8.070  15.483  32.540  0.00  0.00    +0.048 A 
ATOM      6  C   UNL     1       9.307  14.804  32.477  0.00  0.00    +0.116 A 
ATOM      7  N   UNL     1      10.423  15.340  33.083  0.00  0.00    -0.223 NA
ATOM      8  C   UNL     1      10.358  16.544  33.759  0.00  0.00    +0.220 A 
ATOM      9  N   UNL     1      11.466  17.098  34.382  0.00  0.00    -0.283 N 
ATOM     36  H   UNL     1      11.378  17.992  34.864  0.00  0.00    +0.155 HD
ATOM     37  N   UNL     1       9.189  17.213  33.832  0.00  0.00    -0.214 NA
BRANCH   4   3
ATOM      1  C   UNL     1       5.594  19.646  34.157  0.00  0.00    +0.020 A 
ATOM      2  C   UNL     1       6.814  18.881  34.030  0.00  0.00    +0.013 A 
ATOM      3  C   UNL     1       6.805  17.563  33.408  0.00  0.00    +0.019 A 
ATOM     38  C   UNL     1       5.536  17.044  32.921  0.00  0.00    +0.120 A 
ATOM     39  N   UNL     1       4.377  17.802  33.058  0.00  0.00    -0.263 NA
ATOM     40  C   UNL     1       4.374  19.071  33.656  0.00  0.00    +0.111 A 
ENDBRANCH   4   3
ENDBRANCH  10   9
BRANCH  12  13
ATOM     13  N   UNL     1      15.784  16.192  32.082  0.00  0.00    -0.281 N 
ATOM     14  C   UNL     1      15.812  15.526  30.868  0.00  0.00    +0.248 C 
ATOM     30  O   UNL     1      15.175  14.514  30.620  0.00  0.00    -0.270 OA
ATOM     31  H   UNL     1      16.503  16.902  32.222  0.00  0.00    +0.155 HD
BRANCH  14  15
ATOM     15  C   UNL     1      16.686  16.053  29.776  0.00  0.00    +0.037 A 
ATOM     16  C   UNL     1      17.945  15.390  29.424  0.00  0.00    +0.013 A 
ATOM     17  C   UNL     1      18.777  15.929  28.378  0.00  0.00    +0.005 A 
ATOM     18  C   UNL     1      18.353  17.137  27.675  0.00  0.00    -0.033 A 
ATOM     28  C   UNL     1      17.097  17.771  28.041  0.00  0.00    +0.005 A 
ATOM     29  C   UNL     1      16.279  17.247  29.067  0.00  0.00    +0.013 A 
BRANCH  18  19
ATOM     19  C   UNL     1      19.189  17.794  26.560  0.00  0.00    +0.119 C 
BRANCH  19  20
ATOM     20  N   UNL     1      20.640  18.017  26.834  0.00  0.00    -0.302 NA
ATOM     21  C   UNL     1      20.910  18.282  28.318  0.00  0.00    +0.066 C 
ATOM     22  C   UNL     1      22.435  18.490  28.591  0.00  0.00    -0.064 C 
ATOM     23  N   UNL     1      22.950  19.646  27.731  0.00  0.00    +0.379 N 
ATOM     24  C   UNL     1      24.371  19.883  28.028  0.00  0.00    -0.096 C 
ATOM     25  H   UNL     1      22.386  20.562  28.024  0.00  0.00    -0.082 HD
ATOM     26  C   UNL     1      22.683  19.392  26.255  0.00  0.00    -0.064 C 
ATOM     27  C   UNL     1      21.168  19.157  25.999  0.00  0.00    +0.066 C 
ENDBRANCH  19  20
ENDBRANCH  18  19
ENDBRANCH  14  15
ENDBRANCH  12  13
TORSDOF 6
ENDMDL
