MODEL 1
REMARK VINA RESULT:      -8.6      0.000      0.000
REMARK  Name = C:\Users\Docking\Desktop\test protocol\1iep_ligandH.pdb
REMARK  8 active torsions:
REMARK  status: ('A' for Active; 'I' for Inactive)
REMARK    1  A    between atoms: _5  and  _11
REMARK    2  A    between atoms: _19  and  _21
REMARK    3  A    between atoms: _22  and  _66
REMARK    4  A    between atoms: _27  and  _30
REMARK    5  A    between atoms: _32  and  _33
REMARK    6  A    between atoms: _38  and  _43
REMARK    7  A    between atoms: _43  and  _46
REMARK    8  A    between atoms: _53  and  _55
REMARK                            x       y       z     vdW  Elec       q    Type
REMARK                         _______ _______ _______ _____ _____    ______ ____
ROOT
ATOM     10  C   UNL     1      14.803  22.540  14.539  0.00  0.00    +0.038 A 
ATOM     11  C   UNL     1      15.876  23.433  14.792  0.00  0.00    +0.047 A 
ATOM     12  C   UNL     1      17.228  23.130  14.348  0.00  0.00    +0.035 A 
ATOM     32  C   UNL     1      17.450  21.909  13.646  0.00  0.00    +0.024 A 
ATOM     33  C   UNL     1      16.371  20.990  13.381  0.00  0.00    +0.007 A 
ATOM     34  C   UNL     1      15.037  21.283  13.819  0.00  0.00    -0.029 A 
ATOM     35  C   UNL     1      13.920  20.258  13.513  0.00  0.00    +0.045 C 
ENDROOT
BRANCH  10   9
ATOM      4  C   UNL     1      11.475  22.872  17.982  0.00  0.00    +0.077 A 
ATOM      5  C   UNL     1      12.347  22.291  18.963  0.00  0.00    +0.048 A 
ATOM      6  C   UNL     1      13.641  21.915  18.539  0.00  0.00    +0.116 A 
ATOM      7  N   UNL     1      14.024  22.109  17.229  0.00  0.00    -0.223 NA
ATOM      8  C   UNL     1      13.158  22.670  16.309  0.00  0.00    +0.220 A 
ATOM      9  N   UNL     1      13.525  22.881  14.989  0.00  0.00    -0.283 N 
ATOM     36  H   UNL     1      12.855  23.291  14.338  0.00  0.00    +0.155 HD
ATOM     37  N   UNL     1      11.917  23.037  16.688  0.00  0.00    -0.214 NA
BRANCH   4   3
ATOM      1  C   UNL     1       7.631  23.541  17.706  0.00  0.00    +0.020 A 
ATOM      2  C   UNL     1       8.961  23.084  17.374  0.00  0.00    +0.013 A 
ATOM      3  C   UNL     1      10.079  23.324  18.277  0.00  0.00    +0.019 A 
ATOM     38  C   UNL     1       9.816  24.034  19.520  0.00  0.00    +0.120 A 
ATOM     39  N   UNL     1       8.525  24.464  19.813  0.00  0.00    -0.263 NA
ATOM     40  C   UNL     1       7.442  24.240  18.950  0.00  0.00    +0.111 A 
ENDBRANCH   4   3
ENDBRANCH  10   9
BRANCH  12  13
ATOM     13  N   UNL     1      18.358  23.993  14.583  0.00  0.00    -0.281 N 
ATOM     14  C   UNL     1      18.928  24.907  13.712  0.00  0.00    +0.248 C 
ATOM     30  O   UNL     1      18.682  24.967  12.516  0.00  0.00    -0.270 OA
ATOM     31  H   UNL     1      18.791  23.923  15.504  0.00  0.00    +0.155 HD
BRANCH  14  15
ATOM     15  C   UNL     1      19.925  25.886  14.242  0.00  0.00    +0.037 A 
ATOM     16  C   UNL     1      19.630  27.320  14.291  0.00  0.00    +0.013 A 
ATOM     17  C   UNL     1      20.616  28.245  14.791  0.00  0.00    +0.005 A 
ATOM     18  C   UNL     1      21.907  27.737  15.248  0.00  0.00    -0.033 A 
ATOM     28  C   UNL     1      22.172  26.309  15.193  0.00  0.00    +0.005 A 
ATOM     29  C   UNL     1      21.208  25.399  14.702  0.00  0.00    +0.013 A 
BRANCH  18  19
ATOM     19  C   UNL     1      23.027  28.653  15.777  0.00  0.00    +0.119 C 
BRANCH  19  20
ATOM     20  N   UNL     1      24.418  28.110  15.764  0.00  0.00    -0.302 NA
ATOM     21  C   UNL     1      24.915  27.771  17.172  0.00  0.00    +0.066 C 
ATOM     22  C   UNL     1      26.364  27.184  17.138  0.00  0.00    -0.064 C 
ATOM     23  N   UNL     1      27.301  28.183  16.458  0.00  0.00    +0.379 N 
ATOM     24  C   UNL     1      28.674  27.659  16.476  0.00  0.00    -0.096 C 
ATOM     25  H   UNL     1      27.289  29.121  17.061  0.00  0.00    -0.082 HD
ATOM     26  C   UNL     1      26.812  28.528  15.059  0.00  0.00    -0.064 C 
ATOM     27  C   UNL     1      25.361  29.083  15.101  0.00  0.00    +0.066 C 
ENDBRANCH  19  20
ENDBRANCH  18  19
ENDBRANCH  14  15
ENDBRANCH  12  13
TORSDOF 6
ENDMDL
MODEL 2
REMARK VINA RESULT:      -8.5      4.465      7.942
REMARK  Name = C:\Users\Docking\Desktop\test protocol\1iep_ligandH.pdb
REMARK  8 active torsions:
REMARK  status: ('A' for Active; 'I' for Inactive)
REMARK    1  A    between atoms: _5  and  _11
REMARK    2  A    between atoms: _19  and  _21
REMARK    3  A    between atoms: _22  and  _66
REMARK    4  A    between atoms: _27  and  _30
REMARK    5  A    between atoms: _32  and  _33
REMARK    6  A    between atoms: _38  and  _43
REMARK    7  A    between atoms: _43  and  _46
REMARK    8  A    between atoms: _53  and  _55
REMARK                            x       y       z     vdW  Elec       q    Type
REMARK                         _______ _______ _______ _____ _____    ______ ____
ROOT
ATOM     10  C   UNL     1       9.249  25.831  18.976  0.00  0.00    +0.038 A 
ATOM     11  C   UNL     1      10.571  25.619  18.507  0.00  0.00    +0.047 A 
ATOM     12  C   UNL     1      11.156  24.288  18.484  0.00  0.00    +0.035 A 
ATOM     32  C   UNL     1      10.366  23.194  18.943  0.00  0.00    +0.024 A 
ATOM     33  C   UNL     1       9.021  23.392  19.424  0.00  0.00    +0.007 A 
ATOM     34  C   UNL     1       8.439  24.703  19.452  0.00  0.00    -0.029 A 
ATOM     35  C   UNL     1       6.995  24.857  19.984  0.00  0.00    +0.045 C 
ENDROOT
BRANCH  10   9
ATOM      4  C   UNL     1       8.154  29.948  21.188  0.00  0.00    +0.077 A 
ATOM      5  C   UNL     1       8.616  29.459  22.455  0.00  0.00    +0.048 A 
ATOM      6  C   UNL     1       9.121  28.140  22.496  0.00  0.00    +0.116 A 
ATOM      7  N   UNL     1       9.158  27.377  21.350  0.00  0.00    -0.223 NA
ATOM      8  C   UNL     1       8.703  27.878  20.144  0.00  0.00    +0.220 A 
ATOM      9  N   UNL     1       8.737  27.131  18.977  0.00  0.00    -0.283 N 
ATOM     36  H   UNL     1       8.385  27.535  18.109  0.00  0.00    +0.155 HD
ATOM     37  N   UNL     1       8.214  29.134  20.079  0.00  0.00    -0.214 NA
BRANCH   4   3
ATOM      1  C   UNL     1       7.418  33.497  19.718  0.00  0.00    +0.020 A 
ATOM      2  C   UNL     1       7.988  32.179  19.871  0.00  0.00    +0.013 A 
ATOM      3  C   UNL     1       7.595  31.322  20.983  0.00  0.00    +0.019 A 
ATOM     38  C   UNL     1       6.615  31.833  21.929  0.00  0.00    +0.120 A 
ATOM     39  N   UNL     1       6.084  33.107  21.757  0.00  0.00    -0.263 NA
ATOM     40  C   UNL     1       6.456  33.942  20.692  0.00  0.00    +0.111 A 
ENDBRANCH   4   3
ENDBRANCH  10   9
BRANCH  12  13
ATOM     13  N   UNL     1      12.495  24.012  18.026  0.00  0.00    -0.281 N 
ATOM     14  C   UNL     1      12.882  23.305  16.899  0.00  0.00    +0.248 C 
ATOM     30  O   UNL     1      12.131  22.616  16.224  0.00  0.00    -0.270 OA
ATOM     31  H   UNL     1      13.250  24.384  18.603  0.00  0.00    +0.155 HD
BRANCH  14  15
ATOM     15  C   UNL     1      14.312  23.360  16.468  0.00  0.00    +0.037 A 
ATOM     16  C   UNL     1      15.362  23.833  17.374  0.00  0.00    +0.013 A 
ATOM     17  C   UNL     1      16.731  23.892  16.927  0.00  0.00    +0.005 A 
ATOM     18  C   UNL     1      17.058  23.475  15.565  0.00  0.00    -0.033 A 
ATOM     28  C   UNL     1      15.997  23.005  14.689  0.00  0.00    +0.005 A 
ATOM     29  C   UNL     1      14.654  22.947  15.123  0.00  0.00    +0.013 A 
BRANCH  18  19
ATOM     19  C   UNL     1      18.488  23.524  14.996  0.00  0.00    +0.119 C 
BRANCH  19  20
ATOM     20  N   UNL     1      19.249  24.798  15.168  0.00  0.00    -0.302 NA
ATOM     21  C   UNL     1      18.560  25.977  14.474  0.00  0.00    +0.066 C 
ATOM     22  C   UNL     1      19.357  27.305  14.684  0.00  0.00    -0.064 C 
ATOM     23  N   UNL     1      20.784  27.128  14.161  0.00  0.00    +0.379 N 
ATOM     24  C   UNL     1      21.519  28.393  14.304  0.00  0.00    -0.096 C 
ATOM     25  H   UNL     1      20.719  26.895  13.073  0.00  0.00    -0.082 HD
ATOM     26  C   UNL     1      21.475  25.956  14.844  0.00  0.00    -0.064 C 
ATOM     27  C   UNL     1      20.660  24.647  14.655  0.00  0.00    +0.066 C 
ENDBRANCH  19  20
ENDBRANCH  18  19
ENDBRANCH  14  15
ENDBRANCH  12  13
TORSDOF 6
ENDMDL
MODEL 3
REMARK VINA RESULT:      -8.5     10.603     14.906
REMARK  Name = C:\Users\Docking\Desktop\test protocol\1iep_ligandH.pdb
REMARK  8 active torsions:
REMARK  status: ('A' for Active; 'I' for Inactive)
REMARK    1  A    between atoms: _5  and  _11
REMARK    2  A    between atoms: _19  and  _21
REMARK    3  A    between atoms: _22  and  _66
REMARK    4  A    between atoms: _27  and  _30
REMARK    5  A    between atoms: _32  and  _33
REMARK    6  A    between atoms: _38  and  _43
REMARK    7  A    between atoms: _43  and  _46
REMARK    8  A    between atoms: _53  and  _55
REMARK                            x       y       z     vdW  Elec       q    Type
REMARK                         _______ _______ _______ _____ _____    ______ ____
ROOT
ATOM     10  C   UNL     1       9.185  25.657  20.033  0.00  0.00    +0.038 A 
ATOM     11  C   UNL     1       8.418  26.836  19.847  0.00  0.00    +0.047 A 
ATOM     12  C   UNL     1       8.913  28.132  20.285  0.00  0.00    +0.035 A 
ATOM     32  C   UNL     1      10.195  28.191  20.906  0.00  0.00    +0.024 A 
ATOM     33  C   UNL     1      10.987  27.003  21.103  0.00  0.00    +0.007 A 
ATOM     34  C   UNL     1      10.503  25.721  20.676  0.00  0.00    -0.029 A 
ATOM     35  C   UNL     1      11.392  24.480  20.919  0.00  0.00    +0.045 C 
ENDROOT
BRANCH  10   9
ATOM      4  C   UNL     1       5.573  22.535  19.536  0.00  0.00    +0.077 A 
ATOM      5  C   UNL     1       4.659  23.391  20.236  0.00  0.00    +0.048 A 
ATOM      6  C   UNL     1       5.159  24.623  20.714  0.00  0.00    +0.116 A 
ATOM      7  N   UNL     1       6.478  24.963  20.501  0.00  0.00    -0.223 NA
ATOM      8  C   UNL     1       7.334  24.114  19.824  0.00  0.00    +0.220 A 
ATOM      9  N   UNL     1       8.661  24.439  19.593  0.00  0.00    -0.283 N 
ATOM     36  H   UNL     1       9.262  23.782  19.096  0.00  0.00    +0.155 HD
ATOM     37  N   UNL     1       6.880  22.931  19.360  0.00  0.00    -0.214 NA
BRANCH   4   3
ATOM      1  C   UNL     1       3.496  19.484  18.241  0.00  0.00    +0.020 A 
ATOM      2  C   UNL     1       3.809  20.781  18.795  0.00  0.00    +0.013 A 
ATOM      3  C   UNL     1       5.193  21.203  18.969  0.00  0.00    +0.019 A 
ATOM     38  C   UNL     1       6.246  20.281  18.569  0.00  0.00    +0.120 A 
ATOM     39  N   UNL     1       5.915  19.037  18.040  0.00  0.00    -0.263 NA
ATOM     40  C   UNL     1       4.586  18.620  17.869  0.00  0.00    +0.111 A 
ENDBRANCH   4   3
ENDBRANCH  10   9
BRANCH  12  13
ATOM     13  N   UNL     1       8.176  29.362  20.131  0.00  0.00    -0.281 N 
ATOM     14  C   UNL     1       7.866  30.297  21.105  0.00  0.00    +0.248 C 
ATOM     30  O   UNL     1       7.993  30.111  22.306  0.00  0.00    -0.270 OA
ATOM     31  H   UNL     1       7.842  29.568  19.190  0.00  0.00    +0.155 HD
BRANCH  14  15
ATOM     15  C   UNL     1       7.323  31.624  20.685  0.00  0.00    +0.037 A 
ATOM     16  C   UNL     1       6.426  31.748  19.533  0.00  0.00    +0.013 A 
ATOM     17  C   UNL     1       5.930  33.043  19.139  0.00  0.00    +0.005 A 
ATOM     18  C   UNL     1       6.329  34.225  19.899  0.00  0.00    -0.033 A 
ATOM     28  C   UNL     1       7.216  34.072  21.041  0.00  0.00    +0.005 A 
ATOM     29  C   UNL     1       7.705  32.805  21.430  0.00  0.00    +0.013 A 
BRANCH  18  19
ATOM     19  C   UNL     1       5.865  35.648  19.537  0.00  0.00    +0.119 C 
BRANCH  19  20
ATOM     20  N   UNL     1       5.311  36.488  20.641  0.00  0.00    -0.302 NA
ATOM     21  C   UNL     1       3.847  36.153  20.938  0.00  0.00    +0.066 C 
ATOM     22  C   UNL     1       3.290  37.025  22.110  0.00  0.00    -0.064 C 
ATOM     23  N   UNL     1       3.446  38.505  21.759  0.00  0.00    +0.379 N 
ATOM     24  C   UNL     1       2.871  39.327  22.834  0.00  0.00    -0.096 C 
ATOM     25  H   UNL     1       2.856  38.697  20.833  0.00  0.00    -0.082 HD
ATOM     26  C   UNL     1       4.899  38.847  21.460  0.00  0.00    -0.064 C 
ATOM     27  C   UNL     1       5.451  37.954  20.313  0.00  0.00    +0.066 C 
ENDBRANCH  19  20
ENDBRANCH  18  19
ENDBRANCH  14  15
ENDBRANCH  12  13
TORSDOF 6
ENDMDL
MODEL 4
REMARK VINA RESULT:      -8.5      2.075     12.784
REMARK  Name = C:\Users\Docking\Desktop\test protocol\1iep_ligandH.pdb
REMARK  8 active torsions:
REMARK  status: ('A' for Active; 'I' for Inactive)
REMARK    1  A    between atoms: _5  and  _11
REMARK    2  A    between atoms: _19  and  _21
REMARK    3  A    between atoms: _22  and  _66
REMARK    4  A    between atoms: _27  and  _30
REMARK    5  A    between atoms: _32  and  _33
REMARK    6  A    between atoms: _38  and  _43
REMARK    7  A    between atoms: _43  and  _46
REMARK    8  A    between atoms: _53  and  _55
REMARK                            x       y       z     vdW  Elec       q    Type
REMARK                         _______ _______ _______ _____ _____    ______ ____
ROOT
ATOM     10  C   UNL     1      19.614  23.699  14.387  0.00  0.00    +0.038 A 
ATOM     11  C   UNL     1      18.424  23.880  15.138  0.00  0.00    +0.047 A 
ATOM     12  C   UNL     1      17.162  23.306  14.698  0.00  0.00    +0.035 A 
ATOM     32  C   UNL     1      17.148  22.551  13.489  0.00  0.00    +0.024 A 
ATOM     33  C   UNL     1      18.348  22.357  12.713  0.00  0.00    +0.007 A 
ATOM     34  C   UNL     1      19.595  22.923  13.141  0.00  0.00    -0.029 A 
ATOM     35  C   UNL     1      20.849  22.689  12.266  0.00  0.00    +0.045 C 
ENDROOT
BRANCH  10   9
ATOM      4  C   UNL     1      22.463  27.479  15.178  0.00  0.00    +0.077 A 
ATOM      5  C   UNL     1      21.525  28.386  14.581  0.00  0.00    +0.048 A 
ATOM      6  C   UNL     1      20.324  27.838  14.077  0.00  0.00    +0.116 A 
ATOM      7  N   UNL     1      20.090  26.483  14.167  0.00  0.00    -0.223 NA
ATOM      8  C   UNL     1      21.016  25.637  14.747  0.00  0.00    +0.220 A 
ATOM      9  N   UNL     1      20.798  24.272  14.856  0.00  0.00    -0.283 N 
ATOM     36  H   UNL     1      21.509  23.680  15.284  0.00  0.00    +0.155 HD
ATOM     37  N   UNL     1      22.171  26.135  15.235  0.00  0.00    -0.214 NA
BRANCH   4   3
ATOM      1  C   UNL     1      25.455  29.663  16.436  0.00  0.00    +0.020 A 
ATOM      2  C   UNL     1      24.177  29.304  15.866  0.00  0.00    +0.013 A 
ATOM      3  C   UNL     1      23.775  27.907  15.759  0.00  0.00    +0.019 A 
ATOM     38  C   UNL     1      24.697  26.890  16.242  0.00  0.00    +0.120 A 
ATOM     39  N   UNL     1      25.922  27.265  16.785  0.00  0.00    -0.263 NA
ATOM     40  C   UNL     1      26.320  28.606  16.891  0.00  0.00    +0.111 A 
ENDBRANCH   4   3
ENDBRANCH  10   9
BRANCH  12  13
ATOM     13  N   UNL     1      15.920  23.464  15.414  0.00  0.00    -0.281 N 
ATOM     14  C   UNL     1      15.520  22.825  16.576  0.00  0.00    +0.248 C 
ATOM     30  O   UNL     1      16.086  21.856  17.062  0.00  0.00    -0.270 OA
ATOM     31  H   UNL     1      15.255  24.127  15.016  0.00  0.00    +0.155 HD
BRANCH  14  15
ATOM     15  C   UNL     1      14.309  23.324  17.295  0.00  0.00    +0.037 A 
ATOM     16  C   UNL     1      12.975  23.219  16.699  0.00  0.00    +0.013 A 
ATOM     17  C   UNL     1      11.825  23.725  17.406  0.00  0.00    +0.005 A 
ATOM     18  C   UNL     1      12.005  24.339  18.720  0.00  0.00    -0.033 A 
ATOM     28  C   UNL     1      13.339  24.425  19.290  0.00  0.00    +0.005 A 
ATOM     29  C   UNL     1      14.469  23.932  18.599  0.00  0.00    +0.013 A 
BRANCH  18  19
ATOM     19  C   UNL     1      10.838  24.924  19.536  0.00  0.00    +0.119 C 
BRANCH  19  20
ATOM     20  N   UNL     1       9.526  24.213  19.461  0.00  0.00    -0.302 NA
ATOM     21  C   UNL     1       8.569  24.878  18.467  0.00  0.00    +0.066 C 
ATOM     22  C   UNL     1       7.211  24.108  18.384  0.00  0.00    -0.064 C 
ATOM     23  N   UNL     1       6.582  24.037  19.777  0.00  0.00    +0.379 N 
ATOM     24  C   UNL     1       5.277  23.365  19.692  0.00  0.00    -0.096 C 
ATOM     25  H   UNL     1       6.403  25.082  20.121  0.00  0.00    -0.082 HD
ATOM     26  C   UNL     1       7.528  23.380  20.772  0.00  0.00    -0.064 C 
ATOM     27  C   UNL     1       8.886  24.135  20.825  0.00  0.00    +0.066 C 
ENDBRANCH  19  20
ENDBRANCH  18  19
ENDBRANCH  14  15
ENDBRANCH  12  13
TORSDOF 6
ENDMDL
MODEL 5
REMARK VINA RESULT:      -8.4     10.538     14.751
REMARK  Name = C:\Users\Docking\Desktop\test protocol\1iep_ligandH.pdb
REMARK  8 active torsions:
REMARK  status: ('A' for Active; 'I' for Inactive)
REMARK    1  A    between atoms: _5  and  _11
REMARK    2  A    between atoms: _19  and  _21
REMARK    3  A    between atoms: _22  and  _66
REMARK    4  A    between atoms: _27  and  _30
REMARK    5  A    between atoms: _32  and  _33
REMARK    6  A    between atoms: _38  and  _43
REMARK    7  A    between atoms: _43  and  _46
REMARK    8  A    between atoms: _53  and  _55
REMARK                            x       y       z     vdW  Elec       q    Type
REMARK                         _______ _______ _______ _____ _____    ______ ____
ROOT
ATOM     10  C   UNL     1       8.715  25.898  20.754  0.00  0.00    +0.038 A 
ATOM     11  C   UNL     1       7.974  27.065  20.437  0.00  0.00    +0.047 A 
ATOM     12  C   UNL     1       8.609  28.373  20.402  0.00  0.00    +0.035 A 
ATOM     32  C   UNL     1      10.002  28.456  20.693  0.00  0.00    +0.024 A 
ATOM     33  C   UNL     1      10.770  27.280  21.018  0.00  0.00    +0.007 A 
ATOM     34  C   UNL     1      10.149  25.987  21.056  0.00  0.00    -0.029 A 
ATOM     35  C   UNL     1      11.020  24.762  21.417  0.00  0.00    +0.045 C 
ENDROOT
BRANCH  10   9
ATOM      4  C   UNL     1       7.510  21.710  18.743  0.00  0.00    +0.077 A 
ATOM      5  C   UNL     1       8.235  22.010  17.542  0.00  0.00    +0.048 A 
ATOM      6  C   UNL     1       8.899  23.256  17.479  0.00  0.00    +0.116 A 
ATOM      7  N   UNL     1       8.835  24.129  18.544  0.00  0.00    -0.223 NA
ATOM      8  C   UNL     1       8.126  23.808  19.687  0.00  0.00    +0.220 A 
ATOM      9  N   UNL     1       8.055  24.667  20.773  0.00  0.00    -0.283 N 
ATOM     36  H   UNL     1       7.515  24.397  21.595  0.00  0.00    +0.155 HD
ATOM     37  N   UNL     1       7.482  22.625  19.771  0.00  0.00    -0.214 NA
BRANCH   4   3
ATOM      1  C   UNL     1       4.713  18.976  18.739  0.00  0.00    +0.020 A 
ATOM      2  C   UNL     1       5.392  20.229  18.503  0.00  0.00    +0.013 A 
ATOM      3  C   UNL     1       6.761  20.433  18.961  0.00  0.00    +0.019 A 
ATOM     38  C   UNL     1       7.419  19.339  19.661  0.00  0.00    +0.120 A 
ATOM     39  N   UNL     1       6.740  18.144  19.875  0.00  0.00    -0.263 NA
ATOM     40  C   UNL     1       5.422  17.937  19.440  0.00  0.00    +0.111 A 
ENDBRANCH   4   3
ENDBRANCH  10   9
BRANCH  12  13
ATOM     13  N   UNL     1       7.906  29.594  20.095  0.00  0.00    -0.281 N 
ATOM     14  C   UNL     1       7.585  30.631  20.955  0.00  0.00    +0.248 C 
ATOM     30  O   UNL     1       7.668  30.570  22.173  0.00  0.00    -0.270 OA
ATOM     31  H   UNL     1       7.608  29.707  19.126  0.00  0.00    +0.155 HD
BRANCH  14  15
ATOM     15  C   UNL     1       7.087  31.918  20.380  0.00  0.00    +0.037 A 
ATOM     16  C   UNL     1       7.911  33.129  20.400  0.00  0.00    +0.013 A 
ATOM     17  C   UNL     1       7.400  34.361  19.854  0.00  0.00    +0.005 A 
ATOM     18  C   UNL     1       6.056  34.387  19.282  0.00  0.00    -0.033 A 
ATOM     28  C   UNL     1       5.261  33.170  19.271  0.00  0.00    +0.005 A 
ATOM     29  C   UNL     1       5.759  31.961  19.806  0.00  0.00    +0.013 A 
BRANCH  18  19
ATOM     19  C   UNL     1       5.421  35.663  18.696  0.00  0.00    +0.119 C 
BRANCH  19  20
ATOM     20  N   UNL     1       4.733  36.584  19.650  0.00  0.00    -0.302 NA
ATOM     21  C   UNL     1       5.579  37.821  19.965  0.00  0.00    +0.066 C 
ATOM     22  C   UNL     1       4.834  38.784  20.945  0.00  0.00    -0.064 C 
ATOM     23  N   UNL     1       4.481  38.029  22.228  0.00  0.00    +0.379 N 
ATOM     24  C   UNL     1       3.833  38.948  23.175  0.00  0.00    -0.096 C 
ATOM     25  H   UNL     1       5.435  37.684  22.690  0.00  0.00    -0.082 HD
ATOM     26  C   UNL     1       3.643  36.796  21.923  0.00  0.00    -0.064 C 
ATOM     27  C   UNL     1       4.379  35.859  20.925  0.00  0.00    +0.066 C 
ENDBRANCH  19  20
ENDBRANCH  18  19
ENDBRANCH  14  15
ENDBRANCH  12  13
TORSDOF 6
ENDMDL
