MODEL 1
REMARK VINA RESULT:      -8.9      0.000      0.000
REMARK  Name = C:\Users\Docking\Desktop\test protocol\1iep_ligandH.pdb
REMARK  8 active torsions:
REMARK  status: ('A' for Active; 'I' for Inactive)
REMARK    1  A    between atoms: _5  and  _11
REMARK    2  A    between atoms: _19  and  _21
REMARK    3  A    between atoms: _22  and  _66
REMARK    4  A    between atoms: _27  and  _30
REMARK    5  A    between atoms: _32  and  _33
REMARK    6  A    between atoms: _38  and  _43
REMARK    7  A    between atoms: _43  and  _46
REMARK    8  A    between atoms: _53  and  _55
REMARK                            x       y       z     vdW  Elec       q    Type
REMARK                         _______ _______ _______ _____ _____    ______ ____
ROOT
ATOM     10  C   UNL     1      10.021  13.750  58.030  0.00  0.00    +0.038 A 
ATOM     11  C   UNL     1      10.726  14.972  58.174  0.00  0.00    +0.047 A 
ATOM     12  C   UNL     1      12.069  15.133  57.640  0.00  0.00    +0.035 A 
ATOM     32  C   UNL     1      12.664  14.029  56.963  0.00  0.00    +0.024 A 
ATOM     33  C   UNL     1      11.962  12.779  56.809  0.00  0.00    +0.007 A 
ATOM     34  C   UNL     1      10.638  12.613  57.336  0.00  0.00    -0.029 A 
ATOM     35  C   UNL     1       9.935  11.249  57.147  0.00  0.00    +0.045 C 
ENDROOT
BRANCH  10   9
ATOM      4  C   UNL     1       5.489  15.272  58.457  0.00  0.00    +0.077 A 
ATOM      5  C   UNL     1       5.712  16.373  57.566  0.00  0.00    +0.048 A 
ATOM      6  C   UNL     1       7.009  16.517  57.024  0.00  0.00    +0.116 A 
ATOM      7  N   UNL     1       8.001  15.620  57.356  0.00  0.00    -0.223 NA
ATOM      8  C   UNL     1       7.753  14.569  58.221  0.00  0.00    +0.220 A 
ATOM      9  N   UNL     1       8.733  13.651  58.562  0.00  0.00    -0.283 N 
ATOM     36  H   UNL     1       8.512  12.894  59.209  0.00  0.00    +0.155 HD
ATOM     37  N   UNL     1       6.523  14.411  58.752  0.00  0.00    -0.214 NA
BRANCH   4   3
ATOM      1  C   UNL     1       1.668  14.679  59.048  0.00  0.00    +0.020 A 
ATOM      2  C   UNL     1       2.913  14.962  58.372  0.00  0.00    +0.013 A 
ATOM      3  C   UNL     1       4.171  14.985  59.107  0.00  0.00    +0.019 A 
ATOM     38  C   UNL     1       4.134  14.713  60.537  0.00  0.00    +0.120 A 
ATOM     39  N   UNL     1       2.920  14.445  61.161  0.00  0.00    -0.263 NA
ATOM     40  C   UNL     1       1.703  14.423  60.463  0.00  0.00    +0.111 A 
ENDBRANCH   4   3
ENDBRANCH  10   9
BRANCH  12  13
ATOM     13  N   UNL     1      12.837  16.348  57.762  0.00  0.00    -0.281 N 
ATOM     14  C   UNL     1      13.659  16.734  58.808  0.00  0.00    +0.248 C 
ATOM     30  O   UNL     1      13.691  16.187  59.900  0.00  0.00    -0.270 OA
ATOM     31  H   UNL     1      12.766  17.002  56.982  0.00  0.00    +0.155 HD
BRANCH  14  15
ATOM     15  C   UNL     1      14.565  17.908  58.619  0.00  0.00    +0.037 A 
ATOM     16  C   UNL     1      14.830  18.847  59.711  0.00  0.00    +0.013 A 
ATOM     17  C   UNL     1      15.694  19.981  59.497  0.00  0.00    +0.005 A 
ATOM     18  C   UNL     1      16.303  20.179  58.183  0.00  0.00    -0.033 A 
ATOM     28  C   UNL     1      16.027  19.228  57.119  0.00  0.00    +0.005 A 
ATOM     29  C   UNL     1      15.179  18.117  57.325  0.00  0.00    +0.013 A 
BRANCH  18  19
ATOM     19  C   UNL     1      17.222  21.371  57.859  0.00  0.00    +0.119 C 
BRANCH  19  20
ATOM     20  N   UNL     1      18.689  21.104  57.787  0.00  0.00    -0.302 NA
ATOM     21  C   UNL     1      19.125  20.663  56.386  0.00  0.00    +0.066 C 
ATOM     22  C   UNL     1      20.666  20.409  56.323  0.00  0.00    -0.064 C 
ATOM     23  N   UNL     1      21.050  19.359  57.366  0.00  0.00    +0.379 N 
ATOM     24  C   UNL     1      22.490  19.076  57.270  0.00  0.00    -0.096 C 
ATOM     25  H   UNL     1      20.504  18.420  57.118  0.00  0.00    -0.082 HD
ATOM     26  C   UNL     1      20.619  19.788  58.761  0.00  0.00    -0.064 C 
ATOM     27  C   UNL     1      19.090  20.066  58.806  0.00  0.00    +0.066 C 
ENDBRANCH  19  20
ENDBRANCH  18  19
ENDBRANCH  14  15
ENDBRANCH  12  13
TORSDOF 6
ENDMDL
MODEL 2
REMARK VINA RESULT:      -8.6      4.380     13.431
REMARK  Name = C:\Users\Docking\Desktop\test protocol\1iep_ligandH.pdb
REMARK  8 active torsions:
REMARK  status: ('A' for Active; 'I' for Inactive)
REMARK    1  A    between atoms: _5  and  _11
REMARK    2  A    between atoms: _19  and  _21
REMARK    3  A    between atoms: _22  and  _66
REMARK    4  A    between atoms: _27  and  _30
REMARK    5  A    between atoms: _32  and  _33
REMARK    6  A    between atoms: _38  and  _43
REMARK    7  A    between atoms: _43  and  _46
REMARK    8  A    between atoms: _53  and  _55
REMARK                            x       y       z     vdW  Elec       q    Type
REMARK                         _______ _______ _______ _____ _____    ______ ____
ROOT
ATOM     10  C   UNL     1      19.017  22.510  57.966  0.00  0.00    +0.038 A 
ATOM     11  C   UNL     1      18.341  21.393  58.520  0.00  0.00    +0.047 A 
ATOM     12  C   UNL     1      17.824  20.329  57.674  0.00  0.00    +0.035 A 
ATOM     32  C   UNL     1      18.017  20.433  56.265  0.00  0.00    +0.024 A 
ATOM     33  C   UNL     1      18.701  21.561  55.684  0.00  0.00    +0.007 A 
ATOM     34  C   UNL     1      19.210  22.615  56.514  0.00  0.00    -0.029 A 
ATOM     35  C   UNL     1      19.930  23.804  55.836  0.00  0.00    +0.045 C 
ENDROOT
BRANCH  10   9
ATOM      4  C   UNL     1      18.373  26.386  60.721  0.00  0.00    +0.077 A 
ATOM      5  C   UNL     1      16.976  26.456  60.400  0.00  0.00    +0.048 A 
ATOM      6  C   UNL     1      16.465  25.479  59.516  0.00  0.00    +0.116 A 
ATOM      7  N   UNL     1      17.296  24.510  58.998  0.00  0.00    -0.223 NA
ATOM      8  C   UNL     1      18.639  24.473  59.328  0.00  0.00    +0.220 A 
ATOM      9  N   UNL     1      19.492  23.502  58.825  0.00  0.00    -0.283 N 
ATOM     36  H   UNL     1      20.478  23.513  59.087  0.00  0.00    +0.155 HD
ATOM     37  N   UNL     1      19.152  25.395  60.169  0.00  0.00    -0.214 NA
BRANCH   4   3
ATOM      1  C   UNL     1      21.117  28.490  62.549  0.00  0.00    +0.020 A 
ATOM      2  C   UNL     1      20.503  27.552  61.638  0.00  0.00    +0.013 A 
ATOM      3  C   UNL     1      19.060  27.345  61.643  0.00  0.00    +0.019 A 
ATOM     38  C   UNL     1      18.262  28.109  62.590  0.00  0.00    +0.120 A 
ATOM     39  N   UNL     1      18.881  29.004  63.456  0.00  0.00    -0.263 NA
ATOM     40  C   UNL     1      20.269  29.211  63.461  0.00  0.00    +0.111 A 
ENDBRANCH   4   3
ENDBRANCH  10   9
BRANCH  12  13
ATOM     13  N   UNL     1      17.123  19.176  58.179  0.00  0.00    -0.281 N 
ATOM     14  C   UNL     1      15.941  19.147  58.902  0.00  0.00    +0.248 C 
ATOM     30  O   UNL     1      15.417  20.127  59.409  0.00  0.00    -0.270 OA
ATOM     31  H   UNL     1      17.549  18.270  57.981  0.00  0.00    +0.155 HD
BRANCH  14  15
ATOM     15  C   UNL     1      15.249  17.837  59.102  0.00  0.00    +0.037 A 
ATOM     16  C   UNL     1      15.989  16.640  59.509  0.00  0.00    +0.013 A 
ATOM     17  C   UNL     1      15.300  15.386  59.678  0.00  0.00    +0.005 A 
ATOM     18  C   UNL     1      13.860  15.323  59.441  0.00  0.00    -0.033 A 
ATOM     28  C   UNL     1      13.149  16.526  59.043  0.00  0.00    +0.005 A 
ATOM     29  C   UNL     1      13.821  17.757  58.875  0.00  0.00    +0.013 A 
BRANCH  18  19
ATOM     19  C   UNL     1      13.046  14.022  59.577  0.00  0.00    +0.119 C 
BRANCH  19  20
ATOM     20  N   UNL     1      12.108  13.682  58.466  0.00  0.00    -0.302 NA
ATOM     21  C   UNL     1      10.655  13.607  58.943  0.00  0.00    +0.066 C 
ATOM     22  C   UNL     1       9.685  13.273  57.763  0.00  0.00    -0.064 C 
ATOM     23  N   UNL     1      10.111  11.955  57.114  0.00  0.00    +0.379 N 
ATOM     24  C   UNL     1       9.167  11.609  56.042  0.00  0.00    -0.096 C 
ATOM     25  H   UNL     1      10.046  11.159  57.892  0.00  0.00    -0.082 HD
ATOM     26  C   UNL     1      11.556  12.020  56.639  0.00  0.00    -0.064 C 
ATOM     27  C   UNL     1      12.508  12.382  57.813  0.00  0.00    +0.066 C 
ENDBRANCH  19  20
ENDBRANCH  18  19
ENDBRANCH  14  15
ENDBRANCH  12  13
TORSDOF 6
ENDMDL
MODEL 3
REMARK VINA RESULT:      -8.5      5.449     13.170
REMARK  Name = C:\Users\Docking\Desktop\test protocol\1iep_ligandH.pdb
REMARK  8 active torsions:
REMARK  status: ('A' for Active; 'I' for Inactive)
REMARK    1  A    between atoms: _5  and  _11
REMARK    2  A    between atoms: _19  and  _21
REMARK    3  A    between atoms: _22  and  _66
REMARK    4  A    between atoms: _27  and  _30
REMARK    5  A    between atoms: _32  and  _33
REMARK    6  A    between atoms: _38  and  _43
REMARK    7  A    between atoms: _43  and  _46
REMARK    8  A    between atoms: _53  and  _55
REMARK                            x       y       z     vdW  Elec       q    Type
REMARK                         _______ _______ _______ _____ _____    ______ ____
ROOT
ATOM     10  C   UNL     1      19.312  22.542  57.862  0.00  0.00    +0.038 A 
ATOM     11  C   UNL     1      18.449  21.509  58.309  0.00  0.00    +0.047 A 
ATOM     12  C   UNL     1      18.039  20.433  57.419  0.00  0.00    +0.035 A 
ATOM     32  C   UNL     1      18.529  20.440  56.081  0.00  0.00    +0.024 A 
ATOM     33  C   UNL     1      19.406  21.483  55.610  0.00  0.00    +0.007 A 
ATOM     34  C   UNL     1      19.812  22.548  56.482  0.00  0.00    -0.029 A 
ATOM     35  C   UNL     1      20.748  23.643  55.921  0.00  0.00    +0.045 C 
ENDROOT
BRANCH  10   9
ATOM      4  C   UNL     1      18.274  26.350  60.593  0.00  0.00    +0.077 A 
ATOM      5  C   UNL     1      16.901  26.348  60.177  0.00  0.00    +0.048 A 
ATOM      6  C   UNL     1      16.504  25.355  59.254  0.00  0.00    +0.116 A 
ATOM      7  N   UNL     1      17.420  24.437  58.788  0.00  0.00    -0.223 NA
ATOM      8  C   UNL     1      18.737  24.468  59.208  0.00  0.00    +0.220 A 
ATOM      9  N   UNL     1      19.674  23.550  58.759  0.00  0.00    -0.283 N 
ATOM     36  H   UNL     1      20.637  23.611  59.087  0.00  0.00    +0.155 HD
ATOM     37  N   UNL     1      19.142  25.407  60.088  0.00  0.00    -0.214 NA
BRANCH   4   3
ATOM      1  C   UNL     1      20.775  28.553  62.641  0.00  0.00    +0.020 A 
ATOM      2  C   UNL     1      20.275  27.591  61.686  0.00  0.00    +0.013 A 
ATOM      3  C   UNL     1      18.846  27.335  61.565  0.00  0.00    +0.019 A 
ATOM     38  C   UNL     1      17.941  28.074  62.433  0.00  0.00    +0.120 A 
ATOM     39  N   UNL     1      18.452  28.993  63.345  0.00  0.00    -0.263 NA
ATOM     40  C   UNL     1      19.826  29.247  63.471  0.00  0.00    +0.111 A 
ENDBRANCH   4   3
ENDBRANCH  10   9
BRANCH  12  13
ATOM     13  N   UNL     1      17.159  19.362  57.815  0.00  0.00    -0.281 N 
ATOM     14  C   UNL     1      15.774  19.340  57.779  0.00  0.00    +0.248 C 
ATOM     30  O   UNL     1      15.072  20.325  57.601  0.00  0.00    -0.270 OA
ATOM     31  H   UNL     1      17.611  18.517  58.163  0.00  0.00    +0.155 HD
BRANCH  14  15
ATOM     15  C   UNL     1      15.067  18.040  57.986  0.00  0.00    +0.037 A 
ATOM     16  C   UNL     1      14.003  17.904  58.984  0.00  0.00    +0.013 A 
ATOM     17  C   UNL     1      13.349  16.634  59.175  0.00  0.00    +0.005 A 
ATOM     18  C   UNL     1      13.756  15.489  58.363  0.00  0.00    -0.033 A 
ATOM     28  C   UNL     1      14.810  15.654  57.376  0.00  0.00    +0.005 A 
ATOM     29  C   UNL     1      15.454  16.897  57.187  0.00  0.00    +0.013 A 
BRANCH  18  19
ATOM     19  C   UNL     1      13.127  14.091  58.514  0.00  0.00    +0.119 C 
BRANCH  19  20
ATOM     20  N   UNL     1      13.521  13.289  59.710  0.00  0.00    -0.302 NA
ATOM     21  C   UNL     1      14.984  12.843  59.646  0.00  0.00    +0.066 C 
ATOM     22  C   UNL     1      15.386  12.025  60.917  0.00  0.00    -0.064 C 
ATOM     23  N   UNL     1      14.457  10.817  61.057  0.00  0.00    +0.379 N 
ATOM     24  C   UNL     1      14.868  10.014  62.217  0.00  0.00    -0.096 C 
ATOM     25  H   UNL     1      14.583  10.187  60.146  0.00  0.00    -0.082 HD
ATOM     26  C   UNL     1      12.999  11.252  61.118  0.00  0.00    -0.064 C 
ATOM     27  C   UNL     1      12.619  12.090  59.865  0.00  0.00    +0.066 C 
ENDBRANCH  19  20
ENDBRANCH  18  19
ENDBRANCH  14  15
ENDBRANCH  12  13
TORSDOF 6
ENDMDL
MODEL 4
REMARK VINA RESULT:      -8.4      2.187     12.940
REMARK  Name = C:\Users\Docking\Desktop\test protocol\1iep_ligandH.pdb
REMARK  8 active torsions:
REMARK  status: ('A' for Active; 'I' for Inactive)
REMARK    1  A    between atoms: _5  and  _11
REMARK    2  A    between atoms: _19  and  _21
REMARK    3  A    between atoms: _22  and  _66
REMARK    4  A    between atoms: _27  and  _30
REMARK    5  A    between atoms: _32  and  _33
REMARK    6  A    between atoms: _38  and  _43
REMARK    7  A    between atoms: _43  and  _46
REMARK    8  A    between atoms: _53  and  _55
REMARK                            x       y       z     vdW  Elec       q    Type
REMARK                         _______ _______ _______ _____ _____    ______ ____
ROOT
ATOM     10  C   UNL     1      12.762  15.449  57.769  0.00  0.00    +0.038 A 
ATOM     11  C   UNL     1      11.402  15.753  58.035  0.00  0.00    +0.047 A 
ATOM     12  C   UNL     1      10.462  14.716  58.430  0.00  0.00    +0.035 A 
ATOM     32  C   UNL     1      10.942  13.379  58.548  0.00  0.00    +0.024 A 
ATOM     33  C   UNL     1      12.320  13.052  58.280  0.00  0.00    +0.007 A 
ATOM     34  C   UNL     1      13.251  14.070  57.887  0.00  0.00    -0.029 A 
ATOM     35  C   UNL     1      14.716  13.661  57.607  0.00  0.00    +0.045 C 
ENDROOT
BRANCH  10   9
ATOM      4  C   UNL     1      15.369  19.355  58.758  0.00  0.00    +0.077 A 
ATOM      5  C   UNL     1      14.965  19.349  60.135  0.00  0.00    +0.048 A 
ATOM      6  C   UNL     1      14.079  18.328  60.546  0.00  0.00    +0.116 A 
ATOM      7  N   UNL     1      13.638  17.388  59.640  0.00  0.00    -0.223 NA
ATOM      8  C   UNL     1      14.046  17.424  58.319  0.00  0.00    +0.220 A 
ATOM      9  N   UNL     1      13.621  16.484  57.393  0.00  0.00    -0.283 N 
ATOM     36  H   UNL     1      13.939  16.549  56.426  0.00  0.00    +0.155 HD
ATOM     37  N   UNL     1      14.890  18.390  57.901  0.00  0.00    -0.214 NA
BRANCH   4   3
ATOM      1  C   UNL     1      17.851  21.198  56.362  0.00  0.00    +0.020 A 
ATOM      2  C   UNL     1      16.958  20.189  56.883  0.00  0.00    +0.013 A 
ATOM      3  C   UNL     1      16.304  20.368  58.172  0.00  0.00    +0.019 A 
ATOM     38  C   UNL     1      16.576  21.589  58.916  0.00  0.00    +0.120 A 
ATOM     39  N   UNL     1      17.442  22.543  58.390  0.00  0.00    -0.263 NA
ATOM     40  C   UNL     1      18.079  22.381  57.150  0.00  0.00    +0.111 A 
ENDBRANCH   4   3
ENDBRANCH  10   9
BRANCH  12  13
ATOM     13  N   UNL     1       9.069  14.964  58.705  0.00  0.00    -0.281 N 
ATOM     14  C   UNL     1       8.087  15.381  57.821  0.00  0.00    +0.248 C 
ATOM     30  O   UNL     1       8.306  15.813  56.699  0.00  0.00    -0.270 OA
ATOM     31  H   UNL     1       8.769  14.814  59.669  0.00  0.00    +0.155 HD
BRANCH  14  15
ATOM     15  C   UNL     1       6.657  15.325  58.251  0.00  0.00    +0.037 A 
ATOM     16  C   UNL     1       5.646  16.193  57.642  0.00  0.00    +0.013 A 
ATOM     17  C   UNL     1       4.276  16.131  58.088  0.00  0.00    +0.005 A 
ATOM     18  C   UNL     1       3.910  15.194  59.147  0.00  0.00    -0.033 A 
ATOM     28  C   UNL     1       4.932  14.340  59.730  0.00  0.00    +0.005 A 
ATOM     29  C   UNL     1       6.275  14.400  59.297  0.00  0.00    +0.013 A 
BRANCH  18  19
ATOM     19  C   UNL     1       2.477  15.075  59.699  0.00  0.00    +0.119 C 
BRANCH  19  20
ATOM     20  N   UNL     1       2.305  14.385  61.013  0.00  0.00    -0.302 NA
ATOM     21  C   UNL     1       1.654  13.008  60.858  0.00  0.00    +0.066 C 
ATOM     22  C   UNL     1       1.503  12.291  62.239  0.00  0.00    -0.064 C 
ATOM     23  N   UNL     1       0.684  13.174  63.182  0.00  0.00    +0.379 N 
ATOM     24  C   UNL     1       0.490  12.478  64.462  0.00  0.00    -0.096 C 
ATOM     25  H   UNL     1      -0.321  13.320  62.720  0.00  0.00    -0.082 HD
ATOM     26  C   UNL     1       1.322  14.547  63.339  0.00  0.00    -0.064 C 
ATOM     27  C   UNL     1       1.495  15.238  61.958  0.00  0.00    +0.066 C 
ENDBRANCH  19  20
ENDBRANCH  18  19
ENDBRANCH  14  15
ENDBRANCH  12  13
TORSDOF 6
ENDMDL
MODEL 5
REMARK VINA RESULT:      -8.4      1.990      3.022
REMARK  Name = C:\Users\Docking\Desktop\test protocol\1iep_ligandH.pdb
REMARK  8 active torsions:
REMARK  status: ('A' for Active; 'I' for Inactive)
REMARK    1  A    between atoms: _5  and  _11
REMARK    2  A    between atoms: _19  and  _21
REMARK    3  A    between atoms: _22  and  _66
REMARK    4  A    between atoms: _27  and  _30
REMARK    5  A    between atoms: _32  and  _33
REMARK    6  A    between atoms: _38  and  _43
REMARK    7  A    between atoms: _43  and  _46
REMARK    8  A    between atoms: _53  and  _55
REMARK                            x       y       z     vdW  Elec       q    Type
REMARK                         _______ _______ _______ _____ _____    ______ ____
ROOT
ATOM     10  C   UNL     1      10.756  14.023  58.120  0.00  0.00    +0.038 A 
ATOM     11  C   UNL     1      11.446  15.252  58.280  0.00  0.00    +0.047 A 
ATOM     12  C   UNL     1      12.783  15.440  57.738  0.00  0.00    +0.035 A 
ATOM     32  C   UNL     1      13.387  14.356  57.037  0.00  0.00    +0.024 A 
ATOM     33  C   UNL     1      12.700  13.100  56.866  0.00  0.00    +0.007 A 
ATOM     34  C   UNL     1      11.382  12.907  57.401  0.00  0.00    -0.029 A 
ATOM     35  C   UNL     1      10.696  11.537  57.194  0.00  0.00    +0.045 C 
ENDROOT
BRANCH  10   9
ATOM      4  C   UNL     1       6.135  15.290  58.394  0.00  0.00    +0.077 A 
ATOM      5  C   UNL     1       6.293  16.306  57.395  0.00  0.00    +0.048 A 
ATOM      6  C   UNL     1       7.582  16.476  56.840  0.00  0.00    +0.116 A 
ATOM      7  N   UNL     1       8.626  15.682  57.261  0.00  0.00    -0.223 NA
ATOM      8  C   UNL     1       8.440  14.712  58.228  0.00  0.00    +0.220 A 
ATOM      9  N   UNL     1       9.475  13.897  58.661  0.00  0.00    -0.283 N 
ATOM     36  H   UNL     1       9.298  13.198  59.382  0.00  0.00    +0.155 HD
ATOM     37  N   UNL     1       7.219  14.531  58.775  0.00  0.00    -0.214 NA
BRANCH   4   3
ATOM      1  C   UNL     1       2.323  14.751  59.086  0.00  0.00    +0.020 A 
ATOM      2  C   UNL     1       3.550  15.053  58.386  0.00  0.00    +0.013 A 
ATOM      3  C   UNL     1       4.834  14.987  59.072  0.00  0.00    +0.019 A 
ATOM     38  C   UNL     1       4.843  14.609  60.477  0.00  0.00    +0.120 A 
ATOM     39  N   UNL     1       3.645  14.326  61.126  0.00  0.00    -0.263 NA
ATOM     40  C   UNL     1       2.403  14.387  60.476  0.00  0.00    +0.111 A 
ENDBRANCH   4   3
ENDBRANCH  10   9
BRANCH  12  13
ATOM     13  N   UNL     1      13.535  16.663  57.875  0.00  0.00    -0.281 N 
ATOM     14  C   UNL     1      14.323  17.062  58.942  0.00  0.00    +0.248 C 
ATOM     30  O   UNL     1      14.329  16.521  60.038  0.00  0.00    -0.270 OA
ATOM     31  H   UNL     1      13.481  17.312  57.091  0.00  0.00    +0.155 HD
BRANCH  14  15
ATOM     15  C   UNL     1      15.223  18.243  58.773  0.00  0.00    +0.037 A 
ATOM     16  C   UNL     1      16.185  18.621  59.812  0.00  0.00    +0.013 A 
ATOM     17  C   UNL     1      17.030  19.775  59.630  0.00  0.00    +0.005 A 
ATOM     18  C   UNL     1      16.917  20.559  58.402  0.00  0.00    -0.033 A 
ATOM     28  C   UNL     1      15.958  20.158  57.386  0.00  0.00    +0.005 A 
ATOM     29  C   UNL     1      15.128  19.029  57.561  0.00  0.00    +0.013 A 
BRANCH  18  19
ATOM     19  C   UNL     1      17.764  21.817  58.133  0.00  0.00    +0.119 C 
BRANCH  19  20
ATOM     20  N   UNL     1      17.602  22.964  59.075  0.00  0.00    -0.302 NA
ATOM     21  C   UNL     1      16.145  23.153  59.506  0.00  0.00    +0.066 C 
ATOM     22  C   UNL     1      15.997  24.343  60.508  0.00  0.00    -0.064 C 
ATOM     23  N   UNL     1      16.541  25.620  59.864  0.00  0.00    +0.379 N 
ATOM     24  C   UNL     1      16.351  26.752  60.782  0.00  0.00    -0.096 C 
ATOM     25  H   UNL     1      15.936  25.820  58.949  0.00  0.00    -0.082 HD
ATOM     26  C   UNL     1      17.989  25.440  59.430  0.00  0.00    -0.064 C 
ATOM     27  C   UNL     1      18.129  24.236  58.457  0.00  0.00    +0.066 C 
ENDBRANCH  19  20
ENDBRANCH  18  19
ENDBRANCH  14  15
ENDBRANCH  12  13
TORSDOF 6
ENDMDL
