MODEL 1
REMARK VINA RESULT:      -9.3      0.000      0.000
REMARK  Name = C:\Users\Docking\Desktop\test protocol\1iep_ligandH.pdb
REMARK  8 active torsions:
REMARK  status: ('A' for Active; 'I' for Inactive)
REMARK    1  A    between atoms: _5  and  _11
REMARK    2  A    between atoms: _19  and  _21
REMARK    3  A    between atoms: _22  and  _66
REMARK    4  A    between atoms: _27  and  _30
REMARK    5  A    between atoms: _32  and  _33
REMARK    6  A    between atoms: _38  and  _43
REMARK    7  A    between atoms: _43  and  _46
REMARK    8  A    between atoms: _53  and  _55
REMARK                            x       y       z     vdW  Elec       q    Type
REMARK                         _______ _______ _______ _____ _____    ______ ____
ROOT
ATOM     10  C   UNL     1      17.441  -5.428  31.830  0.00  0.00    +0.038 A 
ATOM     11  C   UNL     1      18.180  -6.194  30.892  0.00  0.00    +0.047 A 
ATOM     12  C   UNL     1      17.545  -7.243  30.110  0.00  0.00    +0.035 A 
ATOM     32  C   UNL     1      16.154  -7.484  30.306  0.00  0.00    +0.024 A 
ATOM     33  C   UNL     1      15.387  -6.716  31.255  0.00  0.00    +0.007 A 
ATOM     34  C   UNL     1      16.009  -5.681  32.031  0.00  0.00    -0.029 A 
ATOM     35  C   UNL     1      15.140  -4.894  33.039  0.00  0.00    +0.045 C 
ENDROOT
BRANCH  10   9
ATOM      4  C   UNL     1      19.837  -1.279  32.106  0.00  0.00    +0.077 A 
ATOM      5  C   UNL     1      19.793  -1.091  30.685  0.00  0.00    +0.048 A 
ATOM      6  C   UNL     1      19.151  -2.088  29.918  0.00  0.00    +0.116 A 
ATOM      7  N   UNL     1      18.597  -3.188  30.537  0.00  0.00    -0.223 NA
ATOM      8  C   UNL     1      18.658  -3.340  31.910  0.00  0.00    +0.220 A 
ATOM      9  N   UNL     1      18.101  -4.433  32.554  0.00  0.00    -0.283 N 
ATOM     36  H   UNL     1      18.174  -4.512  33.568  0.00  0.00    +0.155 HD
ATOM     37  N   UNL     1      19.267  -2.402  32.664  0.00  0.00    -0.214 NA
BRANCH   4   3
ATOM      1  C   UNL     1      22.182   0.305  34.807  0.00  0.00    +0.020 A 
ATOM      2  C   UNL     1      21.600  -0.667  33.911  0.00  0.00    +0.013 A 
ATOM      3  C   UNL     1      20.477  -0.311  33.052  0.00  0.00    +0.019 A 
ATOM     38  C   UNL     1      19.965   1.049  33.123  0.00  0.00    +0.120 A 
ATOM     39  N   UNL     1      20.545   1.964  33.996  0.00  0.00    -0.263 NA
ATOM     40  C   UNL     1      21.624   1.632  34.829  0.00  0.00    +0.111 A 
ENDBRANCH   4   3
ENDBRANCH  10   9
BRANCH  12  13
ATOM     13  N   UNL     1      18.246  -8.059  29.150  0.00  0.00    -0.281 N 
ATOM     14  C   UNL     1      18.769  -7.674  27.926  0.00  0.00    +0.248 C 
ATOM     30  O   UNL     1      18.524  -6.612  27.373  0.00  0.00    -0.270 OA
ATOM     31  H   UNL     1      18.373  -9.039  29.403  0.00  0.00    +0.155 HD
BRANCH  14  15
ATOM     15  C   UNL     1      19.685  -8.610  27.205  0.00  0.00    +0.037 A 
ATOM     16  C   UNL     1      19.426 -10.051  27.172  0.00  0.00    +0.013 A 
ATOM     17  C   UNL     1      20.334 -10.934  26.484  0.00  0.00    +0.005 A 
ATOM     18  C   UNL     1      21.511 -10.376  25.821  0.00  0.00    -0.033 A 
ATOM     28  C   UNL     1      21.740  -8.941  25.865  0.00  0.00    +0.005 A 
ATOM     29  C   UNL     1      20.852  -8.073  26.539  0.00  0.00    +0.013 A 
BRANCH  18  19
ATOM     19  C   UNL     1      22.545 -11.245  25.082  0.00  0.00    +0.119 C 
BRANCH  19  20
ATOM     20  N   UNL     1      22.178 -11.734  23.719  0.00  0.00    -0.302 NA
ATOM     21  C   UNL     1      22.313 -13.254  23.599  0.00  0.00    +0.066 C 
ATOM     22  C   UNL     1      21.903 -13.751  22.174  0.00  0.00    -0.064 C 
ATOM     23  N   UNL     1      22.764 -13.046  21.124  0.00  0.00    +0.379 N 
ATOM     24  C   UNL     1      22.422 -13.553  19.787  0.00  0.00    -0.096 C 
ATOM     25  H   UNL     1      23.828 -13.312  21.325  0.00  0.00    -0.082 HD
ATOM     26  C   UNL     1      22.638 -11.533  21.239  0.00  0.00    -0.064 C 
ATOM     27  C   UNL     1      23.019 -11.053  22.667  0.00  0.00    +0.066 C 
ENDBRANCH  19  20
ENDBRANCH  18  19
ENDBRANCH  14  15
ENDBRANCH  12  13
TORSDOF 6
ENDMDL
MODEL 2
REMARK VINA RESULT:      -9.0     24.451     28.345
REMARK  Name = C:\Users\Docking\Desktop\test protocol\1iep_ligandH.pdb
REMARK  8 active torsions:
REMARK  status: ('A' for Active; 'I' for Inactive)
REMARK    1  A    between atoms: _5  and  _11
REMARK    2  A    between atoms: _19  and  _21
REMARK    3  A    between atoms: _22  and  _66
REMARK    4  A    between atoms: _27  and  _30
REMARK    5  A    between atoms: _32  and  _33
REMARK    6  A    between atoms: _38  and  _43
REMARK    7  A    between atoms: _43  and  _46
REMARK    8  A    between atoms: _53  and  _55
REMARK                            x       y       z     vdW  Elec       q    Type
REMARK                         _______ _______ _______ _____ _____    ______ ____
ROOT
ATOM     10  C   UNL     1      -1.169 -12.344  21.333  0.00  0.00    +0.038 A 
ATOM     11  C   UNL     1      -2.539 -12.704  21.257  0.00  0.00    +0.047 A 
ATOM     12  C   UNL     1      -3.352 -12.828  22.457  0.00  0.00    +0.035 A 
ATOM     32  C   UNL     1      -2.738 -12.576  23.718  0.00  0.00    +0.024 A 
ATOM     33  C   UNL     1      -1.346 -12.210  23.814  0.00  0.00    +0.007 A 
ATOM     34  C   UNL     1      -0.539 -12.089  22.634  0.00  0.00    -0.029 A 
ATOM     35  C   UNL     1       0.950 -11.701  22.796  0.00  0.00    +0.045 C 
ENDROOT
BRANCH  10   9
ATOM      4  C   UNL     1       0.198  -9.961  17.398  0.00  0.00    +0.077 A 
ATOM      5  C   UNL     1      -0.640  -8.840  17.713  0.00  0.00    +0.048 A 
ATOM      6  C   UNL     1      -1.412  -8.920  18.894  0.00  0.00    +0.116 A 
ATOM      7  N   UNL     1      -1.344 -10.041  19.692  0.00  0.00    -0.223 NA
ATOM      8  C   UNL     1      -0.526 -11.105  19.357  0.00  0.00    +0.220 A 
ATOM      9  N   UNL     1      -0.436 -12.240  20.149  0.00  0.00    -0.283 N 
ATOM     36  H   UNL     1       0.173 -13.006  19.864  0.00  0.00    +0.155 HD
ATOM     37  N   UNL     1       0.220 -11.054  18.234  0.00  0.00    -0.214 NA
BRANCH   4   3
ATOM      1  C   UNL     1       1.617  -9.474  13.785  0.00  0.00    +0.020 A 
ATOM      2  C   UNL     1       0.734  -9.381  14.925  0.00  0.00    +0.013 A 
ATOM      3  C   UNL     1       1.076 -10.025  16.186  0.00  0.00    +0.019 A 
ATOM     38  C   UNL     1       2.330 -10.760  16.263  0.00  0.00    +0.120 A 
ATOM     39  N   UNL     1       3.160 -10.833  15.148  0.00  0.00    -0.263 NA
ATOM     40  C   UNL     1       2.840 -10.219  13.928  0.00  0.00    +0.111 A 
ENDBRANCH   4   3
ENDBRANCH  10   9
BRANCH  12  13
ATOM     13  N   UNL     1      -4.746 -13.197  22.443  0.00  0.00    -0.281 N 
ATOM     14  C   UNL     1      -5.308 -14.414  22.793  0.00  0.00    +0.248 C 
ATOM     30  O   UNL     1      -4.673 -15.443  22.969  0.00  0.00    -0.270 OA
ATOM     31  H   UNL     1      -5.397 -12.473  22.138  0.00  0.00    +0.155 HD
BRANCH  14  15
ATOM     15  C   UNL     1      -6.791 -14.503  22.957  0.00  0.00    +0.037 A 
ATOM     16  C   UNL     1      -7.548 -13.437  23.617  0.00  0.00    +0.013 A 
ATOM     17  C   UNL     1      -8.976 -13.556  23.777  0.00  0.00    +0.005 A 
ATOM     18  C   UNL     1      -9.656 -14.748  23.275  0.00  0.00    -0.033 A 
ATOM     28  C   UNL     1      -8.881 -15.788  22.620  0.00  0.00    +0.005 A 
ATOM     29  C   UNL     1      -7.481 -15.675  22.462  0.00  0.00    +0.013 A 
BRANCH  18  19
ATOM     19  C   UNL     1     -11.173 -14.969  23.421  0.00  0.00    +0.119 C 
BRANCH  19  20
ATOM     20  N   UNL     1     -11.618 -16.197  24.145  0.00  0.00    -0.302 NA
ATOM     21  C   UNL     1     -12.942 -16.739  23.599  0.00  0.00    +0.066 C 
ATOM     22  C   UNL     1     -13.381 -18.036  24.353  0.00  0.00    -0.064 C 
ATOM     23  N   UNL     1     -13.494 -17.739  25.849  0.00  0.00    +0.379 N 
ATOM     24  C   UNL     1     -13.963 -18.941  26.553  0.00  0.00    -0.096 C 
ATOM     25  H   UNL     1     -14.268 -16.947  25.979  0.00  0.00    -0.082 HD
ATOM     26  C   UNL     1     -12.183 -17.198  26.400  0.00  0.00    -0.064 C 
ATOM     27  C   UNL     1     -11.740 -15.925  25.625  0.00  0.00    +0.066 C 
ENDBRANCH  19  20
ENDBRANCH  18  19
ENDBRANCH  14  15
ENDBRANCH  12  13
TORSDOF 6
ENDMDL
MODEL 3
REMARK VINA RESULT:      -8.9     23.136     26.643
REMARK  Name = C:\Users\Docking\Desktop\test protocol\1iep_ligandH.pdb
REMARK  8 active torsions:
REMARK  status: ('A' for Active; 'I' for Inactive)
REMARK    1  A    between atoms: _5  and  _11
REMARK    2  A    between atoms: _19  and  _21
REMARK    3  A    between atoms: _22  and  _66
REMARK    4  A    between atoms: _27  and  _30
REMARK    5  A    between atoms: _32  and  _33
REMARK    6  A    between atoms: _38  and  _43
REMARK    7  A    between atoms: _43  and  _46
REMARK    8  A    between atoms: _53  and  _55
REMARK                            x       y       z     vdW  Elec       q    Type
REMARK                         _______ _______ _______ _____ _____    ______ ____
ROOT
ATOM     10  C   UNL     1      -3.448   7.481  28.010  0.00  0.00    +0.038 A 
ATOM     11  C   UNL     1      -2.184   7.846  27.481  0.00  0.00    +0.047 A 
ATOM     12  C   UNL     1      -1.429   6.934  26.636  0.00  0.00    +0.035 A 
ATOM     32  C   UNL     1      -1.993   5.657  26.348  0.00  0.00    +0.024 A 
ATOM     33  C   UNL     1      -3.277   5.269  26.878  0.00  0.00    +0.007 A 
ATOM     34  C   UNL     1      -4.025   6.164  27.713  0.00  0.00    -0.029 A 
ATOM     35  C   UNL     1      -5.393   5.692  28.259  0.00  0.00    +0.045 C 
ENDROOT
BRANCH  10   9
ATOM      4  C   UNL     1      -4.600   9.312  32.294  0.00  0.00    +0.077 A 
ATOM      5  C   UNL     1      -3.798   8.346  32.989  0.00  0.00    +0.048 A 
ATOM      6  C   UNL     1      -3.110   7.391  32.207  0.00  0.00    +0.116 A 
ATOM      7  N   UNL     1      -3.224   7.410  30.833  0.00  0.00    -0.223 NA
ATOM      8  C   UNL     1      -4.007   8.354  30.195  0.00  0.00    +0.220 A 
ATOM      9  N   UNL     1      -4.130   8.396  28.815  0.00  0.00    -0.283 N 
ATOM     36  H   UNL     1      -4.723   9.104  28.383  0.00  0.00    +0.155 HD
ATOM     37  N   UNL     1      -4.675   9.276  30.920  0.00  0.00    -0.214 NA
BRANCH   4   3
ATOM      1  C   UNL     1      -6.662  11.312  34.949  0.00  0.00    +0.020 A 
ATOM      2  C   UNL     1      -5.912  10.243  34.332  0.00  0.00    +0.013 A 
ATOM      3  C   UNL     1      -5.384  10.387  32.981  0.00  0.00    +0.019 A 
ATOM     38  C   UNL     1      -5.635  11.636  32.276  0.00  0.00    +0.120 A 
ATOM     39  N   UNL     1      -6.362  12.647  32.896  0.00  0.00    -0.263 NA
ATOM     40  C   UNL     1      -6.876  12.519  34.195  0.00  0.00    +0.111 A 
ENDBRANCH   4   3
ENDBRANCH  10   9
BRANCH  12  13
ATOM     13  N   UNL     1      -0.137   7.247  26.078  0.00  0.00    -0.281 N 
ATOM     14  C   UNL     1       0.155   8.123  25.046  0.00  0.00    +0.248 C 
ATOM     30  O   UNL     1      -0.678   8.614  24.299  0.00  0.00    -0.270 OA
ATOM     31  H   UNL     1       0.659   6.763  26.494  0.00  0.00    +0.155 HD
BRANCH  14  15
ATOM     15  C   UNL     1       1.581   8.497  24.798  0.00  0.00    +0.037 A 
ATOM     16  C   UNL     1       2.457   8.920  25.893  0.00  0.00    +0.013 A 
ATOM     17  C   UNL     1       3.824   9.292  25.624  0.00  0.00    +0.005 A 
ATOM     18  C   UNL     1       4.323   9.241  24.252  0.00  0.00    -0.033 A 
ATOM     28  C   UNL     1       3.433   8.812  23.185  0.00  0.00    +0.005 A 
ATOM     29  C   UNL     1       2.093   8.448  23.445  0.00  0.00    +0.013 A 
BRANCH  18  19
ATOM     19  C   UNL     1       5.760   9.640  23.869  0.00  0.00    +0.119 C 
BRANCH  19  20
ATOM     20  N   UNL     1       5.922  10.699  22.829  0.00  0.00    -0.302 NA
ATOM     21  C   UNL     1       7.369  10.807  22.339  0.00  0.00    +0.066 C 
ATOM     22  C   UNL     1       7.516  11.905  21.236  0.00  0.00    -0.064 C 
ATOM     23  N   UNL     1       7.029  13.246  21.787  0.00  0.00    +0.379 N 
ATOM     24  C   UNL     1       7.220  14.292  20.771  0.00  0.00    -0.096 C 
ATOM     25  H   UNL     1       7.669  13.504  22.662  0.00  0.00    -0.082 HD
ATOM     26  C   UNL     1       5.592  13.147  22.279  0.00  0.00    -0.064 C 
ATOM     27  C   UNL     1       5.451  12.034  23.354  0.00  0.00    +0.066 C 
ENDBRANCH  19  20
ENDBRANCH  18  19
ENDBRANCH  14  15
ENDBRANCH  12  13
TORSDOF 6
ENDMDL
MODEL 4
REMARK VINA RESULT:      -8.8     24.733     30.187
REMARK  Name = C:\Users\Docking\Desktop\test protocol\1iep_ligandH.pdb
REMARK  8 active torsions:
REMARK  status: ('A' for Active; 'I' for Inactive)
REMARK    1  A    between atoms: _5  and  _11
REMARK    2  A    between atoms: _19  and  _21
REMARK    3  A    between atoms: _22  and  _66
REMARK    4  A    between atoms: _27  and  _30
REMARK    5  A    between atoms: _32  and  _33
REMARK    6  A    between atoms: _38  and  _43
REMARK    7  A    between atoms: _43  and  _46
REMARK    8  A    between atoms: _53  and  _55
REMARK                            x       y       z     vdW  Elec       q    Type
REMARK                         _______ _______ _______ _____ _____    ______ ____
ROOT
ATOM     10  C   UNL     1      -1.374   6.963  27.672  0.00  0.00    +0.038 A 
ATOM     11  C   UNL     1      -2.071   7.771  28.606  0.00  0.00    +0.047 A 
ATOM     12  C   UNL     1      -3.429   7.449  29.014  0.00  0.00    +0.035 A 
ATOM     32  C   UNL     1      -4.047   6.294  28.452  0.00  0.00    +0.024 A 
ATOM     33  C   UNL     1      -3.354   5.462  27.500  0.00  0.00    +0.007 A 
ATOM     34  C   UNL     1      -2.014   5.777  27.092  0.00  0.00    -0.029 A 
ATOM     35  C   UNL     1      -1.321   4.853  26.063  0.00  0.00    +0.045 C 
ENDROOT
BRANCH  10   9
ATOM      4  C   UNL     1       1.767   9.280  24.879  0.00  0.00    +0.077 A 
ATOM      5  C   UNL     1       0.727   9.804  24.041  0.00  0.00    +0.048 A 
ATOM      6  C   UNL     1      -0.603   9.447  24.359  0.00  0.00    +0.116 A 
ATOM      7  N   UNL     1      -0.861   8.628  25.437  0.00  0.00    -0.223 NA
ATOM      8  C   UNL     1       0.166   8.139  26.223  0.00  0.00    +0.220 A 
ATOM      9  N   UNL     1      -0.071   7.320  27.316  0.00  0.00    -0.283 N 
ATOM     36  H   UNL     1       0.715   6.974  27.867  0.00  0.00    +0.155 HD
ATOM     37  N   UNL     1       1.445   8.464  25.939  0.00  0.00    -0.214 NA
BRANCH   4   3
ATOM      1  C   UNL     1       5.639   9.502  25.394  0.00  0.00    +0.020 A 
ATOM      2  C   UNL     1       4.248   9.200  25.641  0.00  0.00    +0.013 A 
ATOM      3  C   UNL     1       3.222   9.570  24.673  0.00  0.00    +0.019 A 
ATOM     38  C   UNL     1       3.641  10.248  23.456  0.00  0.00    +0.120 A 
ATOM     39  N   UNL     1       4.988  10.528  23.246  0.00  0.00    -0.263 NA
ATOM     40  C   UNL     1       5.983  10.178  24.171  0.00  0.00    +0.111 A 
ENDBRANCH   4   3
ENDBRANCH  10   9
BRANCH  12  13
ATOM     13  N   UNL     1      -4.189   8.236  29.953  0.00  0.00    -0.281 N 
ATOM     14  C   UNL     1      -3.952   8.411  31.306  0.00  0.00    +0.248 C 
ATOM     30  O   UNL     1      -3.168   7.742  31.963  0.00  0.00    -0.270 OA
ATOM     31  H   UNL     1      -5.001   8.723  29.573  0.00  0.00    +0.155 HD
BRANCH  14  15
ATOM     15  C   UNL     1      -4.705   9.474  32.040  0.00  0.00    +0.037 A 
ATOM     16  C   UNL     1      -4.691  10.866  31.584  0.00  0.00    +0.013 A 
ATOM     17  C   UNL     1      -5.412  11.875  32.320  0.00  0.00    +0.005 A 
ATOM     18  C   UNL     1      -6.154  11.493  33.519  0.00  0.00    -0.033 A 
ATOM     28  C   UNL     1      -6.155  10.103  33.945  0.00  0.00    +0.005 A 
ATOM     29  C   UNL     1      -5.449   9.113  33.227  0.00  0.00    +0.013 A 
BRANCH  18  19
ATOM     19  C   UNL     1      -6.934  12.506  34.378  0.00  0.00    +0.119 C 
BRANCH  19  20
ATOM     20  N   UNL     1      -8.425  12.414  34.360  0.00  0.00    -0.302 NA
ATOM     21  C   UNL     1      -8.999  12.669  32.964  0.00  0.00    +0.066 C 
ATOM     22  C   UNL     1     -10.558  12.546  32.958  0.00  0.00    -0.064 C 
ATOM     23  N   UNL     1     -11.148  13.526  33.974  0.00  0.00    +0.379 N 
ATOM     24  C   UNL     1     -12.616  13.454  33.930  0.00  0.00    -0.096 C 
ATOM     25  H   UNL     1     -10.850  14.554  33.664  0.00  0.00    -0.082 HD
ATOM     26  C   UNL     1     -10.580  13.280  35.365  0.00  0.00    -0.064 C 
ATOM     27  C   UNL     1      -9.028  13.376  35.353  0.00  0.00    +0.066 C 
ENDBRANCH  19  20
ENDBRANCH  18  19
ENDBRANCH  14  15
ENDBRANCH  12  13
TORSDOF 6
ENDMDL
MODEL 5
REMARK VINA RESULT:      -8.6     23.280     26.368
REMARK  Name = C:\Users\Docking\Desktop\test protocol\1iep_ligandH.pdb
REMARK  8 active torsions:
REMARK  status: ('A' for Active; 'I' for Inactive)
REMARK    1  A    between atoms: _5  and  _11
REMARK    2  A    between atoms: _19  and  _21
REMARK    3  A    between atoms: _22  and  _66
REMARK    4  A    between atoms: _27  and  _30
REMARK    5  A    between atoms: _32  and  _33
REMARK    6  A    between atoms: _38  and  _43
REMARK    7  A    between atoms: _43  and  _46
REMARK    8  A    between atoms: _53  and  _55
REMARK                            x       y       z     vdW  Elec       q    Type
REMARK                         _______ _______ _______ _____ _____    ______ ____
ROOT
ATOM     10  C   UNL     1      -2.807 -11.949  22.319  0.00  0.00    +0.038 A 
ATOM     11  C   UNL     1      -2.531 -11.589  20.975  0.00  0.00    +0.047 A 
ATOM     12  C   UNL     1      -1.165 -11.423  20.505  0.00  0.00    +0.035 A 
ATOM     32  C   UNL     1      -0.102 -11.636  21.431  0.00  0.00    +0.024 A 
ATOM     33  C   UNL     1      -0.363 -12.001  22.801  0.00  0.00    +0.007 A 
ATOM     34  C   UNL     1      -1.709 -12.163  23.271  0.00  0.00    -0.029 A 
ATOM     35  C   UNL     1      -1.931 -12.550  24.752  0.00  0.00    +0.045 C 
ENDROOT
BRANCH  10   9
ATOM      4  C   UNL     1      -6.577 -14.636  23.586  0.00  0.00    +0.077 A 
ATOM      5  C   UNL     1      -5.840 -15.855  23.415  0.00  0.00    +0.048 A 
ATOM      6  C   UNL     1      -4.496 -15.747  22.994  0.00  0.00    +0.116 A 
ATOM      7  N   UNL     1      -3.940 -14.508  22.763  0.00  0.00    -0.223 NA
ATOM      8  C   UNL     1      -4.679 -13.351  22.935  0.00  0.00    +0.220 A 
ATOM      9  N   UNL     1      -4.138 -12.094  22.716  0.00  0.00    -0.283 N 
ATOM     36  H   UNL     1      -4.718 -11.266  22.847  0.00  0.00    +0.155 HD
ATOM     37  N   UNL     1      -5.965 -13.428  23.336  0.00  0.00    -0.214 NA
BRANCH   4   3
ATOM      1  C   UNL     1     -10.334 -13.616  23.965  0.00  0.00    +0.020 A 
ATOM      2  C   UNL     1      -8.965 -13.622  23.503  0.00  0.00    +0.013 A 
ATOM      3  C   UNL     1      -8.006 -14.585  24.029  0.00  0.00    +0.019 A 
ATOM     38  C   UNL     1      -8.467 -15.536  25.030  0.00  0.00    +0.120 A 
ATOM     39  N   UNL     1      -9.791 -15.505  25.456  0.00  0.00    -0.263 NA
ATOM     40  C   UNL     1     -10.723 -14.582  24.958  0.00  0.00    +0.111 A 
ENDBRANCH   4   3
ENDBRANCH  10   9
BRANCH  12  13
ATOM     13  N   UNL     1      -0.824 -11.051  19.154  0.00  0.00    -0.281 N 
ATOM     14  C   UNL     1      -0.343  -9.833  18.702  0.00  0.00    +0.248 C 
ATOM     30  O   UNL     1      -0.334  -8.805  19.363  0.00  0.00    -0.270 OA
ATOM     31  H   UNL     1      -0.954 -11.773  18.445  0.00  0.00    +0.155 HD
BRANCH  14  15
ATOM     15  C   UNL     1       0.192  -9.740  17.310  0.00  0.00    +0.037 A 
ATOM     16  C   UNL     1      -0.326  -8.752  16.361  0.00  0.00    +0.013 A 
ATOM     17  C   UNL     1       0.196  -8.695  15.019  0.00  0.00    +0.005 A 
ATOM     18  C   UNL     1       1.245  -9.629  14.618  0.00  0.00    -0.033 A 
ATOM     28  C   UNL     1       1.745 -10.596  15.581  0.00  0.00    +0.005 A 
ATOM     29  C   UNL     1       1.235 -10.656  16.898  0.00  0.00    +0.013 A 
BRANCH  18  19
ATOM     19  C   UNL     1       1.846  -9.654  13.200  0.00  0.00    +0.119 C 
BRANCH  19  20
ATOM     20  N   UNL     1       0.908  -9.455  12.056  0.00  0.00    -0.302 NA
ATOM     21  C   UNL     1      -0.039 -10.645  11.875  0.00  0.00    +0.066 C 
ATOM     22  C   UNL     1      -1.029 -10.410  10.688  0.00  0.00    -0.064 C 
ATOM     23  N   UNL     1      -0.233 -10.152   9.408  0.00  0.00    +0.379 N 
ATOM     24  C   UNL     1      -1.160  -9.988   8.279  0.00  0.00    -0.096 C 
ATOM     25  H   UNL     1       0.388 -11.056   9.207  0.00  0.00    -0.082 HD
ATOM     26  C   UNL     1       0.713  -8.971   9.580  0.00  0.00    -0.064 C 
ATOM     27  C   UNL     1       1.673  -9.202  10.780  0.00  0.00    +0.066 C 
ENDBRANCH  19  20
ENDBRANCH  18  19
ENDBRANCH  14  15
ENDBRANCH  12  13
TORSDOF 6
ENDMDL
