MODEL 1
REMARK VINA RESULT:      -9.3      0.000      0.000
REMARK  Name = C:\Users\Docking\Desktop\test protocol\1iep_ligandH.pdb
REMARK  8 active torsions:
REMARK  status: ('A' for Active; 'I' for Inactive)
REMARK    1  A    between atoms: _5  and  _11
REMARK    2  A    between atoms: _19  and  _21
REMARK    3  A    between atoms: _22  and  _66
REMARK    4  A    between atoms: _27  and  _30
REMARK    5  A    between atoms: _32  and  _33
REMARK    6  A    between atoms: _38  and  _43
REMARK    7  A    between atoms: _43  and  _46
REMARK    8  A    between atoms: _53  and  _55
REMARK                            x       y       z     vdW  Elec       q    Type
REMARK                         _______ _______ _______ _____ _____    ______ ____
ROOT
ATOM     10  C   UNL     1     -24.823   0.129  -5.329  0.00  0.00    +0.038 A 
ATOM     11  C   UNL     1     -25.080   1.277  -6.122  0.00  0.00    +0.047 A 
ATOM     12  C   UNL     1     -26.403   1.532  -6.671  0.00  0.00    +0.035 A 
ATOM     32  C   UNL     1     -27.443   0.598  -6.389  0.00  0.00    +0.024 A 
ATOM     33  C   UNL     1     -27.199  -0.574  -5.585  0.00  0.00    +0.007 A 
ATOM     34  C   UNL     1     -25.896  -0.832  -5.043  0.00  0.00    -0.029 A 
ATOM     35  C   UNL     1     -25.690  -2.108  -4.194  0.00  0.00    +0.045 C 
ENDROOT
BRANCH  10   9
ATOM      4  C   UNL     1     -21.169   1.336  -2.460  0.00  0.00    +0.077 A 
ATOM      5  C   UNL     1     -21.878   2.468  -1.935  0.00  0.00    +0.048 A 
ATOM      6  C   UNL     1     -23.177   2.709  -2.435  0.00  0.00    +0.116 A 
ATOM      7  N   UNL     1     -23.718   1.873  -3.388  0.00  0.00    -0.223 NA
ATOM      8  C   UNL     1     -23.007   0.792  -3.875  0.00  0.00    +0.220 A 
ATOM      9  N   UNL     1     -23.534  -0.066  -4.827  0.00  0.00    -0.283 N 
ATOM     36  H   UNL     1     -22.975  -0.849  -5.166  0.00  0.00    +0.155 HD
ATOM     37  N   UNL     1     -21.764   0.541  -3.414  0.00  0.00    -0.214 NA
BRANCH   4   3
ATOM      1  C   UNL     1     -18.084   0.334  -0.275  0.00  0.00    +0.020 A 
ATOM      2  C   UNL     1     -19.432   0.706  -0.638  0.00  0.00    +0.013 A 
ATOM      3  C   UNL     1     -19.789   0.949  -2.030  0.00  0.00    +0.019 A 
ATOM     38  C   UNL     1     -18.750   0.805  -3.038  0.00  0.00    +0.120 A 
ATOM     39  N   UNL     1     -17.460   0.447  -2.659  0.00  0.00    -0.263 NA
ATOM     40  C   UNL     1     -17.105   0.212  -1.322  0.00  0.00    +0.111 A 
ENDBRANCH   4   3
ENDBRANCH  10   9
BRANCH  12  13
ATOM     13  N   UNL     1     -26.721   2.675  -7.489  0.00  0.00    -0.281 N 
ATOM     14  C   UNL     1     -26.232   3.966  -7.376  0.00  0.00    +0.248 C 
ATOM     30  O   UNL     1     -25.605   4.386  -6.415  0.00  0.00    -0.270 OA
ATOM     31  H   UNL     1     -27.387   2.513  -8.244  0.00  0.00    +0.155 HD
BRANCH  14  15
ATOM     15  C   UNL     1     -26.488   4.935  -8.485  0.00  0.00    +0.037 A 
ATOM     16  C   UNL     1     -25.413   5.766  -9.032  0.00  0.00    +0.013 A 
ATOM     17  C   UNL     1     -25.691   6.705 -10.090  0.00  0.00    +0.005 A 
ATOM     18  C   UNL     1     -27.052   6.817 -10.608  0.00  0.00    -0.033 A 
ATOM     28  C   UNL     1     -28.099   5.977 -10.050  0.00  0.00    +0.005 A 
ATOM     29  C   UNL     1     -27.830   5.057  -9.013  0.00  0.00    +0.013 A 
BRANCH  18  19
ATOM     19  C   UNL     1     -27.445   7.807 -11.721  0.00  0.00    +0.119 C 
BRANCH  19  20
ATOM     20  N   UNL     1     -28.858   8.289 -11.740  0.00  0.00    -0.302 NA
ATOM     21  C   UNL     1     -29.371   8.508 -13.166  0.00  0.00    +0.066 C 
ATOM     22  C   UNL     1     -30.858   8.991 -13.168  0.00  0.00    -0.064 C 
ATOM     23  N   UNL     1     -30.975  10.276 -12.347  0.00  0.00    +0.379 N 
ATOM     24  C   UNL     1     -32.361  10.764 -12.395  0.00  0.00    -0.096 C 
ATOM     25  H   UNL     1     -30.329  11.046 -12.830  0.00  0.00    -0.082 HD
ATOM     26  C   UNL     1     -30.465  10.068 -10.928  0.00  0.00    -0.064 C 
ATOM     27  C   UNL     1     -28.996   9.560 -10.938  0.00  0.00    +0.066 C 
ENDBRANCH  19  20
ENDBRANCH  18  19
ENDBRANCH  14  15
ENDBRANCH  12  13
TORSDOF 6
ENDMDL
MODEL 2
REMARK VINA RESULT:      -9.2      3.582      5.027
REMARK  Name = C:\Users\Docking\Desktop\test protocol\1iep_ligandH.pdb
REMARK  8 active torsions:
REMARK  status: ('A' for Active; 'I' for Inactive)
REMARK    1  A    between atoms: _5  and  _11
REMARK    2  A    between atoms: _19  and  _21
REMARK    3  A    between atoms: _22  and  _66
REMARK    4  A    between atoms: _27  and  _30
REMARK    5  A    between atoms: _32  and  _33
REMARK    6  A    between atoms: _38  and  _43
REMARK    7  A    between atoms: _43  and  _46
REMARK    8  A    between atoms: _53  and  _55
REMARK                            x       y       z     vdW  Elec       q    Type
REMARK                         _______ _______ _______ _____ _____    ______ ____
ROOT
ATOM     10  C   UNL     1     -24.712   2.502  -7.254  0.00  0.00    +0.038 A 
ATOM     11  C   UNL     1     -25.626   3.519  -7.634  0.00  0.00    +0.047 A 
ATOM     12  C   UNL     1     -25.737   3.952  -9.018  0.00  0.00    +0.035 A 
ATOM     32  C   UNL     1     -24.903   3.326  -9.991  0.00  0.00    +0.024 A 
ATOM     33  C   UNL     1     -23.969   2.292  -9.622  0.00  0.00    +0.007 A 
ATOM     34  C   UNL     1     -23.853   1.863  -8.258  0.00  0.00    -0.029 A 
ATOM     35  C   UNL     1     -22.829   0.754  -7.919  0.00  0.00    +0.045 C 
ENDROOT
BRANCH  10   9
ATOM      4  C   UNL     1     -26.221  -0.093  -3.509  0.00  0.00    +0.077 A 
ATOM      5  C   UNL     1     -27.242  -0.732  -4.288  0.00  0.00    +0.048 A 
ATOM      6  C   UNL     1     -27.351  -0.360  -5.646  0.00  0.00    +0.116 A 
ATOM      7  N   UNL     1     -26.496   0.583  -6.176  0.00  0.00    -0.223 NA
ATOM      8  C   UNL     1     -25.523   1.181  -5.397  0.00  0.00    +0.220 A 
ATOM      9  N   UNL     1     -24.647   2.125  -5.911  0.00  0.00    -0.283 N 
ATOM     36  H   UNL     1     -23.948   2.549  -5.302  0.00  0.00    +0.155 HD
ATOM     37  N   UNL     1     -25.400   0.844  -4.096  0.00  0.00    -0.214 NA
BRANCH   4   3
ATOM      1  C   UNL     1     -26.336   0.058   0.398  0.00  0.00    +0.020 A 
ATOM      2  C   UNL     1     -26.603   0.379  -0.985  0.00  0.00    +0.013 A 
ATOM      3  C   UNL     1     -25.979  -0.383  -2.060  0.00  0.00    +0.019 A 
ATOM     38  C   UNL     1     -25.084  -1.471  -1.699  0.00  0.00    +0.120 A 
ATOM     39  N   UNL     1     -24.844  -1.756  -0.358  0.00  0.00    -0.263 NA
ATOM     40  C   UNL     1     -25.437  -1.030   0.685  0.00  0.00    +0.111 A 
ENDBRANCH   4   3
ENDBRANCH  10   9
BRANCH  12  13
ATOM     13  N   UNL     1     -26.640   4.985  -9.462  0.00  0.00    -0.281 N 
ATOM     14  C   UNL     1     -26.348   6.098 -10.232  0.00  0.00    +0.248 C 
ATOM     30  O   UNL     1     -25.217   6.490 -10.479  0.00  0.00    -0.270 OA
ATOM     31  H   UNL     1     -27.613   4.882  -9.172  0.00  0.00    +0.155 HD
BRANCH  14  15
ATOM     15  C   UNL     1     -27.475   6.901 -10.798  0.00  0.00    +0.037 A 
ATOM     16  C   UNL     1     -28.870   6.567 -10.500  0.00  0.00    +0.013 A 
ATOM     17  C   UNL     1     -29.939   7.347 -11.072  0.00  0.00    +0.005 A 
ATOM     18  C   UNL     1     -29.615   8.471 -11.948  0.00  0.00    -0.033 A 
ATOM     28  C   UNL     1     -28.222   8.784 -12.222  0.00  0.00    +0.005 A 
ATOM     29  C   UNL     1     -27.172   8.020 -11.664  0.00  0.00    +0.013 A 
BRANCH  18  19
ATOM     19  C   UNL     1     -30.691   9.345 -12.619  0.00  0.00    +0.119 C 
BRANCH  19  20
ATOM     20  N   UNL     1     -30.814   9.258 -14.105  0.00  0.00    -0.302 NA
ATOM     21  C   UNL     1     -32.248   9.506 -14.578  0.00  0.00    +0.066 C 
ATOM     22  C   UNL     1     -32.354   9.434 -16.137  0.00  0.00    -0.064 C 
ATOM     23  N   UNL     1     -31.854   8.070 -16.616  0.00  0.00    +0.379 N 
ATOM     24  C   UNL     1     -32.006   7.977 -18.075  0.00  0.00    -0.096 C 
ATOM     25  H   UNL     1     -32.505   7.291 -16.158  0.00  0.00    -0.082 HD
ATOM     26  C   UNL     1     -30.428   7.814 -16.147  0.00  0.00    -0.064 C 
ATOM     27  C   UNL     1     -30.329   7.917 -14.599  0.00  0.00    +0.066 C 
ENDBRANCH  19  20
ENDBRANCH  18  19
ENDBRANCH  14  15
ENDBRANCH  12  13
TORSDOF 6
ENDMDL
MODEL 3
REMARK VINA RESULT:      -9.1      3.505      5.548
REMARK  Name = C:\Users\Docking\Desktop\test protocol\1iep_ligandH.pdb
REMARK  8 active torsions:
REMARK  status: ('A' for Active; 'I' for Inactive)
REMARK    1  A    between atoms: _5  and  _11
REMARK    2  A    between atoms: _19  and  _21
REMARK    3  A    between atoms: _22  and  _66
REMARK    4  A    between atoms: _27  and  _30
REMARK    5  A    between atoms: _32  and  _33
REMARK    6  A    between atoms: _38  and  _43
REMARK    7  A    between atoms: _43  and  _46
REMARK    8  A    between atoms: _53  and  _55
REMARK                            x       y       z     vdW  Elec       q    Type
REMARK                         _______ _______ _______ _____ _____    ______ ____
ROOT
ATOM     10  C   UNL     1     -23.972   5.051  -6.680  0.00  0.00    +0.038 A 
ATOM     11  C   UNL     1     -24.956   5.421  -7.632  0.00  0.00    +0.047 A 
ATOM     12  C   UNL     1     -24.648   6.344  -8.713  0.00  0.00    +0.035 A 
ATOM     32  C   UNL     1     -23.325   6.870  -8.795  0.00  0.00    +0.024 A 
ATOM     33  C   UNL     1     -22.313   6.506  -7.835  0.00  0.00    +0.007 A 
ATOM     34  C   UNL     1     -22.613   5.597  -6.765  0.00  0.00    -0.029 A 
ATOM     35  C   UNL     1     -21.491   5.247  -5.761  0.00  0.00    +0.045 C 
ENDROOT
BRANCH  10   9
ATOM      4  C   UNL     1     -24.631   0.609  -4.984  0.00  0.00    +0.077 A 
ATOM      5  C   UNL     1     -24.271   0.013  -6.239  0.00  0.00    +0.048 A 
ATOM      6  C   UNL     1     -23.929   0.885  -7.297  0.00  0.00    +0.116 A 
ATOM      7  N   UNL     1     -23.950   2.249  -7.104  0.00  0.00    -0.223 NA
ATOM      8  C   UNL     1     -24.304   2.791  -5.882  0.00  0.00    +0.220 A 
ATOM      9  N   UNL     1     -24.324   4.160  -5.663  0.00  0.00    -0.283 N 
ATOM     36  H   UNL     1     -24.597   4.521  -4.749  0.00  0.00    +0.155 HD
ATOM     37  N   UNL     1     -24.635   1.980  -4.856  0.00  0.00    -0.214 NA
BRANCH   4   3
ATOM      1  C   UNL     1     -25.501  -2.346  -2.574  0.00  0.00    +0.020 A 
ATOM      2  C   UNL     1     -25.130  -1.632  -3.774  0.00  0.00    +0.013 A 
ATOM      3  C   UNL     1     -25.013  -0.180  -3.770  0.00  0.00    +0.019 A 
ATOM     38  C   UNL     1     -25.281   0.526  -2.527  0.00  0.00    +0.120 A 
ATOM     39  N   UNL     1     -25.638  -0.188  -1.387  0.00  0.00    -0.263 NA
ATOM     40  C   UNL     1     -25.755  -1.586  -1.379  0.00  0.00    +0.111 A 
ENDBRANCH   4   3
ENDBRANCH  10   9
BRANCH  12  13
ATOM     13  N   UNL     1     -25.607   6.762  -9.704  0.00  0.00    -0.281 N 
ATOM     14  C   UNL     1     -26.898   6.296  -9.890  0.00  0.00    +0.248 C 
ATOM     30  O   UNL     1     -27.353   5.291  -9.363  0.00  0.00    -0.270 OA
ATOM     31  H   UNL     1     -25.297   7.491 -10.348  0.00  0.00    +0.155 HD
BRANCH  14  15
ATOM     15  C   UNL     1     -27.813   7.046 -10.804  0.00  0.00    +0.037 A 
ATOM     16  C   UNL     1     -27.288   7.867 -11.898  0.00  0.00    +0.013 A 
ATOM     17  C   UNL     1     -28.191   8.594 -12.755  0.00  0.00    +0.005 A 
ATOM     18  C   UNL     1     -29.630   8.501 -12.521  0.00  0.00    -0.033 A 
ATOM     28  C   UNL     1     -30.124   7.675 -11.432  0.00  0.00    +0.005 A 
ATOM     29  C   UNL     1     -29.242   6.962 -10.590  0.00  0.00    +0.013 A 
BRANCH  18  19
ATOM     19  C   UNL     1     -30.666   9.258 -13.373  0.00  0.00    +0.119 C 
BRANCH  19  20
ATOM     20  N   UNL     1     -31.209   8.556 -14.573  0.00  0.00    -0.302 NA
ATOM     21  C   UNL     1     -30.101   7.919 -15.416  0.00  0.00    +0.066 C 
ATOM     22  C   UNL     1     -30.689   7.169 -16.656  0.00  0.00    -0.064 C 
ATOM     23  N   UNL     1     -31.514   8.147 -17.496  0.00  0.00    +0.379 N 
ATOM     24  C   UNL     1     -32.020   7.459 -18.693  0.00  0.00    -0.096 C 
ATOM     25  H   UNL     1     -30.831   8.960 -17.835  0.00  0.00    -0.082 HD
ATOM     26  C   UNL     1     -32.616   8.787 -16.664  0.00  0.00    -0.064 C 
ATOM     27  C   UNL     1     -32.024   9.504 -15.419  0.00  0.00    +0.066 C 
ENDBRANCH  19  20
ENDBRANCH  18  19
ENDBRANCH  14  15
ENDBRANCH  12  13
TORSDOF 6
ENDMDL
MODEL 4
REMARK VINA RESULT:      -8.9      5.187      6.318
REMARK  Name = C:\Users\Docking\Desktop\test protocol\1iep_ligandH.pdb
REMARK  8 active torsions:
REMARK  status: ('A' for Active; 'I' for Inactive)
REMARK    1  A    between atoms: _5  and  _11
REMARK    2  A    between atoms: _19  and  _21
REMARK    3  A    between atoms: _22  and  _66
REMARK    4  A    between atoms: _27  and  _30
REMARK    5  A    between atoms: _32  and  _33
REMARK    6  A    between atoms: _38  and  _43
REMARK    7  A    between atoms: _43  and  _46
REMARK    8  A    between atoms: _53  and  _55
REMARK                            x       y       z     vdW  Elec       q    Type
REMARK                         _______ _______ _______ _____ _____    ______ ____
ROOT
ATOM     10  C   UNL     1     -20.502   1.915  -7.267  0.00  0.00    +0.038 A 
ATOM     11  C   UNL     1     -21.744   2.425  -7.724  0.00  0.00    +0.047 A 
ATOM     12  C   UNL     1     -22.183   3.765  -7.368  0.00  0.00    +0.035 A 
ATOM     32  C   UNL     1     -21.330   4.560  -6.547  0.00  0.00    +0.024 A 
ATOM     33  C   UNL     1     -20.065   4.056  -6.073  0.00  0.00    +0.007 A 
ATOM     34  C   UNL     1     -19.628   2.734  -6.419  0.00  0.00    -0.029 A 
ATOM     35  C   UNL     1     -18.264   2.244  -5.878  0.00  0.00    +0.045 C 
ENDROOT
BRANCH  10   9
ATOM      4  C   UNL     1     -18.308  -1.176 -10.212  0.00  0.00    +0.077 A 
ATOM      5  C   UNL     1     -17.890  -0.128 -11.097  0.00  0.00    +0.048 A 
ATOM      6  C   UNL     1     -18.266   1.192 -10.763  0.00  0.00    +0.116 A 
ATOM      7  N   UNL     1     -19.005   1.434  -9.625  0.00  0.00    -0.223 NA
ATOM      8  C   UNL     1     -19.393   0.400  -8.793  0.00  0.00    +0.220 A 
ATOM      9  N   UNL     1     -20.130   0.621  -7.640  0.00  0.00    -0.283 N 
ATOM     36  H   UNL     1     -20.403  -0.170  -7.057  0.00  0.00    +0.155 HD
ATOM     37  N   UNL     1     -19.047  -0.870  -9.092  0.00  0.00    -0.214 NA
BRANCH   4   3
ATOM      1  C   UNL     1     -18.545  -5.080 -10.314  0.00  0.00    +0.020 A 
ATOM      2  C   UNL     1     -18.906  -3.699 -10.085  0.00  0.00    +0.013 A 
ATOM      3  C   UNL     1     -17.985  -2.622 -10.428  0.00  0.00    +0.019 A 
ATOM     38  C   UNL     1     -16.698  -2.979 -11.005  0.00  0.00    +0.120 A 
ATOM     39  N   UNL     1     -16.378  -4.317 -11.213  0.00  0.00    -0.263 NA
ATOM     40  C   UNL     1     -17.255  -5.362 -10.886  0.00  0.00    +0.111 A 
ENDBRANCH   4   3
ENDBRANCH  10   9
BRANCH  12  13
ATOM     13  N   UNL     1     -23.437   4.334  -7.794  0.00  0.00    -0.281 N 
ATOM     14  C   UNL     1     -23.640   5.388  -8.671  0.00  0.00    +0.248 C 
ATOM     30  O   UNL     1     -22.761   6.144  -9.058  0.00  0.00    -0.270 OA
ATOM     31  H   UNL     1     -24.277   3.909  -7.403  0.00  0.00    +0.155 HD
BRANCH  14  15
ATOM     15  C   UNL     1     -25.021   5.649  -9.179  0.00  0.00    +0.037 A 
ATOM     16  C   UNL     1     -25.283   6.704 -10.161  0.00  0.00    +0.013 A 
ATOM     17  C   UNL     1     -26.627   6.946 -10.622  0.00  0.00    +0.005 A 
ATOM     18  C   UNL     1     -27.720   6.128 -10.102  0.00  0.00    -0.033 A 
ATOM     28  C   UNL     1     -27.431   5.084  -9.133  0.00  0.00    +0.005 A 
ATOM     29  C   UNL     1     -26.115   4.845  -8.678  0.00  0.00    +0.013 A 
BRANCH  18  19
ATOM     19  C   UNL     1     -29.188   6.330 -10.522  0.00  0.00    +0.119 C 
BRANCH  19  20
ATOM     20  N   UNL     1     -29.585   7.691 -10.991  0.00  0.00    -0.302 NA
ATOM     21  C   UNL     1     -30.938   8.124 -10.420  0.00  0.00    +0.066 C 
ATOM     22  C   UNL     1     -31.327   9.559 -10.902  0.00  0.00    -0.064 C 
ATOM     23  N   UNL     1     -31.348   9.593 -12.431  0.00  0.00    +0.379 N 
ATOM     24  C   UNL     1     -31.770  10.925 -12.887  0.00  0.00    -0.096 C 
ATOM     25  H   UNL     1     -32.115   8.859 -12.774  0.00  0.00    -0.082 HD
ATOM     26  C   UNL     1     -30.007   9.161 -13.007  0.00  0.00    -0.064 C 
ATOM     27  C   UNL     1     -29.616   7.746 -12.498  0.00  0.00    +0.066 C 
ENDBRANCH  19  20
ENDBRANCH  18  19
ENDBRANCH  14  15
ENDBRANCH  12  13
TORSDOF 6
ENDMDL
MODEL 5
REMARK VINA RESULT:      -8.6     27.867     30.910
REMARK  Name = C:\Users\Docking\Desktop\test protocol\1iep_ligandH.pdb
REMARK  8 active torsions:
REMARK  status: ('A' for Active; 'I' for Inactive)
REMARK    1  A    between atoms: _5  and  _11
REMARK    2  A    between atoms: _19  and  _21
REMARK    3  A    between atoms: _22  and  _66
REMARK    4  A    between atoms: _27  and  _30
REMARK    5  A    between atoms: _32  and  _33
REMARK    6  A    between atoms: _38  and  _43
REMARK    7  A    between atoms: _43  and  _46
REMARK    8  A    between atoms: _53  and  _55
REMARK                            x       y       z     vdW  Elec       q    Type
REMARK                         _______ _______ _______ _____ _____    ______ ____
ROOT
ATOM     10  C   UNL     1     -14.174  19.710 -30.258  0.00  0.00    +0.038 A 
ATOM     11  C   UNL     1     -13.353  18.580 -30.011  0.00  0.00    +0.047 A 
ATOM     12  C   UNL     1     -13.213  17.522 -30.999  0.00  0.00    +0.035 A 
ATOM     32  C   UNL     1     -13.922  17.648 -32.230  0.00  0.00    +0.024 A 
ATOM     33  C   UNL     1     -14.762  18.789 -32.496  0.00  0.00    +0.007 A 
ATOM     34  C   UNL     1     -14.906  19.835 -31.524  0.00  0.00    -0.029 A 
ATOM     35  C   UNL     1     -15.824  21.033 -31.861  0.00  0.00    +0.045 C 
ENDROOT
BRANCH  10   9
ATOM      4  C   UNL     1     -13.024  21.544 -25.974  0.00  0.00    +0.077 A 
ATOM      5  C   UNL     1     -12.177  20.430 -25.658  0.00  0.00    +0.048 A 
ATOM      6  C   UNL     1     -12.071  19.403 -26.622  0.00  0.00    +0.116 A 
ATOM      7  N   UNL     1     -12.763  19.493 -27.810  0.00  0.00    -0.223 NA
ATOM      8  C   UNL     1     -13.573  20.581 -28.083  0.00  0.00    +0.220 A 
ATOM      9  N   UNL     1     -14.272  20.697 -29.274  0.00  0.00    -0.283 N 
ATOM     36  H   UNL     1     -14.864  21.511 -29.434  0.00  0.00    +0.155 HD
ATOM     37  N   UNL     1     -13.692  21.575 -27.178  0.00  0.00    -0.214 NA
BRANCH   4   3
ATOM      1  C   UNL     1     -13.558  25.172 -24.612  0.00  0.00    +0.020 A 
ATOM      2  C   UNL     1     -13.353  24.082 -25.538  0.00  0.00    +0.013 A 
ATOM      3  C   UNL     1     -13.237  22.710 -25.059  0.00  0.00    +0.019 A 
ATOM     38  C   UNL     1     -13.334  22.474 -23.627  0.00  0.00    +0.120 A 
ATOM     39  N   UNL     1     -13.531  23.544 -22.759  0.00  0.00    -0.263 NA
ATOM     40  C   UNL     1     -13.642  24.868 -23.208  0.00  0.00    +0.111 A 
ENDBRANCH   4   3
ENDBRANCH  10   9
BRANCH  12  13
ATOM     13  N   UNL     1     -12.401  16.347 -30.802  0.00  0.00    -0.281 N 
ATOM     14  C   UNL     1     -12.822  15.059 -30.515  0.00  0.00    +0.248 C 
ATOM     30  O   UNL     1     -13.957  14.763 -30.172  0.00  0.00    -0.270 OA
ATOM     31  H   UNL     1     -11.393  16.482 -30.884  0.00  0.00    +0.155 HD
BRANCH  14  15
ATOM     15  C   UNL     1     -11.836  13.939 -30.609  0.00  0.00    +0.037 A 
ATOM     16  C   UNL     1     -11.793  13.061 -31.780  0.00  0.00    +0.013 A 
ATOM     17  C   UNL     1     -10.843  11.978 -31.837  0.00  0.00    +0.005 A 
ATOM     18  C   UNL     1      -9.927  11.769 -30.719  0.00  0.00    -0.033 A 
ATOM     28  C   UNL     1      -9.987  12.659 -29.571  0.00  0.00    +0.005 A 
ATOM     29  C   UNL     1     -10.918  13.720 -29.511  0.00  0.00    +0.013 A 
BRANCH  18  19
ATOM     19  C   UNL     1      -8.895  10.626 -30.685  0.00  0.00    +0.119 C 
BRANCH  19  20
ATOM     20  N   UNL     1      -8.369  10.219 -29.348  0.00  0.00    -0.302 NA
ATOM     21  C   UNL     1      -7.110  11.001 -28.964  0.00  0.00    +0.066 C 
ATOM     22  C   UNL     1      -6.586  10.578 -27.553  0.00  0.00    -0.064 C 
ATOM     23  N   UNL     1      -6.312   9.073 -27.543  0.00  0.00    +0.379 N 
ATOM     24  C   UNL     1      -5.765   8.683 -26.236  0.00  0.00    -0.096 C 
ATOM     25  H   UNL     1      -5.532   8.867 -28.312  0.00  0.00    -0.082 HD
ATOM     26  C   UNL     1      -7.559   8.288 -27.927  0.00  0.00    -0.064 C 
ATOM     27  C   UNL     1      -8.088   8.736 -29.317  0.00  0.00    +0.066 C 
ENDBRANCH  19  20
ENDBRANCH  18  19
ENDBRANCH  14  15
ENDBRANCH  12  13
TORSDOF 6
ENDMDL
