MODEL 1
REMARK VINA RESULT:     -12.8      0.000      0.000
REMARK  Name = C:\Users\Docking\Desktop\test protocol\1iep_ligandH.pdb
REMARK  8 active torsions:
REMARK  status: ('A' for Active; 'I' for Inactive)
REMARK    1  A    between atoms: _5  and  _11
REMARK    2  A    between atoms: _19  and  _21
REMARK    3  A    between atoms: _22  and  _66
REMARK    4  A    between atoms: _27  and  _30
REMARK    5  A    between atoms: _32  and  _33
REMARK    6  A    between atoms: _38  and  _43
REMARK    7  A    between atoms: _43  and  _46
REMARK    8  A    between atoms: _53  and  _55
REMARK                            x       y       z     vdW  Elec       q    Type
REMARK                         _______ _______ _______ _____ _____    ______ ____
ROOT
ATOM     10  C   UNL     1       5.377  15.859  34.579  0.00  0.00    +0.038 A 
ATOM     11  C   UNL     1       5.619  16.763  33.513  0.00  0.00    +0.047 A 
ATOM     12  C   UNL     1       5.947  18.157  33.769  0.00  0.00    +0.035 A 
ATOM     32  C   UNL     1       6.023  18.596  35.122  0.00  0.00    +0.024 A 
ATOM     33  C   UNL     1       5.779  17.691  36.218  0.00  0.00    +0.007 A 
ATOM     34  C   UNL     1       5.453  16.316  35.972  0.00  0.00    -0.029 A 
ATOM     35  C   UNL     1       5.195  15.392  37.186  0.00  0.00    +0.045 C 
ENDROOT
BRANCH  10   9
ATOM      4  C   UNL     1       2.235  12.288  33.943  0.00  0.00    +0.077 A 
ATOM      5  C   UNL     1       1.120  13.131  34.267  0.00  0.00    +0.048 A 
ATOM      6  C   UNL     1       1.399  14.476  34.599  0.00  0.00    +0.116 A 
ATOM      7  N   UNL     1       2.699  14.932  34.603  0.00  0.00    -0.223 NA
ATOM      8  C   UNL     1       3.751  14.092  34.287  0.00  0.00    +0.220 A 
ATOM      9  N   UNL     1       5.066  14.532  34.277  0.00  0.00    -0.283 N 
ATOM     36  H   UNL     1       5.814  13.879  34.046  0.00  0.00    +0.155 HD
ATOM     37  N   UNL     1       3.511  12.803  33.968  0.00  0.00    -0.214 NA
BRANCH   4   3
ATOM      1  C   UNL     1       3.058   8.623  32.852  0.00  0.00    +0.020 A 
ATOM      2  C   UNL     1       3.241  10.012  33.205  0.00  0.00    +0.013 A 
ATOM      3  C   UNL     1       2.101  10.844  33.569  0.00  0.00    +0.019 A 
ATOM     38  C   UNL     1       0.780  10.235  33.567  0.00  0.00    +0.120 A 
ATOM     39  N   UNL     1       0.634   8.896  33.221  0.00  0.00    -0.263 NA
ATOM     40  C   UNL     1       1.723   8.085  32.867  0.00  0.00    +0.111 A 
ENDBRANCH   4   3
ENDBRANCH  10   9
BRANCH  12  13
ATOM     13  N   UNL     1       6.194  19.123  32.727  0.00  0.00    -0.281 N 
ATOM     14  C   UNL     1       5.524  20.312  32.492  0.00  0.00    +0.248 C 
ATOM     30  O   UNL     1       4.466  20.625  33.016  0.00  0.00    -0.270 OA
ATOM     31  H   UNL     1       6.956  18.903  32.085  0.00  0.00    +0.155 HD
BRANCH  14  15
ATOM     15  C   UNL     1       6.107  21.290  31.523  0.00  0.00    +0.037 A 
ATOM     16  C   UNL     1       5.480  21.537  30.222  0.00  0.00    +0.013 A 
ATOM     17  C   UNL     1       6.072  22.473  29.299  0.00  0.00    +0.005 A 
ATOM     18  C   UNL     1       7.300  23.170  29.675  0.00  0.00    -0.033 A 
ATOM     28  C   UNL     1       7.899  22.909  30.974  0.00  0.00    +0.005 A 
ATOM     29  C   UNL     1       7.321  21.992  31.881  0.00  0.00    +0.013 A 
BRANCH  18  19
ATOM     19  C   UNL     1       8.013  24.169  28.745  0.00  0.00    +0.119 C 
BRANCH  19  20
ATOM     20  N   UNL     1       9.501  24.251  28.842  0.00  0.00    -0.302 NA
ATOM     21  C   UNL     1      10.038  25.582  28.310  0.00  0.00    +0.066 C 
ATOM     22  C   UNL     1      11.595  25.660  28.439  0.00  0.00    -0.064 C 
ATOM     23  N   UNL     1      12.225  24.484  27.692  0.00  0.00    +0.379 N 
ATOM     24  C   UNL     1      13.690  24.587  27.762  0.00  0.00    -0.096 C 
ATOM     25  H   UNL     1      11.931  24.568  26.619  0.00  0.00    -0.082 HD
ATOM     26  C   UNL     1      11.694  23.156  28.212  0.00  0.00    -0.064 C 
ATOM     27  C   UNL     1      10.144  23.101  28.107  0.00  0.00    +0.066 C 
ENDBRANCH  19  20
ENDBRANCH  18  19
ENDBRANCH  14  15
ENDBRANCH  12  13
TORSDOF 6
ENDMDL
MODEL 2
REMARK VINA RESULT:     -11.0      2.326     12.436
REMARK  Name = C:\Users\Docking\Desktop\test protocol\1iep_ligandH.pdb
REMARK  8 active torsions:
REMARK  status: ('A' for Active; 'I' for Inactive)
REMARK    1  A    between atoms: _5  and  _11
REMARK    2  A    between atoms: _19  and  _21
REMARK    3  A    between atoms: _22  and  _66
REMARK    4  A    between atoms: _27  and  _30
REMARK    5  A    between atoms: _32  and  _33
REMARK    6  A    between atoms: _38  and  _43
REMARK    7  A    between atoms: _43  and  _46
REMARK    8  A    between atoms: _53  and  _55
REMARK                            x       y       z     vdW  Elec       q    Type
REMARK                         _______ _______ _______ _____ _____    ______ ____
ROOT
ATOM     10  C   UNL     1       6.013  17.644  34.693  0.00  0.00    +0.038 A 
ATOM     11  C   UNL     1       5.355  16.431  34.365  0.00  0.00    +0.047 A 
ATOM     12  C   UNL     1       4.787  15.580  35.399  0.00  0.00    +0.035 A 
ATOM     32  C   UNL     1       4.905  15.997  36.757  0.00  0.00    +0.024 A 
ATOM     33  C   UNL     1       5.572  17.226  37.108  0.00  0.00    +0.007 A 
ATOM     34  C   UNL     1       6.136  18.068  36.093  0.00  0.00    -0.029 A 
ATOM     35  C   UNL     1       6.846  19.371  36.528  0.00  0.00    +0.045 C 
ENDROOT
BRANCH  10   9
ATOM      4  C   UNL     1       5.731  21.263  31.553  0.00  0.00    +0.077 A 
ATOM      5  C   UNL     1       4.411  21.616  31.989  0.00  0.00    +0.048 A 
ATOM      6  C   UNL     1       3.837  20.837  33.018  0.00  0.00    +0.116 A 
ATOM      7  N   UNL     1       4.541  19.785  33.564  0.00  0.00    -0.223 NA
ATOM      8  C   UNL     1       5.812  19.470  33.120  0.00  0.00    +0.220 A 
ATOM      9  N   UNL     1       6.541  18.422  33.660  0.00  0.00    -0.283 N 
ATOM     36  H   UNL     1       7.472  18.217  33.299  0.00  0.00    +0.155 HD
ATOM     37  N   UNL     1       6.381  20.198  32.137  0.00  0.00    -0.214 NA
BRANCH   4   3
ATOM      1  C   UNL     1       8.555  23.037  29.510  0.00  0.00    +0.020 A 
ATOM      2  C   UNL     1       7.886  22.331  30.578  0.00  0.00    +0.013 A 
ATOM      3  C   UNL     1       6.472  21.993  30.477  0.00  0.00    +0.019 A 
ATOM     38  C   UNL     1       5.759  22.386  29.271  0.00  0.00    +0.120 A 
ATOM     39  N   UNL     1       6.429  23.066  28.259  0.00  0.00    -0.263 NA
ATOM     40  C   UNL     1       7.789  23.398  28.346  0.00  0.00    +0.111 A 
ENDBRANCH   4   3
ENDBRANCH  10   9
BRANCH  12  13
ATOM     13  N   UNL     1       4.114  14.334  35.128  0.00  0.00    -0.281 N 
ATOM     14  C   UNL     1       2.811  14.146  34.697  0.00  0.00    +0.248 C 
ATOM     30  O   UNL     1       1.955  15.017  34.685  0.00  0.00    -0.270 OA
ATOM     31  H   UNL     1       4.666  13.488  35.270  0.00  0.00    +0.155 HD
BRANCH  14  15
ATOM     15  C   UNL     1       2.395  12.790  34.225  0.00  0.00    +0.037 A 
ATOM     16  C   UNL     1       0.986  12.466  33.990  0.00  0.00    +0.013 A 
ATOM     17  C   UNL     1       0.610  11.145  33.552  0.00  0.00    +0.005 A 
ATOM     18  C   UNL     1       1.648  10.138  33.344  0.00  0.00    -0.033 A 
ATOM     28  C   UNL     1       3.039  10.488  33.579  0.00  0.00    +0.005 A 
ATOM     29  C   UNL     1       3.411  11.781  34.010  0.00  0.00    +0.013 A 
BRANCH  18  19
ATOM     19  C   UNL     1       1.337   8.697  32.897  0.00  0.00    +0.119 C 
BRANCH  19  20
ATOM     20  N   UNL     1       2.335   8.026  32.011  0.00  0.00    -0.302 NA
ATOM     21  C   UNL     1       2.475   8.736  30.662  0.00  0.00    +0.066 C 
ATOM     22  C   UNL     1       3.539   8.033  29.757  0.00  0.00    -0.064 C 
ATOM     23  N   UNL     1       3.149   6.568  29.560  0.00  0.00    +0.379 N 
ATOM     24  C   UNL     1       4.116   5.919  28.662  0.00  0.00    -0.096 C 
ATOM     25  H   UNL     1       2.154   6.548  29.057  0.00  0.00    -0.082 HD
ATOM     26  C   UNL     1       3.004   5.854  30.897  0.00  0.00    -0.064 C 
ATOM     27  C   UNL     1       1.966   6.578  31.799  0.00  0.00    +0.066 C 
ENDBRANCH  19  20
ENDBRANCH  18  19
ENDBRANCH  14  15
ENDBRANCH  12  13
TORSDOF 6
ENDMDL
MODEL 3
REMARK VINA RESULT:     -11.0      2.417     13.228
REMARK  Name = C:\Users\Docking\Desktop\test protocol\1iep_ligandH.pdb
REMARK  8 active torsions:
REMARK  status: ('A' for Active; 'I' for Inactive)
REMARK    1  A    between atoms: _5  and  _11
REMARK    2  A    between atoms: _19  and  _21
REMARK    3  A    between atoms: _22  and  _66
REMARK    4  A    between atoms: _27  and  _30
REMARK    5  A    between atoms: _32  and  _33
REMARK    6  A    between atoms: _38  and  _43
REMARK    7  A    between atoms: _43  and  _46
REMARK    8  A    between atoms: _53  and  _55
REMARK                            x       y       z     vdW  Elec       q    Type
REMARK                         _______ _______ _______ _____ _____    ______ ____
ROOT
ATOM     10  C   UNL     1       7.853  22.794  30.988  0.00  0.00    +0.038 A 
ATOM     11  C   UNL     1       7.642  21.581  31.691  0.00  0.00    +0.047 A 
ATOM     12  C   UNL     1       6.376  20.871  31.604  0.00  0.00    +0.035 A 
ATOM     32  C   UNL     1       5.346  21.425  30.789  0.00  0.00    +0.024 A 
ATOM     33  C   UNL     1       5.543  22.658  30.068  0.00  0.00    +0.007 A 
ATOM     34  C   UNL     1       6.790  23.364  30.152  0.00  0.00    -0.029 A 
ATOM     35  C   UNL     1       6.943  24.685  29.362  0.00  0.00    +0.045 C 
ENDROOT
BRANCH  10   9
ATOM      4  C   UNL     1      12.645  22.727  31.266  0.00  0.00    +0.077 A 
ATOM      5  C   UNL     1      12.688  21.295  31.194  0.00  0.00    +0.048 A 
ATOM      6  C   UNL     1      11.454  20.613  31.093  0.00  0.00    +0.116 A 
ATOM      7  N   UNL     1      10.272  21.321  31.067  0.00  0.00    -0.223 NA
ATOM      8  C   UNL     1      10.266  22.701  31.140  0.00  0.00    +0.220 A 
ATOM      9  N   UNL     1       9.089  23.434  31.107  0.00  0.00    -0.283 N 
ATOM     36  H   UNL     1       9.127  24.451  31.171  0.00  0.00    +0.155 HD
ATOM     37  N   UNL     1      11.430  23.376  31.238  0.00  0.00    -0.214 NA
BRANCH   4   3
ATOM      1  C   UNL     1      16.153  24.122  32.289  0.00  0.00    +0.020 A 
ATOM      2  C   UNL     1      14.999  23.255  32.223  0.00  0.00    +0.013 A 
ATOM      3  C   UNL     1      13.864  23.590  31.372  0.00  0.00    +0.019 A 
ATOM     38  C   UNL     1      13.929  24.818  30.594  0.00  0.00    +0.120 A 
ATOM     39  N   UNL     1      15.052  25.634  30.679  0.00  0.00    -0.263 NA
ATOM     40  C   UNL     1      16.150  25.323  31.496  0.00  0.00    +0.111 A 
ENDBRANCH   4   3
ENDBRANCH  10   9
BRANCH  12  13
ATOM     13  N   UNL     1       6.101  19.640  32.302  0.00  0.00    -0.281 N 
ATOM     14  C   UNL     1       5.279  19.448  33.400  0.00  0.00    +0.248 C 
ATOM     30  O   UNL     1       4.819  20.350  34.085  0.00  0.00    -0.270 OA
ATOM     31  H   UNL     1       6.569  18.808  31.942  0.00  0.00    +0.155 HD
BRANCH  14  15
ATOM     15  C   UNL     1       4.928  18.053  33.806  0.00  0.00    +0.037 A 
ATOM     16  C   UNL     1       3.985  17.249  33.024  0.00  0.00    +0.013 A 
ATOM     17  C   UNL     1       3.652  15.912  33.447  0.00  0.00    +0.005 A 
ATOM     18  C   UNL     1       4.264  15.370  34.658  0.00  0.00    -0.033 A 
ATOM     28  C   UNL     1       5.200  16.188  35.411  0.00  0.00    +0.005 A 
ATOM     29  C   UNL     1       5.529  17.499  35.000  0.00  0.00    +0.013 A 
BRANCH  18  19
ATOM     19  C   UNL     1       3.950  13.961  35.195  0.00  0.00    +0.119 C 
BRANCH  19  20
ATOM     20  N   UNL     1       3.150  13.057  34.316  0.00  0.00    -0.302 NA
ATOM     21  C   UNL     1       1.671  13.030  34.714  0.00  0.00    +0.066 C 
ATOM     22  C   UNL     1       0.845  12.096  33.770  0.00  0.00    -0.064 C 
ATOM     23  N   UNL     1       1.440  10.688  33.802  0.00  0.00    +0.379 N 
ATOM     24  C   UNL     1       0.631   9.794  32.961  0.00  0.00    -0.096 C 
ATOM     25  H   UNL     1       1.374  10.317  34.851  0.00  0.00    -0.082 HD
ATOM     26  C   UNL     1       2.911  10.706  33.411  0.00  0.00    -0.064 C 
ATOM     27  C   UNL     1       3.718  11.659  34.336  0.00  0.00    +0.066 C 
ENDBRANCH  19  20
ENDBRANCH  18  19
ENDBRANCH  14  15
ENDBRANCH  12  13
TORSDOF 6
ENDMDL
MODEL 4
REMARK VINA RESULT:     -10.7      3.692      6.880
REMARK  Name = C:\Users\Docking\Desktop\test protocol\1iep_ligandH.pdb
REMARK  8 active torsions:
REMARK  status: ('A' for Active; 'I' for Inactive)
REMARK    1  A    between atoms: _5  and  _11
REMARK    2  A    between atoms: _19  and  _21
REMARK    3  A    between atoms: _22  and  _66
REMARK    4  A    between atoms: _27  and  _30
REMARK    5  A    between atoms: _32  and  _33
REMARK    6  A    between atoms: _38  and  _43
REMARK    7  A    between atoms: _43  and  _46
REMARK    8  A    between atoms: _53  and  _55
REMARK                            x       y       z     vdW  Elec       q    Type
REMARK                         _______ _______ _______ _____ _____    ______ ____
ROOT
ATOM     10  C   UNL     1       6.108  21.121  31.285  0.00  0.00    +0.038 A 
ATOM     11  C   UNL     1       7.501  21.382  31.323  0.00  0.00    +0.047 A 
ATOM     12  C   UNL     1       8.021  22.726  31.125  0.00  0.00    +0.035 A 
ATOM     32  C   UNL     1       7.092  23.782  30.893  0.00  0.00    +0.024 A 
ATOM     33  C   UNL     1       5.672  23.534  30.850  0.00  0.00    +0.007 A 
ATOM     34  C   UNL     1       5.154  22.210  31.042  0.00  0.00    -0.029 A 
ATOM     35  C   UNL     1       3.623  22.002  30.980  0.00  0.00    +0.045 C 
ENDROOT
BRANCH  10   9
ATOM      4  C   UNL     1       4.880  17.450  34.123  0.00  0.00    +0.077 A 
ATOM      5  C   UNL     1       5.172  18.195  35.313  0.00  0.00    +0.048 A 
ATOM      6  C   UNL     1       5.643  19.518  35.152  0.00  0.00    +0.116 A 
ATOM      7  N   UNL     1       5.806  20.045  33.889  0.00  0.00    -0.223 NA
ATOM      8  C   UNL     1       5.516  19.298  32.762  0.00  0.00    +0.220 A 
ATOM      9  N   UNL     1       5.664  19.811  31.482  0.00  0.00    -0.283 N 
ATOM     36  H   UNL     1       5.447  19.226  30.676  0.00  0.00    +0.155 HD
ATOM     37  N   UNL     1       5.066  18.033  32.889  0.00  0.00    -0.214 NA
BRANCH   4   3
ATOM      1  C   UNL     1       4.709  13.542  34.130  0.00  0.00    +0.020 A 
ATOM      2  C   UNL     1       5.252  14.881  34.122  0.00  0.00    +0.013 A 
ATOM      3  C   UNL     1       4.371  16.042  34.130  0.00  0.00    +0.019 A 
ATOM     38  C   UNL     1       2.934  15.812  34.146  0.00  0.00    +0.120 A 
ATOM     39  N   UNL     1       2.440  14.511  34.151  0.00  0.00    -0.263 NA
ATOM     40  C   UNL     1       3.279  13.386  34.142  0.00  0.00    +0.111 A 
ENDBRANCH   4   3
ENDBRANCH  10   9
BRANCH  12  13
ATOM     13  N   UNL     1       9.426  23.050  31.144  0.00  0.00    -0.281 N 
ATOM     14  C   UNL     1      10.267  23.259  30.063  0.00  0.00    +0.248 C 
ATOM     30  O   UNL     1       9.985  22.987  28.905  0.00  0.00    -0.270 OA
ATOM     31  H   UNL     1       9.852  23.136  32.067  0.00  0.00    +0.155 HD
BRANCH  14  15
ATOM     15  C   UNL     1      11.622  23.840  30.304  0.00  0.00    +0.037 A 
ATOM     16  C   UNL     1      12.178  23.936  31.657  0.00  0.00    +0.013 A 
ATOM     17  C   UNL     1      13.481  24.517  31.863  0.00  0.00    +0.005 A 
ATOM     18  C   UNL     1      14.238  25.005  30.713  0.00  0.00    -0.033 A 
ATOM     28  C   UNL     1      13.665  24.892  29.382  0.00  0.00    +0.005 A 
ATOM     29  C   UNL     1      12.388  24.325  29.176  0.00  0.00    +0.013 A 
BRANCH  18  19
ATOM     19  C   UNL     1      15.627  25.658  30.843  0.00  0.00    +0.119 C 
BRANCH  19  20
ATOM     20  N   UNL     1      16.627  24.973  31.715  0.00  0.00    -0.302 NA
ATOM     21  C   UNL     1      17.589  25.965  32.374  0.00  0.00    +0.066 C 
ATOM     22  C   UNL     1      18.614  25.233  33.301  0.00  0.00    -0.064 C 
ATOM     23  N   UNL     1      19.383  24.192  32.485  0.00  0.00    +0.379 N 
ATOM     24  C   UNL     1      20.387  23.543  33.340  0.00  0.00    -0.096 C 
ATOM     25  H   UNL     1      19.926  24.732  31.675  0.00  0.00    -0.082 HD
ATOM     26  C   UNL     1      18.433  23.204  31.824  0.00  0.00    -0.064 C 
ATOM     27  C   UNL     1      17.401  23.944  30.928  0.00  0.00    +0.066 C 
ENDBRANCH  19  20
ENDBRANCH  18  19
ENDBRANCH  14  15
ENDBRANCH  12  13
TORSDOF 6
ENDMDL
MODEL 5
REMARK VINA RESULT:     -10.1      1.859     13.266
REMARK  Name = C:\Users\Docking\Desktop\test protocol\1iep_ligandH.pdb
REMARK  8 active torsions:
REMARK  status: ('A' for Active; 'I' for Inactive)
REMARK    1  A    between atoms: _5  and  _11
REMARK    2  A    between atoms: _19  and  _21
REMARK    3  A    between atoms: _22  and  _66
REMARK    4  A    between atoms: _27  and  _30
REMARK    5  A    between atoms: _32  and  _33
REMARK    6  A    between atoms: _38  and  _43
REMARK    7  A    between atoms: _43  and  _46
REMARK    8  A    between atoms: _53  and  _55
REMARK                            x       y       z     vdW  Elec       q    Type
REMARK                         _______ _______ _______ _____ _____    ______ ____
ROOT
ATOM     10  C   UNL     1       6.940  21.709  31.441  0.00  0.00    +0.038 A 
ATOM     11  C   UNL     1       6.686  20.369  31.829  0.00  0.00    +0.047 A 
ATOM     12  C   UNL     1       5.329  19.849  31.897  0.00  0.00    +0.035 A 
ATOM     32  C   UNL     1       4.254  20.722  31.559  0.00  0.00    +0.024 A 
ATOM     33  C   UNL     1       4.494  22.088  31.164  0.00  0.00    +0.007 A 
ATOM     34  C   UNL     1       5.830  22.607  31.098  0.00  0.00    -0.029 A 
ATOM     35  C   UNL     1       6.028  24.081  30.674  0.00  0.00    +0.045 C 
ENDROOT
BRANCH  10   9
ATOM      4  C   UNL     1      10.768  23.356  29.060  0.00  0.00    +0.077 A 
ATOM      5  C   UNL     1      10.084  23.297  27.800  0.00  0.00    +0.048 A 
ATOM      6  C   UNL     1       8.750  22.830  27.807  0.00  0.00    +0.116 A 
ATOM      7  N   UNL     1       8.155  22.454  28.992  0.00  0.00    -0.223 NA
ATOM      8  C   UNL     1       8.844  22.522  30.189  0.00  0.00    +0.220 A 
ATOM      9  N   UNL     1       8.262  22.156  31.393  0.00  0.00    -0.283 N 
ATOM     36  H   UNL     1       8.806  22.213  32.254  0.00  0.00    +0.155 HD
ATOM     37  N   UNL     1      10.119  22.963  30.209  0.00  0.00    -0.214 NA
BRANCH   4   3
ATOM      1  C   UNL     1      14.560  24.068  28.415  0.00  0.00    +0.020 A 
ATOM      2  C   UNL     1      13.211  23.588  28.216  0.00  0.00    +0.013 A 
ATOM      3  C   UNL     1      12.179  23.830  29.216  0.00  0.00    +0.019 A 
ATOM     38  C   UNL     1      12.547  24.568  30.415  0.00  0.00    +0.120 A 
ATOM     39  N   UNL     1      13.853  25.017  30.580  0.00  0.00    -0.263 NA
ATOM     40  C   UNL     1      14.855  24.788  29.625  0.00  0.00    +0.111 A 
ENDBRANCH   4   3
ENDBRANCH  10   9
BRANCH  12  13
ATOM     13  N   UNL     1       5.009  18.500  32.291  0.00  0.00    -0.281 N 
ATOM     14  C   UNL     1       5.218  17.901  33.523  0.00  0.00    +0.248 C 
ATOM     30  O   UNL     1       5.910  18.373  34.413  0.00  0.00    -0.270 OA
ATOM     31  H   UNL     1       4.577  17.915  31.576  0.00  0.00    +0.155 HD
BRANCH  14  15
ATOM     15  C   UNL     1       4.576  16.580  33.801  0.00  0.00    +0.037 A 
ATOM     16  C   UNL     1       5.372  15.353  33.894  0.00  0.00    +0.013 A 
ATOM     17  C   UNL     1       4.727  14.089  34.147  0.00  0.00    +0.005 A 
ATOM     18  C   UNL     1       3.276  14.047  34.309  0.00  0.00    -0.033 A 
ATOM     28  C   UNL     1       2.511  15.279  34.217  0.00  0.00    +0.005 A 
ATOM     29  C   UNL     1       3.140  16.520  33.969  0.00  0.00    +0.013 A 
BRANCH  18  19
ATOM     19  C   UNL     1       2.500  12.739  34.560  0.00  0.00    +0.119 C 
BRANCH  19  20
ATOM     20  N   UNL     1       2.539  11.704  33.484  0.00  0.00    -0.302 NA
ATOM     21  C   UNL     1       1.135  11.311  33.015  0.00  0.00    +0.066 C 
ATOM     22  C   UNL     1       1.194  10.244  31.874  0.00  0.00    -0.064 C 
ATOM     23  N   UNL     1       1.965   9.017  32.366  0.00  0.00    +0.379 N 
ATOM     24  C   UNL     1       1.972   7.989  31.315  0.00  0.00    -0.096 C 
ATOM     25  H   UNL     1       1.415   8.602  33.242  0.00  0.00    -0.082 HD
ATOM     26  C   UNL     1       3.361   9.400  32.837  0.00  0.00    -0.064 C 
ATOM     27  C   UNL     1       3.291  10.482  33.950  0.00  0.00    +0.066 C 
ENDBRANCH  19  20
ENDBRANCH  18  19
ENDBRANCH  14  15
ENDBRANCH  12  13
TORSDOF 6
ENDMDL
