MODEL 1
REMARK VINA RESULT:      -7.7      0.000      0.000
REMARK  Name = C:\Users\Docking\Desktop\test protocol\1iep_ligandH.pdb
REMARK  8 active torsions:
REMARK  status: ('A' for Active; 'I' for Inactive)
REMARK    1  A    between atoms: _5  and  _11
REMARK    2  A    between atoms: _19  and  _21
REMARK    3  A    between atoms: _22  and  _66
REMARK    4  A    between atoms: _27  and  _30
REMARK    5  A    between atoms: _32  and  _33
REMARK    6  A    between atoms: _38  and  _43
REMARK    7  A    between atoms: _43  and  _46
REMARK    8  A    between atoms: _53  and  _55
REMARK                            x       y       z     vdW  Elec       q    Type
REMARK                         _______ _______ _______ _____ _____    ______ ____
ROOT
ATOM     10  C   UNL     1       3.174  25.203  -4.835  0.00  0.00    +0.038 A 
ATOM     11  C   UNL     1       4.451  25.225  -4.219  0.00  0.00    +0.047 A 
ATOM     12  C   UNL     1       4.591  25.420  -2.784  0.00  0.00    +0.035 A 
ATOM     32  C   UNL     1       3.408  25.586  -2.007  0.00  0.00    +0.024 A 
ATOM     33  C   UNL     1       2.102  25.567  -2.617  0.00  0.00    +0.007 A 
ATOM     34  C   UNL     1       1.958  25.378  -4.032  0.00  0.00    -0.029 A 
ATOM     35  C   UNL     1       0.534  25.373  -4.634  0.00  0.00    +0.045 C 
ENDROOT
BRANCH  10   9
ATOM      4  C   UNL     1       4.077  26.559  -9.350  0.00  0.00    +0.077 A 
ATOM      5  C   UNL     1       4.731  27.761  -8.921  0.00  0.00    +0.048 A 
ATOM      6  C   UNL     1       4.808  27.997  -7.530  0.00  0.00    +0.116 A 
ATOM      7  N   UNL     1       4.268  27.091  -6.644  0.00  0.00    -0.223 NA
ATOM      8  C   UNL     1       3.642  25.942  -7.091  0.00  0.00    +0.220 A 
ATOM      9  N   UNL     1       3.099  25.013  -6.217  0.00  0.00    -0.283 N 
ATOM     36  H   UNL     1       2.639  24.181  -6.587  0.00  0.00    +0.155 HD
ATOM     37  N   UNL     1       3.555  25.694  -8.415  0.00  0.00    -0.214 NA
BRANCH   4   3
ATOM      1  C   UNL     1       4.713  26.078 -13.180  0.00  0.00    +0.020 A 
ATOM      2  C   UNL     1       4.913  26.479 -11.807  0.00  0.00    +0.013 A 
ATOM      3  C   UNL     1       3.920  26.167 -10.787  0.00  0.00    +0.019 A 
ATOM     38  C   UNL     1       2.725  25.442 -11.193  0.00  0.00    +0.120 A 
ATOM     39  N   UNL     1       2.559  25.070 -12.523  0.00  0.00    -0.263 NA
ATOM     40  C   UNL     1       3.507  25.366 -13.514  0.00  0.00    +0.111 A 
ENDBRANCH   4   3
ENDBRANCH  10   9
BRANCH  12  13
ATOM     13  N   UNL     1       5.861  25.459  -2.103  0.00  0.00    -0.281 N 
ATOM     14  C   UNL     1       6.667  26.561  -1.866  0.00  0.00    +0.248 C 
ATOM     30  O   UNL     1       6.516  27.653  -2.394  0.00  0.00    -0.270 OA
ATOM     31  H   UNL     1       6.210  24.566  -1.754  0.00  0.00    +0.155 HD
BRANCH  14  15
ATOM     15  C   UNL     1       7.813  26.427  -0.917  0.00  0.00    +0.037 A 
ATOM     16  C   UNL     1       8.494  27.606  -0.376  0.00  0.00    +0.013 A 
ATOM     17  C   UNL     1       9.608  27.449   0.525  0.00  0.00    +0.005 A 
ATOM     18  C   UNL     1      10.047  26.105   0.892  0.00  0.00    -0.033 A 
ATOM     28  C   UNL     1       9.350  24.952   0.345  0.00  0.00    +0.005 A 
ATOM     29  C   UNL     1       8.259  25.103  -0.539  0.00  0.00    +0.013 A 
BRANCH  18  19
ATOM     19  C   UNL     1      11.240  25.842   1.830  0.00  0.00    +0.119 C 
BRANCH  19  20
ATOM     20  N   UNL     1      12.408  25.106   1.261  0.00  0.00    -0.302 NA
ATOM     21  C   UNL     1      12.934  24.033   2.219  0.00  0.00    +0.066 C 
ATOM     22  C   UNL     1      14.142  23.258   1.599  0.00  0.00    -0.064 C 
ATOM     23  N   UNL     1      15.249  24.250   1.236  0.00  0.00    +0.379 N 
ATOM     24  C   UNL     1      16.409  23.519   0.706  0.00  0.00    -0.096 C 
ATOM     25  H   UNL     1      15.569  24.757   2.176  0.00  0.00    -0.082 HD
ATOM     26  C   UNL     1      14.734  25.322   0.286  0.00  0.00    -0.064 C 
ATOM     27  C   UNL     1      13.515  26.066   0.900  0.00  0.00    +0.066 C 
ENDBRANCH  19  20
ENDBRANCH  18  19
ENDBRANCH  14  15
ENDBRANCH  12  13
TORSDOF 6
ENDMDL
MODEL 2
REMARK VINA RESULT:      -7.7      2.850     12.959
REMARK  Name = C:\Users\Docking\Desktop\test protocol\1iep_ligandH.pdb
REMARK  8 active torsions:
REMARK  status: ('A' for Active; 'I' for Inactive)
REMARK    1  A    between atoms: _5  and  _11
REMARK    2  A    between atoms: _19  and  _21
REMARK    3  A    between atoms: _22  and  _66
REMARK    4  A    between atoms: _27  and  _30
REMARK    5  A    between atoms: _32  and  _33
REMARK    6  A    between atoms: _38  and  _43
REMARK    7  A    between atoms: _43  and  _46
REMARK    8  A    between atoms: _53  and  _55
REMARK                            x       y       z     vdW  Elec       q    Type
REMARK                         _______ _______ _______ _____ _____    ______ ____
ROOT
ATOM     10  C   UNL     1      13.464  22.823   0.834  0.00  0.00    +0.038 A 
ATOM     11  C   UNL     1      12.407  23.561   0.243  0.00  0.00    +0.047 A 
ATOM     12  C   UNL     1      11.063  23.527   0.799  0.00  0.00    +0.035 A 
ATOM     32  C   UNL     1      10.832  22.732   1.959  0.00  0.00    +0.024 A 
ATOM     33  C   UNL     1      11.895  21.975   2.572  0.00  0.00    +0.007 A 
ATOM     34  C   UNL     1      13.222  22.003   2.027  0.00  0.00    -0.029 A 
ATOM     35  C   UNL     1      14.322  21.167   2.722  0.00  0.00    +0.045 C 
ENDROOT
BRANCH  10   9
ATOM      4  C   UNL     1      17.752  24.909   0.281  0.00  0.00    +0.077 A 
ATOM      5  C   UNL     1      17.422  25.964   1.194  0.00  0.00    +0.048 A 
ATOM      6  C   UNL     1      16.137  25.938   1.780  0.00  0.00    +0.116 A 
ATOM      7  N   UNL     1      15.255  24.926   1.468  0.00  0.00    -0.223 NA
ATOM      8  C   UNL     1      15.604  23.924   0.581  0.00  0.00    +0.220 A 
ATOM      9  N   UNL     1      14.735  22.893   0.259  0.00  0.00    -0.283 N 
ATOM     36  H   UNL     1      15.028  22.177  -0.406  0.00  0.00    +0.155 HD
ATOM     37  N   UNL     1      16.825  23.928   0.007  0.00  0.00    -0.214 NA
BRANCH   4   3
ATOM      1  C   UNL     1      21.481  24.057  -0.538  0.00  0.00    +0.020 A 
ATOM      2  C   UNL     1      20.228  24.138   0.178  0.00  0.00    +0.013 A 
ATOM      3  C   UNL     1      19.072  24.797  -0.416  0.00  0.00    +0.019 A 
ATOM     38  C   UNL     1      19.217  25.367  -1.747  0.00  0.00    +0.120 A 
ATOM     39  N   UNL     1      20.436  25.275  -2.412  0.00  0.00    -0.263 NA
ATOM     40  C   UNL     1      21.556  24.645  -1.849  0.00  0.00    +0.111 A 
ENDBRANCH   4   3
ENDBRANCH  10   9
BRANCH  12  13
ATOM     13  N   UNL     1       9.948  24.248   0.237  0.00  0.00    -0.281 N 
ATOM     14  C   UNL     1       9.489  25.509   0.581  0.00  0.00    +0.248 C 
ATOM     30  O   UNL     1       9.840  26.124   1.577  0.00  0.00    -0.270 OA
ATOM     31  H   UNL     1       9.435  23.771  -0.504  0.00  0.00    +0.155 HD
BRANCH  14  15
ATOM     15  C   UNL     1       8.485  26.178  -0.301  0.00  0.00    +0.037 A 
ATOM     16  C   UNL     1       8.441  27.637  -0.433  0.00  0.00    +0.013 A 
ATOM     17  C   UNL     1       7.452  28.257  -1.277  0.00  0.00    +0.005 A 
ATOM     18  C   UNL     1       6.498  27.418  -1.999  0.00  0.00    -0.033 A 
ATOM     28  C   UNL     1       6.568  25.973  -1.854  0.00  0.00    +0.005 A 
ATOM     29  C   UNL     1       7.536  25.361  -1.026  0.00  0.00    +0.013 A 
BRANCH  18  19
ATOM     19  C   UNL     1       5.395  27.995  -2.905  0.00  0.00    +0.119 C 
BRANCH  19  20
ATOM     20  N   UNL     1       5.456  27.654  -4.358  0.00  0.00    -0.302 NA
ATOM     21  C   UNL     1       6.120  28.762  -5.180  0.00  0.00    +0.066 C 
ATOM     22  C   UNL     1       6.196  28.380  -6.694  0.00  0.00    -0.064 C 
ATOM     23  N   UNL     1       4.788  28.089  -7.215  0.00  0.00    +0.379 N 
ATOM     24  C   UNL     1       4.849  27.785  -8.653  0.00  0.00    -0.096 C 
ATOM     25  H   UNL     1       4.183  29.017  -7.091  0.00  0.00    -0.082 HD
ATOM     26  C   UNL     1       4.119  26.990  -6.402  0.00  0.00    -0.064 C 
ATOM     27  C   UNL     1       4.075  27.367  -4.894  0.00  0.00    +0.066 C 
ENDBRANCH  19  20
ENDBRANCH  18  19
ENDBRANCH  14  15
ENDBRANCH  12  13
TORSDOF 6
ENDMDL
MODEL 3
REMARK VINA RESULT:      -7.6      4.569      9.599
REMARK  Name = C:\Users\Docking\Desktop\test protocol\1iep_ligandH.pdb
REMARK  8 active torsions:
REMARK  status: ('A' for Active; 'I' for Inactive)
REMARK    1  A    between atoms: _5  and  _11
REMARK    2  A    between atoms: _19  and  _21
REMARK    3  A    between atoms: _22  and  _66
REMARK    4  A    between atoms: _27  and  _30
REMARK    5  A    between atoms: _32  and  _33
REMARK    6  A    between atoms: _38  and  _43
REMARK    7  A    between atoms: _43  and  _46
REMARK    8  A    between atoms: _53  and  _55
REMARK                            x       y       z     vdW  Elec       q    Type
REMARK                         _______ _______ _______ _____ _____    ______ ____
ROOT
ATOM     10  C   UNL     1      10.880  24.380   1.121  0.00  0.00    +0.038 A 
ATOM     11  C   UNL     1      12.076  24.446   0.362  0.00  0.00    +0.047 A 
ATOM     12  C   UNL     1      13.365  24.650   1.006  0.00  0.00    +0.035 A 
ATOM     32  C   UNL     1      13.398  24.780   2.425  0.00  0.00    +0.024 A 
ATOM     33  C   UNL     1      12.192  24.716   3.211  0.00  0.00    +0.007 A 
ATOM     34  C   UNL     1      10.917  24.518   2.582  0.00  0.00    -0.029 A 
ATOM     35  C   UNL     1       9.655  24.464   3.474  0.00  0.00    +0.045 C 
ENDROOT
BRANCH  10   9
ATOM      4  C   UNL     1       7.004  26.019  -1.189  0.00  0.00    +0.077 A 
ATOM      5  C   UNL     1       7.411  27.385  -1.024  0.00  0.00    +0.048 A 
ATOM      6  C   UNL     1       8.620  27.623  -0.333  0.00  0.00    +0.116 A 
ATOM      7  N   UNL     1       9.359  26.567   0.153  0.00  0.00    -0.223 NA
ATOM      8  C   UNL     1       8.938  25.261  -0.022  0.00  0.00    +0.220 A 
ATOM      9  N   UNL     1       9.670  24.183   0.451  0.00  0.00    -0.283 N 
ATOM     36  H   UNL     1       9.321  23.236   0.309  0.00  0.00    +0.155 HD
ATOM     37  N   UNL     1       7.786  25.007  -0.677  0.00  0.00    -0.214 NA
BRANCH   4   3
ATOM      1  C   UNL     1       4.323  25.390  -3.966  0.00  0.00    +0.020 A 
ATOM      2  C   UNL     1       5.550  25.808  -3.328  0.00  0.00    +0.013 A 
ATOM      3  C   UNL     1       5.753  25.606  -1.899  0.00  0.00    +0.019 A 
ATOM     38  C   UNL     1       4.687  24.972  -1.138  0.00  0.00    +0.120 A 
ATOM     39  N   UNL     1       3.516  24.581  -1.779  0.00  0.00    -0.263 NA
ATOM     40  C   UNL     1       3.308  24.772  -3.153  0.00  0.00    +0.111 A 
ENDBRANCH   4   3
ENDBRANCH  10   9
BRANCH  12  13
ATOM     13  N   UNL     1      14.612  24.734   0.287  0.00  0.00    -0.281 N 
ATOM     14  C   UNL     1      15.171  25.845  -0.323  0.00  0.00    +0.248 C 
ATOM     30  O   UNL     1      14.577  26.893  -0.527  0.00  0.00    -0.270 OA
ATOM     31  H   UNL     1      15.148  23.868   0.219  0.00  0.00    +0.155 HD
BRANCH  14  15
ATOM     15  C   UNL     1      16.590  25.777  -0.786  0.00  0.00    +0.037 A 
ATOM     16  C   UNL     1      17.521  26.883  -0.547  0.00  0.00    +0.013 A 
ATOM     17  C   UNL     1      18.880  26.799  -1.019  0.00  0.00    +0.005 A 
ATOM     18  C   UNL     1      19.317  25.603  -1.735  0.00  0.00    -0.033 A 
ATOM     28  C   UNL     1      18.374  24.518  -1.954  0.00  0.00    +0.005 A 
ATOM     29  C   UNL     1      17.041  24.598  -1.493  0.00  0.00    +0.013 A 
BRANCH  18  19
ATOM     19  C   UNL     1      20.743  25.436  -2.293  0.00  0.00    +0.119 C 
BRANCH  19  20
ATOM     20  N   UNL     1      21.828  25.127  -1.315  0.00  0.00    -0.302 NA
ATOM     21  C   UNL     1      22.987  26.125  -1.407  0.00  0.00    +0.066 C 
ATOM     22  C   UNL     1      24.103  25.800  -0.362  0.00  0.00    -0.064 C 
ATOM     23  N   UNL     1      24.601  24.370  -0.579  0.00  0.00    +0.379 N 
ATOM     24  C   UNL     1      25.690  24.081   0.365  0.00  0.00    -0.096 C 
ATOM     25  H   UNL     1      25.021  24.312  -1.610  0.00  0.00    -0.082 HD
ATOM     26  C   UNL     1      23.455  23.372  -0.491  0.00  0.00    -0.064 C 
ATOM     27  C   UNL     1      22.338  23.721  -1.514  0.00  0.00    +0.066 C 
ENDBRANCH  19  20
ENDBRANCH  18  19
ENDBRANCH  14  15
ENDBRANCH  12  13
TORSDOF 6
ENDMDL
MODEL 4
REMARK VINA RESULT:      -7.5      2.572     11.695
REMARK  Name = C:\Users\Docking\Desktop\test protocol\1iep_ligandH.pdb
REMARK  8 active torsions:
REMARK  status: ('A' for Active; 'I' for Inactive)
REMARK    1  A    between atoms: _5  and  _11
REMARK    2  A    between atoms: _19  and  _21
REMARK    3  A    between atoms: _22  and  _66
REMARK    4  A    between atoms: _27  and  _30
REMARK    5  A    between atoms: _32  and  _33
REMARK    6  A    between atoms: _38  and  _43
REMARK    7  A    between atoms: _43  and  _46
REMARK    8  A    between atoms: _53  and  _55
REMARK                            x       y       z     vdW  Elec       q    Type
REMARK                         _______ _______ _______ _____ _____    ______ ____
ROOT
ATOM     10  C   UNL     1       4.512  24.983  -2.508  0.00  0.00    +0.038 A 
ATOM     11  C   UNL     1       4.629  25.359  -3.870  0.00  0.00    +0.047 A 
ATOM     12  C   UNL     1       3.453  25.659  -4.672  0.00  0.00    +0.035 A 
ATOM     32  C   UNL     1       2.172  25.569  -4.053  0.00  0.00    +0.024 A 
ATOM     33  C   UNL     1       2.034  25.187  -2.669  0.00  0.00    +0.007 A 
ATOM     34  C   UNL     1       3.191  24.887  -1.874  0.00  0.00    -0.029 A 
ATOM     35  C   UNL     1       2.984  24.477  -0.398  0.00  0.00    +0.045 C 
ENDROOT
BRANCH  10   9
ATOM      4  C   UNL     1       8.513  26.354  -0.239  0.00  0.00    +0.077 A 
ATOM      5  C   UNL     1       8.282  27.737  -0.542  0.00  0.00    +0.048 A 
ATOM      6  C   UNL     1       7.125  28.052  -1.290  0.00  0.00    +0.116 A 
ATOM      7  N   UNL     1       6.271  27.052  -1.699  0.00  0.00    -0.223 NA
ATOM      8  C   UNL     1       6.524  25.728  -1.391  0.00  0.00    +0.220 A 
ATOM      9  N   UNL     1       5.674  24.706  -1.785  0.00  0.00    -0.283 N 
ATOM     36  H   UNL     1       5.900  23.741  -1.545  0.00  0.00    +0.155 HD
ATOM     37  N   UNL     1       7.622  25.400  -0.679  0.00  0.00    -0.214 NA
BRANCH   4   3
ATOM      1  C   UNL     1      11.262  24.046   1.316  0.00  0.00    +0.020 A 
ATOM      2  C   UNL     1      10.119  24.469   0.540  0.00  0.00    +0.013 A 
ATOM      3  C   UNL     1       9.689  25.862   0.546  0.00  0.00    +0.019 A 
ATOM     38  C   UNL     1      10.445  26.809   1.352  0.00  0.00    +0.120 A 
ATOM     39  N   UNL     1      11.541  26.372   2.089  0.00  0.00    -0.263 NA
ATOM     40  C   UNL     1      11.962  25.034   2.093  0.00  0.00    +0.111 A 
ENDBRANCH   4   3
ENDBRANCH  10   9
BRANCH  12  13
ATOM     13  N   UNL     1       3.509  26.039  -6.062  0.00  0.00    -0.281 N 
ATOM     14  C   UNL     1       4.096  27.165  -6.614  0.00  0.00    +0.248 C 
ATOM     30  O   UNL     1       4.479  28.131  -5.970  0.00  0.00    -0.270 OA
ATOM     31  H   UNL     1       3.062  25.399  -6.719  0.00  0.00    +0.155 HD
BRANCH  14  15
ATOM     15  C   UNL     1       4.271  27.236  -8.097  0.00  0.00    +0.037 A 
ATOM     16  C   UNL     1       4.011  26.072  -8.948  0.00  0.00    +0.013 A 
ATOM     17  C   UNL     1       4.204  26.162 -10.374  0.00  0.00    +0.005 A 
ATOM     18  C   UNL     1       4.657  27.422 -10.957  0.00  0.00    -0.033 A 
ATOM     28  C   UNL     1       4.902  28.562 -10.090  0.00  0.00    +0.005 A 
ATOM     29  C   UNL     1       4.716  28.478  -8.692  0.00  0.00    +0.013 A 
BRANCH  18  19
ATOM     19  C   UNL     1       4.909  27.603 -12.466  0.00  0.00    +0.119 C 
BRANCH  19  20
ATOM     20  N   UNL     1       6.112  28.392 -12.869  0.00  0.00    -0.302 NA
ATOM     21  C   UNL     1       5.733  29.684 -13.598  0.00  0.00    +0.066 C 
ATOM     22  C   UNL     1       7.002  30.508 -13.992  0.00  0.00    -0.064 C 
ATOM     23  N   UNL     1       7.918  29.644 -14.861  0.00  0.00    +0.379 N 
ATOM     24  C   UNL     1       9.084  30.434 -15.281  0.00  0.00    -0.096 C 
ATOM     25  H   UNL     1       7.350  29.365 -15.778  0.00  0.00    -0.082 HD
ATOM     26  C   UNL     1       8.297  28.356 -14.144  0.00  0.00    -0.064 C 
ATOM     27  C   UNL     1       7.028  27.559 -13.731  0.00  0.00    +0.066 C 
ENDBRANCH  19  20
ENDBRANCH  18  19
ENDBRANCH  14  15
ENDBRANCH  12  13
TORSDOF 6
ENDMDL
MODEL 5
REMARK VINA RESULT:      -7.4      1.804     12.359
REMARK  Name = C:\Users\Docking\Desktop\test protocol\1iep_ligandH.pdb
REMARK  8 active torsions:
REMARK  status: ('A' for Active; 'I' for Inactive)
REMARK    1  A    between atoms: _5  and  _11
REMARK    2  A    between atoms: _19  and  _21
REMARK    3  A    between atoms: _22  and  _66
REMARK    4  A    between atoms: _27  and  _30
REMARK    5  A    between atoms: _32  and  _33
REMARK    6  A    between atoms: _38  and  _43
REMARK    7  A    between atoms: _43  and  _46
REMARK    8  A    between atoms: _53  and  _55
REMARK                            x       y       z     vdW  Elec       q    Type
REMARK                         _______ _______ _______ _____ _____    ______ ____
ROOT
ATOM     10  C   UNL     1       4.453  24.806  -1.961  0.00  0.00    +0.038 A 
ATOM     11  C   UNL     1       4.420  25.025  -3.362  0.00  0.00    +0.047 A 
ATOM     12  C   UNL     1       3.167  25.286  -4.054  0.00  0.00    +0.035 A 
ATOM     32  C   UNL     1       1.966  25.320  -3.287  0.00  0.00    +0.024 A 
ATOM     33  C   UNL     1       1.981  25.099  -1.862  0.00  0.00    +0.007 A 
ATOM     34  C   UNL     1       3.213  24.838  -1.175  0.00  0.00    -0.029 A 
ATOM     35  C   UNL     1       3.169  24.602   0.353  0.00  0.00    +0.045 C 
ENDROOT
BRANCH  10   9
ATOM      4  C   UNL     1       8.628  26.278  -0.107  0.00  0.00    +0.077 A 
ATOM      5  C   UNL     1       8.345  27.651  -0.408  0.00  0.00    +0.048 A 
ATOM      6  C   UNL     1       7.117  27.936  -1.047  0.00  0.00    +0.116 A 
ATOM      7  N   UNL     1       6.245  26.915  -1.356  0.00  0.00    -0.223 NA
ATOM      8  C   UNL     1       6.549  25.601  -1.053  0.00  0.00    +0.220 A 
ATOM      9  N   UNL     1       5.683  24.559  -1.348  0.00  0.00    -0.283 N 
ATOM     36  H   UNL     1       5.948  23.602  -1.115  0.00  0.00    +0.155 HD
ATOM     37  N   UNL     1       7.716  25.303  -0.445  0.00  0.00    -0.214 NA
BRANCH   4   3
ATOM      1  C   UNL     1      11.490  24.024   1.318  0.00  0.00    +0.020 A 
ATOM      2  C   UNL     1      10.268  24.415   0.653  0.00  0.00    +0.013 A 
ATOM      3  C   UNL     1       9.882  25.818   0.570  0.00  0.00    +0.019 A 
ATOM     38  C   UNL     1      10.761  26.808   1.173  0.00  0.00    +0.120 A 
ATOM     39  N   UNL     1      11.931  26.401   1.807  0.00  0.00    -0.263 NA
ATOM     40  C   UNL     1      12.312  25.054   1.895  0.00  0.00    +0.111 A 
ENDBRANCH   4   3
ENDBRANCH  10   9
BRANCH  12  13
ATOM     13  N   UNL     1       3.071  25.508  -5.475  0.00  0.00    -0.281 N 
ATOM     14  C   UNL     1       3.653  26.520  -6.221  0.00  0.00    +0.248 C 
ATOM     30  O   UNL     1       4.175  27.517  -5.744  0.00  0.00    -0.270 OA
ATOM     31  H   UNL     1       2.505  24.837  -5.995  0.00  0.00    +0.155 HD
BRANCH  14  15
ATOM     15  C   UNL     1       3.643  26.416  -7.712  0.00  0.00    +0.037 A 
ATOM     16  C   UNL     1       2.769  25.463  -8.401  0.00  0.00    +0.013 A 
ATOM     17  C   UNL     1       2.791  25.371  -9.839  0.00  0.00    +0.005 A 
ATOM     18  C   UNL     1       3.689  26.237 -10.599  0.00  0.00    -0.033 A 
ATOM     28  C   UNL     1       4.542  27.177  -9.890  0.00  0.00    +0.005 A 
ATOM     29  C   UNL     1       4.524  27.269  -8.480  0.00  0.00    +0.013 A 
BRANCH  18  19
ATOM     19  C   UNL     1       3.794  26.193 -12.135  0.00  0.00    +0.119 C 
BRANCH  19  20
ATOM     20  N   UNL     1       3.140  25.045 -12.832  0.00  0.00    -0.302 NA
ATOM     21  C   UNL     1       4.008  24.492 -13.965  0.00  0.00    +0.066 C 
ATOM     22  C   UNL     1       3.318  23.278 -14.669  0.00  0.00    -0.064 C 
ATOM     23  N   UNL     1       1.948  23.708 -15.196  0.00  0.00    +0.379 N 
ATOM     24  C   UNL     1       1.322  22.585 -15.909  0.00  0.00    -0.096 C 
ATOM     25  H   UNL     1       2.112  24.528 -15.934  0.00  0.00    -0.082 HD
ATOM     26  C   UNL     1       1.080  24.263 -14.076  0.00  0.00    -0.064 C 
ATOM     27  C   UNL     1       1.787  25.450 -13.364  0.00  0.00    +0.066 C 
ENDBRANCH  19  20
ENDBRANCH  18  19
ENDBRANCH  14  15
ENDBRANCH  12  13
TORSDOF 6
ENDMDL
