MODEL 1
REMARK VINA RESULT:      -9.4      0.000      0.000
REMARK  Name = C:\Users\Docking\Desktop\test protocol\1iep_ligandH.pdb
REMARK  8 active torsions:
REMARK  status: ('A' for Active; 'I' for Inactive)
REMARK    1  A    between atoms: _5  and  _11
REMARK    2  A    between atoms: _19  and  _21
REMARK    3  A    between atoms: _22  and  _66
REMARK    4  A    between atoms: _27  and  _30
REMARK    5  A    between atoms: _32  and  _33
REMARK    6  A    between atoms: _38  and  _43
REMARK    7  A    between atoms: _43  and  _46
REMARK    8  A    between atoms: _53  and  _55
REMARK                            x       y       z     vdW  Elec       q    Type
REMARK                         _______ _______ _______ _____ _____    ______ ____
ROOT
ATOM     10  C   UNL     1      31.769  30.128  70.069  0.00  0.00    +0.038 A 
ATOM     11  C   UNL     1      32.040  31.086  71.080  0.00  0.00    +0.047 A 
ATOM     12  C   UNL     1      32.429  32.446  70.742  0.00  0.00    +0.035 A 
ATOM     32  C   UNL     1      32.531  32.798  69.365  0.00  0.00    +0.024 A 
ATOM     33  C   UNL     1      32.260  31.837  68.325  0.00  0.00    +0.007 A 
ATOM     34  C   UNL     1      31.878  30.493  68.652  0.00  0.00    -0.029 A 
ATOM     35  C   UNL     1      31.607  29.502  67.495  0.00  0.00    +0.045 C 
ENDROOT
BRANCH  10   9
ATOM      4  C   UNL     1      32.704  25.887  72.112  0.00  0.00    +0.077 A 
ATOM      5  C   UNL     1      34.052  26.267  72.423  0.00  0.00    +0.048 A 
ATOM      6  C   UNL     1      34.468  27.560  72.034  0.00  0.00    +0.116 A 
ATOM      7  N   UNL     1      33.592  28.402  71.383  0.00  0.00    -0.223 NA
ATOM      8  C   UNL     1      32.299  28.003  71.097  0.00  0.00    +0.220 A 
ATOM      9  N   UNL     1      31.400  28.836  70.450  0.00  0.00    -0.283 N 
ATOM     36  H   UNL     1      30.457  28.502  70.250  0.00  0.00    +0.155 HD
ATOM     37  N   UNL     1      31.879  26.773  71.457  0.00  0.00    -0.214 NA
BRANCH   4   3
ATOM      1  C   UNL     1      31.050  22.352  71.850  0.00  0.00    +0.020 A 
ATOM      2  C   UNL     1      31.608  23.626  71.460  0.00  0.00    +0.013 A 
ATOM      3  C   UNL     1      32.116  24.555  72.461  0.00  0.00    +0.019 A 
ATOM     38  C   UNL     1      32.046  24.160  73.860  0.00  0.00    +0.120 A 
ATOM     39  N   UNL     1      31.502  22.927  74.206  0.00  0.00    -0.263 NA
ATOM     40  C   UNL     1      31.008  22.026  73.251  0.00  0.00    +0.111 A 
ENDBRANCH   4   3
ENDBRANCH  10   9
BRANCH  12  13
ATOM     13  N   UNL     1      32.724  33.459  71.725  0.00  0.00    -0.281 N 
ATOM     14  C   UNL     1      33.967  33.915  72.132  0.00  0.00    +0.248 C 
ATOM     30  O   UNL     1      35.026  33.366  71.864  0.00  0.00    -0.270 OA
ATOM     31  H   UNL     1      31.918  33.894  72.175  0.00  0.00    +0.155 HD
BRANCH  14  15
ATOM     15  C   UNL     1      34.045  35.151  72.969  0.00  0.00    +0.037 A 
ATOM     16  C   UNL     1      34.469  35.094  74.370  0.00  0.00    +0.013 A 
ATOM     17  C   UNL     1      34.519  36.299  75.160  0.00  0.00    +0.005 A 
ATOM     18  C   UNL     1      34.145  37.572  74.548  0.00  0.00    -0.033 A 
ATOM     28  C   UNL     1      33.734  37.600  73.155  0.00  0.00    +0.005 A 
ATOM     29  C   UNL     1      33.682  36.421  72.378  0.00  0.00    +0.013 A 
BRANCH  18  19
ATOM     19  C   UNL     1      34.148  38.904  75.321  0.00  0.00    +0.119 C 
BRANCH  19  20
ATOM     20  N   UNL     1      33.040  39.864  75.035  0.00  0.00    -0.302 NA
ATOM     21  C   UNL     1      33.517  41.318  75.067  0.00  0.00    +0.066 C 
ATOM     22  C   UNL     1      32.350  42.307  74.743  0.00  0.00    -0.064 C 
ATOM     23  N   UNL     1      31.210  42.090  75.739  0.00  0.00    +0.379 N 
ATOM     24  C   UNL     1      30.135  43.057  75.474  0.00  0.00    -0.096 C 
ATOM     25  H   UNL     1      31.608  42.298  76.760  0.00  0.00    -0.082 HD
ATOM     26  C   UNL     1      30.731  40.645  75.717  0.00  0.00    -0.064 C 
ATOM     27  C   UNL     1      31.905  39.669  76.011  0.00  0.00    +0.066 C 
ENDBRANCH  19  20
ENDBRANCH  18  19
ENDBRANCH  14  15
ENDBRANCH  12  13
TORSDOF 6
ENDMDL
MODEL 2
REMARK VINA RESULT:      -9.3      1.409      1.910
REMARK  Name = C:\Users\Docking\Desktop\test protocol\1iep_ligandH.pdb
REMARK  8 active torsions:
REMARK  status: ('A' for Active; 'I' for Inactive)
REMARK    1  A    between atoms: _5  and  _11
REMARK    2  A    between atoms: _19  and  _21
REMARK    3  A    between atoms: _22  and  _66
REMARK    4  A    between atoms: _27  and  _30
REMARK    5  A    between atoms: _32  and  _33
REMARK    6  A    between atoms: _38  and  _43
REMARK    7  A    between atoms: _43  and  _46
REMARK    8  A    between atoms: _53  and  _55
REMARK                            x       y       z     vdW  Elec       q    Type
REMARK                         _______ _______ _______ _____ _____    ______ ____
ROOT
ATOM     10  C   UNL     1      31.817  30.147  70.086  0.00  0.00    +0.038 A 
ATOM     11  C   UNL     1      32.055  31.136  71.074  0.00  0.00    +0.047 A 
ATOM     12  C   UNL     1      32.434  32.491  70.706  0.00  0.00    +0.035 A 
ATOM     32  C   UNL     1      32.559  32.805  69.321  0.00  0.00    +0.024 A 
ATOM     33  C   UNL     1      32.322  31.812  68.303  0.00  0.00    +0.007 A 
ATOM     34  C   UNL     1      31.950  30.472  68.661  0.00  0.00    -0.029 A 
ATOM     35  C   UNL     1      31.714  29.446  67.528  0.00  0.00    +0.045 C 
ENDROOT
BRANCH  10   9
ATOM      4  C   UNL     1      32.798  25.938  72.174  0.00  0.00    +0.077 A 
ATOM      5  C   UNL     1      34.153  26.322  72.448  0.00  0.00    +0.048 A 
ATOM      6  C   UNL     1      34.560  27.608  72.028  0.00  0.00    +0.116 A 
ATOM      7  N   UNL     1      33.669  28.440  71.385  0.00  0.00    -0.223 NA
ATOM      8  C   UNL     1      32.370  28.038  71.135  0.00  0.00    +0.220 A 
ATOM      9  N   UNL     1      31.456  28.861  70.496  0.00  0.00    -0.283 N 
ATOM     36  H   UNL     1      30.509  28.525  70.323  0.00  0.00    +0.155 HD
ATOM     37  N   UNL     1      31.958  26.814  71.524  0.00  0.00    -0.214 NA
BRANCH   4   3
ATOM      1  C   UNL     1      31.030  22.452  72.023  0.00  0.00    +0.020 A 
ATOM      2  C   UNL     1      31.573  23.722  71.600  0.00  0.00    +0.013 A 
ATOM      3  C   UNL     1      32.218  24.612  72.558  0.00  0.00    +0.019 A 
ATOM     38  C   UNL     1      32.298  24.183  73.946  0.00  0.00    +0.120 A 
ATOM     39  N   UNL     1      31.764  22.955  74.324  0.00  0.00    -0.263 NA
ATOM     40  C   UNL     1      31.140  22.091  73.412  0.00  0.00    +0.111 A 
ENDBRANCH   4   3
ENDBRANCH  10   9
BRANCH  12  13
ATOM     13  N   UNL     1      32.697  33.535  71.665  0.00  0.00    -0.281 N 
ATOM     14  C   UNL     1      33.922  33.943  72.166  0.00  0.00    +0.248 C 
ATOM     30  O   UNL     1      34.967  33.325  72.025  0.00  0.00    -0.270 OA
ATOM     31  H   UNL     1      31.880  34.035  72.017  0.00  0.00    +0.155 HD
BRANCH  14  15
ATOM     15  C   UNL     1      33.995  35.214  72.950  0.00  0.00    +0.037 A 
ATOM     16  C   UNL     1      34.362  35.212  74.368  0.00  0.00    +0.013 A 
ATOM     17  C   UNL     1      34.408  36.450  75.105  0.00  0.00    +0.005 A 
ATOM     18  C   UNL     1      34.088  37.701  74.423  0.00  0.00    -0.033 A 
ATOM     28  C   UNL     1      33.732  37.675  73.014  0.00  0.00    +0.005 A 
ATOM     29  C   UNL     1      33.685  36.463  72.289  0.00  0.00    +0.013 A 
BRANCH  18  19
ATOM     19  C   UNL     1      34.091  39.067  75.135  0.00  0.00    +0.119 C 
BRANCH  19  20
ATOM     20  N   UNL     1      33.900  39.065  76.617  0.00  0.00    -0.302 NA
ATOM     21  C   UNL     1      32.479  39.476  77.013  0.00  0.00    +0.066 C 
ATOM     22  C   UNL     1      32.291  39.447  78.565  0.00  0.00    -0.064 C 
ATOM     23  N   UNL     1      33.323  40.368  79.218  0.00  0.00    +0.379 N 
ATOM     24  C   UNL     1      33.111  40.388  80.673  0.00  0.00    -0.096 C 
ATOM     25  H   UNL     1      33.145  41.400  78.836  0.00  0.00    -0.082 HD
ATOM     26  C   UNL     1      34.739  39.969  78.827  0.00  0.00    -0.064 C 
ATOM     27  C   UNL     1      34.907  39.972  77.282  0.00  0.00    +0.066 C 
ENDBRANCH  19  20
ENDBRANCH  18  19
ENDBRANCH  14  15
ENDBRANCH  12  13
TORSDOF 6
ENDMDL
MODEL 3
REMARK VINA RESULT:      -9.1     29.909     32.164
REMARK  Name = C:\Users\Docking\Desktop\test protocol\1iep_ligandH.pdb
REMARK  8 active torsions:
REMARK  status: ('A' for Active; 'I' for Inactive)
REMARK    1  A    between atoms: _5  and  _11
REMARK    2  A    between atoms: _19  and  _21
REMARK    3  A    between atoms: _22  and  _66
REMARK    4  A    between atoms: _27  and  _30
REMARK    5  A    between atoms: _32  and  _33
REMARK    6  A    between atoms: _38  and  _43
REMARK    7  A    between atoms: _43  and  _46
REMARK    8  A    between atoms: _53  and  _55
REMARK                            x       y       z     vdW  Elec       q    Type
REMARK                         _______ _______ _______ _____ _____    ______ ____
ROOT
ATOM     10  C   UNL     1       7.732  24.414  55.040  0.00  0.00    +0.038 A 
ATOM     11  C   UNL     1       7.110  24.362  56.314  0.00  0.00    +0.047 A 
ATOM     12  C   UNL     1       5.818  24.988  56.547  0.00  0.00    +0.035 A 
ATOM     32  C   UNL     1       5.186  25.657  55.459  0.00  0.00    +0.024 A 
ATOM     33  C   UNL     1       5.804  25.721  54.158  0.00  0.00    +0.007 A 
ATOM     34  C   UNL     1       7.079  25.108  53.923  0.00  0.00    -0.029 A 
ATOM     35  C   UNL     1       7.698  25.213  52.510  0.00  0.00    +0.045 C 
ENDROOT
BRANCH  10   9
ATOM      4  C   UNL     1      10.459  20.665  53.799  0.00  0.00    +0.077 A 
ATOM      5  C   UNL     1       9.314  19.861  53.483  0.00  0.00    +0.048 A 
ATOM      6  C   UNL     1       8.040  20.447  53.661  0.00  0.00    +0.116 A 
ATOM      7  N   UNL     1       7.933  21.742  54.120  0.00  0.00    -0.223 NA
ATOM      8  C   UNL     1       9.057  22.489  54.417  0.00  0.00    +0.220 A 
ATOM      9  N   UNL     1       8.973  23.796  54.873  0.00  0.00    -0.283 N 
ATOM     36  H   UNL     1       9.826  24.311  55.088  0.00  0.00    +0.155 HD
ATOM     37  N   UNL     1      10.285  21.952  54.257  0.00  0.00    -0.214 NA
BRANCH   4   3
ATOM      1  C   UNL     1      14.367  20.554  53.677  0.00  0.00    +0.020 A 
ATOM      2  C   UNL     1      13.023  21.066  53.820  0.00  0.00    +0.013 A 
ATOM      3  C   UNL     1      11.871  20.188  53.660  0.00  0.00    +0.019 A 
ATOM     38  C   UNL     1      12.115  18.786  53.353  0.00  0.00    +0.120 A 
ATOM     39  N   UNL     1      13.420  18.322  53.219  0.00  0.00    -0.263 NA
ATOM     40  C   UNL     1      14.536  19.158  53.369  0.00  0.00    +0.111 A 
ENDBRANCH   4   3
ENDBRANCH  10   9
BRANCH  12  13
ATOM     13  N   UNL     1       5.142  24.974  57.821  0.00  0.00    -0.281 N 
ATOM     14  C   UNL     1       4.736  23.873  58.557  0.00  0.00    +0.248 C 
ATOM     30  O   UNL     1       4.702  22.729  58.129  0.00  0.00    -0.270 OA
ATOM     31  H   UNL     1       4.938  25.886  58.229  0.00  0.00    +0.155 HD
BRANCH  14  15
ATOM     15  C   UNL     1       4.289  24.074  59.970  0.00  0.00    +0.037 A 
ATOM     16  C   UNL     1       5.192  23.823  61.095  0.00  0.00    +0.013 A 
ATOM     17  C   UNL     1       4.731  24.009  62.448  0.00  0.00    +0.005 A 
ATOM     18  C   UNL     1       3.358  24.450  62.682  0.00  0.00    -0.033 A 
ATOM     28  C   UNL     1       2.485  24.697  61.547  0.00  0.00    +0.005 A 
ATOM     29  C   UNL     1       2.933  24.515  60.220  0.00  0.00    +0.013 A 
BRANCH  18  19
ATOM     19  C   UNL     1       2.774  24.654  64.093  0.00  0.00    +0.119 C 
BRANCH  19  20
ATOM     20  N   UNL     1       2.949  23.540  65.073  0.00  0.00    -0.302 NA
ATOM     21  C   UNL     1       2.272  22.249  64.602  0.00  0.00    +0.066 C 
ATOM     22  C   UNL     1       2.484  21.089  65.628  0.00  0.00    -0.064 C 
ATOM     23  N   UNL     1       1.945  21.515  66.994  0.00  0.00    +0.379 N 
ATOM     24  C   UNL     1       2.090  20.405  67.947  0.00  0.00    -0.096 C 
ATOM     25  H   UNL     1       0.856  21.722  66.878  0.00  0.00    -0.082 HD
ATOM     26  C   UNL     1       2.610  22.800  67.469  0.00  0.00    -0.064 C 
ATOM     27  C   UNL     1       2.419  23.938  66.428  0.00  0.00    +0.066 C 
ENDBRANCH  19  20
ENDBRANCH  18  19
ENDBRANCH  14  15
ENDBRANCH  12  13
TORSDOF 6
ENDMDL
MODEL 4
REMARK VINA RESULT:      -8.9      7.697      9.448
REMARK  Name = C:\Users\Docking\Desktop\test protocol\1iep_ligandH.pdb
REMARK  8 active torsions:
REMARK  status: ('A' for Active; 'I' for Inactive)
REMARK    1  A    between atoms: _5  and  _11
REMARK    2  A    between atoms: _19  and  _21
REMARK    3  A    between atoms: _22  and  _66
REMARK    4  A    between atoms: _27  and  _30
REMARK    5  A    between atoms: _32  and  _33
REMARK    6  A    between atoms: _38  and  _43
REMARK    7  A    between atoms: _43  and  _46
REMARK    8  A    between atoms: _53  and  _55
REMARK                            x       y       z     vdW  Elec       q    Type
REMARK                         _______ _______ _______ _____ _____    ______ ____
ROOT
ATOM     10  C   UNL     1      35.725  28.883  73.060  0.00  0.00    +0.038 A 
ATOM     11  C   UNL     1      36.228  29.036  74.377  0.00  0.00    +0.047 A 
ATOM     12  C   UNL     1      37.185  30.083  74.700  0.00  0.00    +0.035 A 
ATOM     32  C   UNL     1      37.606  30.958  73.657  0.00  0.00    +0.024 A 
ATOM     33  C   UNL     1      37.106  30.816  72.312  0.00  0.00    +0.007 A 
ATOM     34  C   UNL     1      36.163  29.783  71.987  0.00  0.00    -0.029 A 
ATOM     35  C   UNL     1      35.666  29.673  70.527  0.00  0.00    +0.045 C 
ENDROOT
BRANCH  10   9
ATOM      4  C   UNL     1      33.913  24.518  73.898  0.00  0.00    +0.077 A 
ATOM      5  C   UNL     1      34.893  24.240  74.908  0.00  0.00    +0.048 A 
ATOM      6  C   UNL     1      35.850  25.244  75.176  0.00  0.00    +0.116 A 
ATOM      7  N   UNL     1      35.820  26.433  74.481  0.00  0.00    -0.223 NA
ATOM      8  C   UNL     1      34.862  26.668  73.512  0.00  0.00    +0.220 A 
ATOM      9  N   UNL     1      34.807  27.860  72.806  0.00  0.00    -0.283 N 
ATOM     36  H   UNL     1      34.090  27.992  72.094  0.00  0.00    +0.155 HD
ATOM     37  N   UNL     1      33.938  25.725  73.236  0.00  0.00    -0.214 NA
BRANCH   4   3
ATOM      1  C   UNL     1      30.643  22.993  72.387  0.00  0.00    +0.020 A 
ATOM      2  C   UNL     1      31.656  23.959  72.744  0.00  0.00    +0.013 A 
ATOM      3  C   UNL     1      32.834  23.558  73.502  0.00  0.00    +0.019 A 
ATOM     38  C   UNL     1      32.958  22.160  73.887  0.00  0.00    +0.120 A 
ATOM     39  N   UNL     1      31.966  21.252  73.530  0.00  0.00    -0.263 NA
ATOM     40  C   UNL     1      30.827  21.627  72.802  0.00  0.00    +0.111 A 
ENDBRANCH   4   3
ENDBRANCH  10   9
BRANCH  12  13
ATOM     13  N   UNL     1      37.736  30.282  76.017  0.00  0.00    -0.281 N 
ATOM     14  C   UNL     1      38.698  29.522  76.662  0.00  0.00    +0.248 C 
ATOM     30  O   UNL     1      39.078  28.423  76.284  0.00  0.00    -0.270 OA
ATOM     31  H   UNL     1      37.373  31.081  76.538  0.00  0.00    +0.155 HD
BRANCH  14  15
ATOM     15  C   UNL     1      39.317  30.051  77.915  0.00  0.00    +0.037 A 
ATOM     16  C   UNL     1      39.511  29.195  79.088  0.00  0.00    +0.013 A 
ATOM     17  C   UNL     1      40.095  29.736  80.289  0.00  0.00    +0.005 A 
ATOM     18  C   UNL     1      40.492  31.141  80.323  0.00  0.00    -0.033 A 
ATOM     28  C   UNL     1      40.293  31.967  79.144  0.00  0.00    +0.005 A 
ATOM     29  C   UNL     1      39.719  31.441  77.965  0.00  0.00    +0.013 A 
BRANCH  18  19
ATOM     19  C   UNL     1      41.103  31.808  81.570  0.00  0.00    +0.119 C 
BRANCH  19  20
ATOM     20  N   UNL     1      40.967  31.084  82.869  0.00  0.00    -0.302 NA
ATOM     21  C   UNL     1      40.348  31.966  83.957  0.00  0.00    +0.066 C 
ATOM     22  C   UNL     1      40.193  31.185  85.302  0.00  0.00    -0.064 C 
ATOM     23  N   UNL     1      41.559  30.659  85.744  0.00  0.00    +0.379 N 
ATOM     24  C   UNL     1      41.426  29.974  87.039  0.00  0.00    -0.096 C 
ATOM     25  H   UNL     1      42.228  31.539  85.894  0.00  0.00    -0.082 HD
ATOM     26  C   UNL     1      42.183  29.783  84.667  0.00  0.00    -0.064 C 
ATOM     27  C   UNL     1      42.306  30.559  83.326  0.00  0.00    +0.066 C 
ENDBRANCH  19  20
ENDBRANCH  18  19
ENDBRANCH  14  15
ENDBRANCH  12  13
TORSDOF 6
ENDMDL
MODEL 5
REMARK VINA RESULT:      -8.8     28.741     30.803
REMARK  Name = C:\Users\Docking\Desktop\test protocol\1iep_ligandH.pdb
REMARK  8 active torsions:
REMARK  status: ('A' for Active; 'I' for Inactive)
REMARK    1  A    between atoms: _5  and  _11
REMARK    2  A    between atoms: _19  and  _21
REMARK    3  A    between atoms: _22  and  _66
REMARK    4  A    between atoms: _27  and  _30
REMARK    5  A    between atoms: _32  and  _33
REMARK    6  A    between atoms: _38  and  _43
REMARK    7  A    between atoms: _43  and  _46
REMARK    8  A    between atoms: _53  and  _55
REMARK                            x       y       z     vdW  Elec       q    Type
REMARK                         _______ _______ _______ _____ _____    ______ ____
ROOT
ATOM     10  C   UNL     1       2.953  23.896  65.625  0.00  0.00    +0.038 A 
ATOM     11  C   UNL     1       3.420  25.233  65.697  0.00  0.00    +0.047 A 
ATOM     12  C   UNL     1       3.729  25.988  64.492  0.00  0.00    +0.035 A 
ATOM     32  C   UNL     1       3.548  25.351  63.230  0.00  0.00    +0.024 A 
ATOM     33  C   UNL     1       3.075  23.992  63.139  0.00  0.00    +0.007 A 
ATOM     34  C   UNL     1       2.771  23.242  64.324  0.00  0.00    -0.029 A 
ATOM     35  C   UNL     1       2.273  21.786  64.166  0.00  0.00    +0.045 C 
ENDROOT
BRANCH  10   9
ATOM      4  C   UNL     1      -0.033  22.595  69.151  0.00  0.00    +0.077 A 
ATOM      5  C   UNL     1      -1.116  23.352  68.592  0.00  0.00    +0.048 A 
ATOM      6  C   UNL     1      -0.862  24.067  67.401  0.00  0.00    +0.116 A 
ATOM      7  N   UNL     1       0.387  24.022  66.820  0.00  0.00    -0.223 NA
ATOM      8  C   UNL     1       1.410  23.284  67.385  0.00  0.00    +0.220 A 
ATOM      9  N   UNL     1       2.671  23.218  66.813  0.00  0.00    -0.283 N 
ATOM     36  H   UNL     1       3.402  22.669  67.265  0.00  0.00    +0.155 HD
ATOM     37  N   UNL     1       1.193  22.593  68.523  0.00  0.00    -0.214 NA
BRANCH   4   3
ATOM      1  C   UNL     1       0.065  19.630  71.700  0.00  0.00    +0.020 A 
ATOM      2  C   UNL     1       0.192  20.368  70.464  0.00  0.00    +0.013 A 
ATOM      3  C   UNL     1      -0.146  21.784  70.404  0.00  0.00    +0.019 A 
ATOM     38  C   UNL     1      -0.613  22.430  71.622  0.00  0.00    +0.120 A 
ATOM     39  N   UNL     1      -0.727  21.694  72.797  0.00  0.00    -0.263 NA
ATOM     40  C   UNL     1      -0.406  20.330  72.867  0.00  0.00    +0.111 A 
ENDBRANCH   4   3
ENDBRANCH  10   9
BRANCH  12  13
ATOM     13  N   UNL     1       4.215  27.346  64.503  0.00  0.00    -0.281 N 
ATOM     14  C   UNL     1       3.971  28.330  65.447  0.00  0.00    +0.248 C 
ATOM     30  O   UNL     1       3.118  28.255  66.320  0.00  0.00    -0.270 OA
ATOM     31  H   UNL     1       4.812  27.614  63.720  0.00  0.00    +0.155 HD
BRANCH  14  15
ATOM     15  C   UNL     1       4.780  29.586  65.407  0.00  0.00    +0.037 A 
ATOM     16  C   UNL     1       6.017  29.668  64.626  0.00  0.00    +0.013 A 
ATOM     17  C   UNL     1       6.788  30.886  64.619  0.00  0.00    +0.005 A 
ATOM     18  C   UNL     1       6.323  32.033  65.394  0.00  0.00    -0.033 A 
ATOM     28  C   UNL     1       5.089  31.926  66.156  0.00  0.00    +0.005 A 
ATOM     29  C   UNL     1       4.331  30.733  66.166  0.00  0.00    +0.013 A 
BRANCH  18  19
ATOM     19  C   UNL     1       7.092  33.365  65.461  0.00  0.00    +0.119 C 
BRANCH  19  20
ATOM     20  N   UNL     1       7.475  34.000  64.164  0.00  0.00    -0.302 NA
ATOM     21  C   UNL     1       7.597  35.521  64.283  0.00  0.00    +0.066 C 
ATOM     22  C   UNL     1       8.020  36.166  62.923  0.00  0.00    -0.064 C 
ATOM     23  N   UNL     1       7.005  35.787  61.844  0.00  0.00    +0.379 N 
ATOM     24  C   UNL     1       7.368  36.439  60.577  0.00  0.00    -0.096 C 
ATOM     25  H   UNL     1       6.013  36.186  62.158  0.00  0.00    -0.082 HD
ATOM     26  C   UNL     1       6.876  34.275  61.721  0.00  0.00    -0.064 C 
ATOM     27  C   UNL     1       6.484  33.641  63.085  0.00  0.00    +0.066 C 
ENDBRANCH  19  20
ENDBRANCH  18  19
ENDBRANCH  14  15
ENDBRANCH  12  13
TORSDOF 6
ENDMDL
