MODEL 1
REMARK VINA RESULT:     -10.4      0.000      0.000
REMARK  Name = C:\Users\Docking\Desktop\test protocol\1iep_ligandH.pdb
REMARK  8 active torsions:
REMARK  status: ('A' for Active; 'I' for Inactive)
REMARK    1  A    between atoms: _5  and  _11
REMARK    2  A    between atoms: _19  and  _21
REMARK    3  A    between atoms: _22  and  _66
REMARK    4  A    between atoms: _27  and  _30
REMARK    5  A    between atoms: _32  and  _33
REMARK    6  A    between atoms: _38  and  _43
REMARK    7  A    between atoms: _43  and  _46
REMARK    8  A    between atoms: _53  and  _55
REMARK                            x       y       z     vdW  Elec       q    Type
REMARK                         _______ _______ _______ _____ _____    ______ ____
ROOT
ATOM     10  C   UNL     1       9.944  39.467  62.828  0.00  0.00    +0.038 A 
ATOM     11  C   UNL     1       9.653  39.860  61.496  0.00  0.00    +0.047 A 
ATOM     12  C   UNL     1       9.710  41.256  61.094  0.00  0.00    +0.035 A 
ATOM     32  C   UNL     1      10.069  42.227  62.074  0.00  0.00    +0.024 A 
ATOM     33  C   UNL     1      10.366  41.846  63.433  0.00  0.00    +0.007 A 
ATOM     34  C   UNL     1      10.310  40.469  63.835  0.00  0.00    -0.029 A 
ATOM     35  C   UNL     1      10.633  40.119  65.306  0.00  0.00    +0.045 C 
ENDROOT
BRANCH  10   9
ATOM      4  C   UNL     1       7.473  35.469  63.803  0.00  0.00    +0.077 A 
ATOM      5  C   UNL     1       6.214  36.144  63.668  0.00  0.00    +0.048 A 
ATOM      6  C   UNL     1       6.246  37.521  63.354  0.00  0.00    +0.116 A 
ATOM      7  N   UNL     1       7.453  38.165  63.189  0.00  0.00    -0.223 NA
ATOM      8  C   UNL     1       8.649  37.485  63.328  0.00  0.00    +0.220 A 
ATOM      9  N   UNL     1       9.874  38.111  63.159  0.00  0.00    -0.283 N 
ATOM     36  H   UNL     1      10.735  37.577  63.277  0.00  0.00    +0.155 HD
ATOM     37  N   UNL     1       8.645  36.170  63.629  0.00  0.00    -0.214 NA
BRANCH   4   3
ATOM      1  C   UNL     1       8.211  32.114  65.674  0.00  0.00    +0.020 A 
ATOM      2  C   UNL     1       8.105  33.530  65.409  0.00  0.00    +0.013 A 
ATOM      3  C   UNL     1       7.604  34.014  64.129  0.00  0.00    +0.019 A 
ATOM     38  C   UNL     1       7.214  33.030  63.130  0.00  0.00    +0.120 A 
ATOM     39  N   UNL     1       7.329  31.672  63.412  0.00  0.00    -0.263 NA
ATOM     40  C   UNL     1       7.811  31.195  64.640  0.00  0.00    +0.111 A 
ENDBRANCH   4   3
ENDBRANCH  10   9
BRANCH  12  13
ATOM     13  N   UNL     1       9.417  41.716  59.759  0.00  0.00    -0.281 N 
ATOM     14  C   UNL     1      10.312  42.117  58.781  0.00  0.00    +0.248 C 
ATOM     30  O   UNL     1      11.496  42.346  58.980  0.00  0.00    -0.270 OA
ATOM     31  H   UNL     1       8.430  41.749  59.504  0.00  0.00    +0.155 HD
BRANCH  14  15
ATOM     15  C   UNL     1       9.818  42.306  57.384  0.00  0.00    +0.037 A 
ATOM     16  C   UNL     1       9.000  41.285  56.723  0.00  0.00    +0.013 A 
ATOM     17  C   UNL     1       8.551  41.485  55.368  0.00  0.00    +0.005 A 
ATOM     18  C   UNL     1       8.918  42.712  54.665  0.00  0.00    -0.033 A 
ATOM     28  C   UNL     1       9.726  43.709  55.346  0.00  0.00    +0.005 A 
ATOM     29  C   UNL     1      10.169  43.517  56.674  0.00  0.00    +0.013 A 
BRANCH  18  19
ATOM     19  C   UNL     1       8.500  42.999  53.210  0.00  0.00    +0.119 C 
BRANCH  19  20
ATOM     20  N   UNL     1       9.506  42.719  52.142  0.00  0.00    -0.302 NA
ATOM     21  C   UNL     1       9.258  43.557  50.885  0.00  0.00    +0.066 C 
ATOM     22  C   UNL     1      10.332  43.268  49.787  0.00  0.00    -0.064 C 
ATOM     23  N   UNL     1      10.325  41.775  49.452  0.00  0.00    +0.379 N 
ATOM     24  C   UNL     1      11.293  41.509  48.378  0.00  0.00    -0.096 C 
ATOM     25  H   UNL     1       9.311  41.520  49.064  0.00  0.00    -0.082 HD
ATOM     26  C   UNL     1      10.568  40.934  50.697  0.00  0.00    -0.064 C 
ATOM     27  C   UNL     1       9.513  41.251  51.793  0.00  0.00    +0.066 C 
ENDBRANCH  19  20
ENDBRANCH  18  19
ENDBRANCH  14  15
ENDBRANCH  12  13
TORSDOF 6
ENDMDL
MODEL 2
REMARK VINA RESULT:      -9.8      1.733      2.234
REMARK  Name = C:\Users\Docking\Desktop\test protocol\1iep_ligandH.pdb
REMARK  8 active torsions:
REMARK  status: ('A' for Active; 'I' for Inactive)
REMARK    1  A    between atoms: _5  and  _11
REMARK    2  A    between atoms: _19  and  _21
REMARK    3  A    between atoms: _22  and  _66
REMARK    4  A    between atoms: _27  and  _30
REMARK    5  A    between atoms: _32  and  _33
REMARK    6  A    between atoms: _38  and  _43
REMARK    7  A    between atoms: _43  and  _46
REMARK    8  A    between atoms: _53  and  _55
REMARK                            x       y       z     vdW  Elec       q    Type
REMARK                         _______ _______ _______ _____ _____    ______ ____
ROOT
ATOM     10  C   UNL     1       9.502  39.604  63.038  0.00  0.00    +0.038 A 
ATOM     11  C   UNL     1       9.168  39.809  61.675  0.00  0.00    +0.047 A 
ATOM     12  C   UNL     1       9.464  41.068  61.008  0.00  0.00    +0.035 A 
ATOM     32  C   UNL     1      10.102  42.096  61.761  0.00  0.00    +0.024 A 
ATOM     33  C   UNL     1      10.447  41.906  63.148  0.00  0.00    +0.007 A 
ATOM     34  C   UNL     1      10.156  40.667  63.811  0.00  0.00    -0.029 A 
ATOM     35  C   UNL     1      10.542  40.521  65.301  0.00  0.00    +0.045 C 
ENDROOT
BRANCH  10   9
ATOM      4  C   UNL     1       8.047  35.037  62.791  0.00  0.00    +0.077 A 
ATOM      5  C   UNL     1       7.857  35.112  61.371  0.00  0.00    +0.048 A 
ATOM      6  C   UNL     1       8.138  36.347  60.743  0.00  0.00    +0.116 A 
ATOM      7  N   UNL     1       8.576  37.419  61.490  0.00  0.00    -0.223 NA
ATOM      8  C   UNL     1       8.747  37.313  62.858  0.00  0.00    +0.220 A 
ATOM      9  N   UNL     1       9.195  38.376  63.627  0.00  0.00    -0.283 N 
ATOM     36  H   UNL     1       9.301  38.259  64.635  0.00  0.00    +0.155 HD
ATOM     37  N   UNL     1       8.485  36.145  63.481  0.00  0.00    -0.214 NA
BRANCH   4   3
ATOM      1  C   UNL     1       7.961  32.441  65.716  0.00  0.00    +0.020 A 
ATOM      2  C   UNL     1       8.229  33.656  64.981  0.00  0.00    +0.013 A 
ATOM      3  C   UNL     1       7.796  33.800  63.597  0.00  0.00    +0.019 A 
ATOM     38  C   UNL     1       7.088  32.688  62.981  0.00  0.00    +0.120 A 
ATOM     39  N   UNL     1       6.846  31.530  63.712  0.00  0.00    -0.263 NA
ATOM     40  C   UNL     1       7.259  31.379  65.044  0.00  0.00    +0.111 A 
ENDBRANCH   4   3
ENDBRANCH  10   9
BRANCH  12  13
ATOM     13  N   UNL     1       9.141  41.336  59.629  0.00  0.00    -0.281 N 
ATOM     14  C   UNL     1       9.990  41.774  58.626  0.00  0.00    +0.248 C 
ATOM     30  O   UNL     1      11.117  42.208  58.814  0.00  0.00    -0.270 OA
ATOM     31  H   UNL     1       8.169  41.185  59.359  0.00  0.00    +0.155 HD
BRANCH  14  15
ATOM     15  C   UNL     1       9.514  41.738  57.210  0.00  0.00    +0.037 A 
ATOM     16  C   UNL     1       9.470  42.952  56.391  0.00  0.00    +0.013 A 
ATOM     17  C   UNL     1       8.990  42.892  55.033  0.00  0.00    +0.005 A 
ATOM     18  C   UNL     1       8.551  41.611  54.485  0.00  0.00    -0.033 A 
ATOM     28  C   UNL     1       8.609  40.421  55.317  0.00  0.00    +0.005 A 
ATOM     29  C   UNL     1       9.078  40.476  56.649  0.00  0.00    +0.013 A 
BRANCH  18  19
ATOM     19  C   UNL     1       8.004  41.458  53.053  0.00  0.00    +0.119 C 
BRANCH  19  20
ATOM     20  N   UNL     1       8.116  40.110  52.419  0.00  0.00    -0.302 NA
ATOM     21  C   UNL     1       9.434  39.941  51.659  0.00  0.00    +0.066 C 
ATOM     22  C   UNL     1       9.544  38.518  51.021  0.00  0.00    -0.064 C 
ATOM     23  N   UNL     1       8.350  38.283  50.094  0.00  0.00    +0.379 N 
ATOM     24  C   UNL     1       8.481  36.969  49.448  0.00  0.00    -0.096 C 
ATOM     25  H   UNL     1       8.386  39.059  49.294  0.00  0.00    -0.082 HD
ATOM     26  C   UNL     1       7.035  38.453  50.841  0.00  0.00    -0.064 C 
ATOM     27  C   UNL     1       6.948  39.860  51.496  0.00  0.00    +0.066 C 
ENDBRANCH  19  20
ENDBRANCH  18  19
ENDBRANCH  14  15
ENDBRANCH  12  13
TORSDOF 6
ENDMDL
MODEL 3
REMARK VINA RESULT:      -9.2     13.235     20.364
REMARK  Name = C:\Users\Docking\Desktop\test protocol\1iep_ligandH.pdb
REMARK  8 active torsions:
REMARK  status: ('A' for Active; 'I' for Inactive)
REMARK    1  A    between atoms: _5  and  _11
REMARK    2  A    between atoms: _19  and  _21
REMARK    3  A    between atoms: _22  and  _66
REMARK    4  A    between atoms: _27  and  _30
REMARK    5  A    between atoms: _32  and  _33
REMARK    6  A    between atoms: _38  and  _43
REMARK    7  A    between atoms: _43  and  _46
REMARK    8  A    between atoms: _53  and  _55
REMARK                            x       y       z     vdW  Elec       q    Type
REMARK                         _______ _______ _______ _____ _____    ______ ____
ROOT
ATOM     10  C   UNL     1       6.055  23.355  58.051  0.00  0.00    +0.038 A 
ATOM     11  C   UNL     1       5.837  23.723  59.403  0.00  0.00    +0.047 A 
ATOM     12  C   UNL     1       4.822  23.063  60.209  0.00  0.00    +0.035 A 
ATOM     32  C   UNL     1       4.047  22.030  59.606  0.00  0.00    +0.024 A 
ATOM     33  C   UNL     1       4.254  21.644  58.232  0.00  0.00    +0.007 A 
ATOM     34  C   UNL     1       5.252  22.293  57.432  0.00  0.00    -0.029 A 
ATOM     35  C   UNL     1       5.426  21.842  55.963  0.00  0.00    +0.045 C 
ENDROOT
BRANCH  10   9
ATOM      4  C   UNL     1       7.587  27.038  55.382  0.00  0.00    +0.077 A 
ATOM      5  C   UNL     1       6.302  27.674  55.416  0.00  0.00    +0.048 A 
ATOM      6  C   UNL     1       5.271  27.018  56.125  0.00  0.00    +0.116 A 
ATOM      7  N   UNL     1       5.519  25.815  56.750  0.00  0.00    -0.223 NA
ATOM      8  C   UNL     1       6.769  25.227  56.696  0.00  0.00    +0.220 A 
ATOM      9  N   UNL     1       7.043  24.022  57.324  0.00  0.00    -0.283 N 
ATOM     36  H   UNL     1       7.977  23.617  57.254  0.00  0.00    +0.155 HD
ATOM     37  N   UNL     1       7.770  25.834  56.024  0.00  0.00    -0.214 NA
BRANCH   4   3
ATOM      1  C   UNL     1      10.342  29.504  54.106  0.00  0.00    +0.020 A 
ATOM      2  C   UNL     1       9.184  29.002  54.810  0.00  0.00    +0.013 A 
ATOM      3  C   UNL     1       8.777  27.609  54.676  0.00  0.00    +0.019 A 
ATOM     38  C   UNL     1       9.570  26.743  53.816  0.00  0.00    +0.120 A 
ATOM     39  N   UNL     1      10.679  27.255  53.150  0.00  0.00    -0.263 NA
ATOM     40  C   UNL     1      11.079  28.594  53.270  0.00  0.00    +0.111 A 
ENDBRANCH   4   3
ENDBRANCH  10   9
BRANCH  12  13
ATOM     13  N   UNL     1       4.550  23.400  61.584  0.00  0.00    -0.281 N 
ATOM     14  C   UNL     1       3.410  23.987  62.109  0.00  0.00    +0.248 C 
ATOM     30  O   UNL     1       2.531  24.509  61.439  0.00  0.00    -0.270 OA
ATOM     31  H   UNL     1       5.288  23.179  62.253  0.00  0.00    +0.155 HD
BRANCH  14  15
ATOM     15  C   UNL     1       3.226  24.009  63.592  0.00  0.00    +0.037 A 
ATOM     16  C   UNL     1       4.213  24.642  64.470  0.00  0.00    +0.013 A 
ATOM     17  C   UNL     1       4.020  24.635  65.899  0.00  0.00    +0.005 A 
ATOM     18  C   UNL     1       2.833  23.992  66.458  0.00  0.00    -0.033 A 
ATOM     28  C   UNL     1       1.867  23.376  65.563  0.00  0.00    +0.005 A 
ATOM     29  C   UNL     1       2.054  23.381  64.162  0.00  0.00    +0.013 A 
BRANCH  18  19
ATOM     19  C   UNL     1       2.556  23.918  67.971  0.00  0.00    +0.119 C 
BRANCH  19  20
ATOM     20  N   UNL     1       2.606  22.570  68.610  0.00  0.00    -0.302 NA
ATOM     21  C   UNL     1       3.273  22.611  69.988  0.00  0.00    +0.066 C 
ATOM     22  C   UNL     1       3.296  21.195  70.651  0.00  0.00    -0.064 C 
ATOM     23  N   UNL     1       4.020  20.214  69.728  0.00  0.00    +0.379 N 
ATOM     24  C   UNL     1       4.095  18.896  70.375  0.00  0.00    -0.096 C 
ATOM     25  H   UNL     1       5.063  20.584  69.593  0.00  0.00    -0.082 HD
ATOM     26  C   UNL     1       3.365  20.169  68.355  0.00  0.00    -0.064 C 
ATOM     27  C   UNL     1       3.321  21.585  67.717  0.00  0.00    +0.066 C 
ENDBRANCH  19  20
ENDBRANCH  18  19
ENDBRANCH  14  15
ENDBRANCH  12  13
TORSDOF 6
ENDMDL
MODEL 4
REMARK VINA RESULT:      -9.0     13.200     19.620
REMARK  Name = C:\Users\Docking\Desktop\test protocol\1iep_ligandH.pdb
REMARK  8 active torsions:
REMARK  status: ('A' for Active; 'I' for Inactive)
REMARK    1  A    between atoms: _5  and  _11
REMARK    2  A    between atoms: _19  and  _21
REMARK    3  A    between atoms: _22  and  _66
REMARK    4  A    between atoms: _27  and  _30
REMARK    5  A    between atoms: _32  and  _33
REMARK    6  A    between atoms: _38  and  _43
REMARK    7  A    between atoms: _43  and  _46
REMARK    8  A    between atoms: _53  and  _55
REMARK                            x       y       z     vdW  Elec       q    Type
REMARK                         _______ _______ _______ _____ _____    ______ ____
ROOT
ATOM     10  C   UNL     1       6.080  23.336  58.045  0.00  0.00    +0.038 A 
ATOM     11  C   UNL     1       5.875  23.695  59.402  0.00  0.00    +0.047 A 
ATOM     12  C   UNL     1       4.864  23.034  60.211  0.00  0.00    +0.035 A 
ATOM     32  C   UNL     1       4.081  22.007  59.607  0.00  0.00    +0.024 A 
ATOM     33  C   UNL     1       4.275  21.630  58.229  0.00  0.00    +0.007 A 
ATOM     34  C   UNL     1       5.269  22.281  57.425  0.00  0.00    -0.029 A 
ATOM     35  C   UNL     1       5.429  21.839  55.952  0.00  0.00    +0.045 C 
ENDROOT
BRANCH  10   9
ATOM      4  C   UNL     1       7.622  27.059  55.438  0.00  0.00    +0.077 A 
ATOM      5  C   UNL     1       6.349  27.716  55.515  0.00  0.00    +0.048 A 
ATOM      6  C   UNL     1       5.322  27.059  56.230  0.00  0.00    +0.116 A 
ATOM      7  N   UNL     1       5.562  25.837  56.819  0.00  0.00    -0.223 NA
ATOM      8  C   UNL     1       6.800  25.229  56.723  0.00  0.00    +0.220 A 
ATOM      9  N   UNL     1       7.066  24.004  57.315  0.00  0.00    -0.283 N 
ATOM     36  H   UNL     1       7.990  23.585  57.215  0.00  0.00    +0.155 HD
ATOM     37  N   UNL     1       7.797  25.836  56.046  0.00  0.00    -0.214 NA
BRANCH   4   3
ATOM      1  C   UNL     1      10.352  29.527  54.113  0.00  0.00    +0.020 A 
ATOM      2  C   UNL     1       9.199  29.028  54.825  0.00  0.00    +0.013 A 
ATOM      3  C   UNL     1       8.807  27.628  54.722  0.00  0.00    +0.019 A 
ATOM     38  C   UNL     1       9.612  26.751  53.884  0.00  0.00    +0.120 A 
ATOM     39  N   UNL     1      10.717  27.260  53.209  0.00  0.00    -0.263 NA
ATOM     40  C   UNL     1      11.102  28.606  53.299  0.00  0.00    +0.111 A 
ENDBRANCH   4   3
ENDBRANCH  10   9
BRANCH  12  13
ATOM     13  N   UNL     1       4.605  23.362  61.591  0.00  0.00    -0.281 N 
ATOM     14  C   UNL     1       3.490  23.988  62.123  0.00  0.00    +0.248 C 
ATOM     30  O   UNL     1       2.634  24.555  61.460  0.00  0.00    -0.270 OA
ATOM     31  H   UNL     1       5.333  23.102  62.257  0.00  0.00    +0.155 HD
BRANCH  14  15
ATOM     15  C   UNL     1       3.305  23.997  63.606  0.00  0.00    +0.037 A 
ATOM     16  C   UNL     1       2.195  23.280  64.238  0.00  0.00    +0.013 A 
ATOM     17  C   UNL     1       2.030  23.319  65.670  0.00  0.00    +0.005 A 
ATOM     18  C   UNL     1       2.981  24.078  66.479  0.00  0.00    -0.033 A 
ATOM     28  C   UNL     1       4.076  24.776  65.827  0.00  0.00    +0.005 A 
ATOM     29  C   UNL     1       4.240  24.741  64.424  0.00  0.00    +0.013 A 
BRANCH  18  19
ATOM     19  C   UNL     1       2.870  24.193  68.011  0.00  0.00    +0.119 C 
BRANCH  19  20
ATOM     20  N   UNL     1       2.291  25.454  68.563  0.00  0.00    -0.302 NA
ATOM     21  C   UNL     1       2.803  25.752  69.975  0.00  0.00    +0.066 C 
ATOM     22  C   UNL     1       2.204  27.087  70.527  0.00  0.00    -0.064 C 
ATOM     23  N   UNL     1       0.677  27.002  70.511  0.00  0.00    +0.379 N 
ATOM     24  C   UNL     1       0.112  28.233  71.084  0.00  0.00    -0.096 C 
ATOM     25  H   UNL     1       0.379  26.154  71.170  0.00  0.00    -0.082 HD
ATOM     26  C   UNL     1       0.159  26.703  69.112  0.00  0.00    -0.064 C 
ATOM     27  C   UNL     1       0.783  25.391  68.560  0.00  0.00    +0.066 C 
ENDBRANCH  19  20
ENDBRANCH  18  19
ENDBRANCH  14  15
ENDBRANCH  12  13
TORSDOF 6
ENDMDL
MODEL 5
REMARK VINA RESULT:      -8.9      1.778      2.455
REMARK  Name = C:\Users\Docking\Desktop\test protocol\1iep_ligandH.pdb
REMARK  8 active torsions:
REMARK  status: ('A' for Active; 'I' for Inactive)
REMARK    1  A    between atoms: _5  and  _11
REMARK    2  A    between atoms: _19  and  _21
REMARK    3  A    between atoms: _22  and  _66
REMARK    4  A    between atoms: _27  and  _30
REMARK    5  A    between atoms: _32  and  _33
REMARK    6  A    between atoms: _38  and  _43
REMARK    7  A    between atoms: _43  and  _46
REMARK    8  A    between atoms: _53  and  _55
REMARK                            x       y       z     vdW  Elec       q    Type
REMARK                         _______ _______ _______ _____ _____    ______ ____
ROOT
ATOM     10  C   UNL     1       9.326  39.609  61.390  0.00  0.00    +0.038 A 
ATOM     11  C   UNL     1       9.050  39.635  59.999  0.00  0.00    +0.047 A 
ATOM     12  C   UNL     1       9.500  40.738  59.163  0.00  0.00    +0.035 A 
ATOM     32  C   UNL     1      10.230  41.797  59.778  0.00  0.00    +0.024 A 
ATOM     33  C   UNL     1      10.518  41.787  61.190  0.00  0.00    +0.007 A 
ATOM     34  C   UNL     1      10.076  40.703  62.020  0.00  0.00    -0.029 A 
ATOM     35  C   UNL     1      10.408  40.747  63.530  0.00  0.00    +0.045 C 
ENDROOT
BRANCH  10   9
ATOM      4  C   UNL     1       8.045  35.005  61.840  0.00  0.00    +0.077 A 
ATOM      5  C   UNL     1       8.276  34.744  60.449  0.00  0.00    +0.048 A 
ATOM      6  C   UNL     1       8.717  35.822  59.650  0.00  0.00    +0.116 A 
ATOM      7  N   UNL     1       8.910  37.066  60.212  0.00  0.00    -0.223 NA
ATOM      8  C   UNL     1       8.676  37.285  61.557  0.00  0.00    +0.220 A 
ATOM      9  N   UNL     1       8.871  38.525  62.144  0.00  0.00    -0.283 N 
ATOM     36  H   UNL     1       8.680  38.648  63.139  0.00  0.00    +0.155 HD
ATOM     37  N   UNL     1       8.253  36.271  62.341  0.00  0.00    -0.214 NA
BRANCH   4   3
ATOM      1  C   UNL     1       7.024  33.177  65.144  0.00  0.00    +0.020 A 
ATOM      2  C   UNL     1       7.479  34.214  64.247  0.00  0.00    +0.013 A 
ATOM      3  C   UNL     1       7.580  33.967  62.814  0.00  0.00    +0.019 A 
ATOM     38  C   UNL     1       7.208  32.651  62.317  0.00  0.00    +0.120 A 
ATOM     39  N   UNL     1       6.775  31.672  63.205  0.00  0.00    -0.263 NA
ATOM     40  C   UNL     1       6.675  31.897  64.586  0.00  0.00    +0.111 A 
ENDBRANCH   4   3
ENDBRANCH  10   9
BRANCH  12  13
ATOM     13  N   UNL     1       9.242  40.823  57.747  0.00  0.00    -0.281 N 
ATOM     14  C   UNL     1       8.503  41.781  57.072  0.00  0.00    +0.248 C 
ATOM     30  O   UNL     1       7.769  42.595  57.612  0.00  0.00    -0.270 OA
ATOM     31  H   UNL     1       9.655  40.089  57.173  0.00  0.00    +0.155 HD
BRANCH  14  15
ATOM     15  C   UNL     1       8.579  41.832  55.580  0.00  0.00    +0.037 A 
ATOM     16  C   UNL     1       9.219  42.955  54.890  0.00  0.00    +0.013 A 
ATOM     17  C   UNL     1       9.264  42.988  53.450  0.00  0.00    +0.005 A 
ATOM     18  C   UNL     1       8.667  41.893  52.690  0.00  0.00    -0.033 A 
ATOM     28  C   UNL     1       8.043  40.789  53.400  0.00  0.00    +0.005 A 
ATOM     29  C   UNL     1       7.997  40.753  54.811  0.00  0.00    +0.013 A 
BRANCH  18  19
ATOM     19  C   UNL     1       8.649  41.855  51.150  0.00  0.00    +0.119 C 
BRANCH  19  20
ATOM     20  N   UNL     1       9.827  41.241  50.468  0.00  0.00    -0.302 NA
ATOM     21  C   UNL     1      10.641  42.275  49.684  0.00  0.00    +0.066 C 
ATOM     22  C   UNL     1      11.882  41.620  48.995  0.00  0.00    -0.064 C 
ATOM     23  N   UNL     1      11.414  40.490  48.076  0.00  0.00    +0.379 N 
ATOM     24  C   UNL     1      12.573  39.909  47.383  0.00  0.00    -0.096 C 
ATOM     25  H   UNL     1      10.746  40.937  47.304  0.00  0.00    -0.082 HD
ATOM     26  C   UNL     1      10.602  39.458  48.847  0.00  0.00    -0.064 C 
ATOM     27  C   UNL     1       9.388  40.125  49.552  0.00  0.00    +0.066 C 
ENDBRANCH  19  20
ENDBRANCH  18  19
ENDBRANCH  14  15
ENDBRANCH  12  13
TORSDOF 6
ENDMDL
