MODEL 1
REMARK VINA RESULT:      -9.4      0.000      0.000
REMARK  Name = C:\Users\Docking\Desktop\test protocol\1iep_ligandH.pdb
REMARK  8 active torsions:
REMARK  status: ('A' for Active; 'I' for Inactive)
REMARK    1  A    between atoms: _5  and  _11
REMARK    2  A    between atoms: _19  and  _21
REMARK    3  A    between atoms: _22  and  _66
REMARK    4  A    between atoms: _27  and  _30
REMARK    5  A    between atoms: _32  and  _33
REMARK    6  A    between atoms: _38  and  _43
REMARK    7  A    between atoms: _43  and  _46
REMARK    8  A    between atoms: _53  and  _55
REMARK                            x       y       z     vdW  Elec       q    Type
REMARK                         _______ _______ _______ _____ _____    ______ ____
ROOT
ATOM     10  C   UNL     1      23.011  32.212  25.327  0.00  0.00    +0.038 A 
ATOM     11  C   UNL     1      23.818  31.775  24.246  0.00  0.00    +0.047 A 
ATOM     12  C   UNL     1      24.191  30.377  24.101  0.00  0.00    +0.035 A 
ATOM     32  C   UNL     1      23.723  29.449  25.076  0.00  0.00    +0.024 A 
ATOM     33  C   UNL     1      22.903  29.875  26.183  0.00  0.00    +0.007 A 
ATOM     34  C   UNL     1      22.533  31.253  26.332  0.00  0.00    -0.029 A 
ATOM     35  C   UNL     1      21.658  31.655  27.541  0.00  0.00    +0.045 C 
ENDROOT
BRANCH  10   9
ATOM      4  C   UNL     1      20.141  35.942  24.388  0.00  0.00    +0.077 A 
ATOM      5  C   UNL     1      19.233  35.129  23.632  0.00  0.00    +0.048 A 
ATOM      6  C   UNL     1      19.544  33.757  23.503  0.00  0.00    +0.116 A 
ATOM      7  N   UNL     1      20.682  33.247  24.090  0.00  0.00    -0.223 NA
ATOM      8  C   UNL     1      21.538  34.059  24.811  0.00  0.00    +0.220 A 
ATOM      9  N   UNL     1      22.683  33.566  25.417  0.00  0.00    -0.283 N 
ATOM     36  H   UNL     1      23.292  34.199  25.934  0.00  0.00    +0.155 HD
ATOM     37  N   UNL     1      21.263  35.373  24.948  0.00  0.00    -0.214 NA
BRANCH   4   3
ATOM      1  C   UNL     1      19.293  39.382  26.047  0.00  0.00    +0.020 A 
ATOM      2  C   UNL     1      19.461  37.957  25.877  0.00  0.00    +0.013 A 
ATOM      3  C   UNL     1      19.948  37.409  24.617  0.00  0.00    +0.019 A 
ATOM     38  C   UNL     1      20.257  38.338  23.540  0.00  0.00    +0.120 A 
ATOM     39  N   UNL     1      20.083  39.705  23.732  0.00  0.00    -0.263 NA
ATOM     40  C   UNL     1      19.614  40.243  24.940  0.00  0.00    +0.111 A 
ENDBRANCH   4   3
ENDBRANCH  10   9
BRANCH  12  13
ATOM     13  N   UNL     1      25.015  29.877  23.028  0.00  0.00    -0.281 N 
ATOM     14  C   UNL     1      26.336  30.188  22.753  0.00  0.00    +0.248 C 
ATOM     30  O   UNL     1      26.950  31.112  23.266  0.00  0.00    -0.270 OA
ATOM     31  H   UNL     1      24.569  29.213  22.395  0.00  0.00    +0.155 HD
BRANCH  14  15
ATOM     15  C   UNL     1      27.079  29.362  21.753  0.00  0.00    +0.037 A 
ATOM     16  C   UNL     1      28.264  28.590  22.135  0.00  0.00    +0.013 A 
ATOM     17  C   UNL     1      28.973  27.815  21.147  0.00  0.00    +0.005 A 
ATOM     18  C   UNL     1      28.496  27.808  19.766  0.00  0.00    -0.033 A 
ATOM     28  C   UNL     1      27.314  28.579  19.416  0.00  0.00    +0.005 A 
ATOM     29  C   UNL     1      26.618  29.340  20.381  0.00  0.00    +0.013 A 
BRANCH  18  19
ATOM     19  C   UNL     1      29.201  27.027  18.642  0.00  0.00    +0.119 C 
BRANCH  19  20
ATOM     20  N   UNL     1      28.681  25.663  18.326  0.00  0.00    -0.302 NA
ATOM     21  C   UNL     1      29.068  24.638  19.396  0.00  0.00    +0.066 C 
ATOM     22  C   UNL     1      28.497  23.222  19.061  0.00  0.00    -0.064 C 
ATOM     23  N   UNL     1      28.999  22.785  17.684  0.00  0.00    +0.379 N 
ATOM     24  C   UNL     1      28.511  21.429  17.391  0.00  0.00    -0.096 C 
ATOM     25  H   UNL     1      30.112  22.741  17.729  0.00  0.00    -0.082 HD
ATOM     26  C   UNL     1      28.620  23.800  16.615  0.00  0.00    -0.064 C 
ATOM     27  C   UNL     1      29.168  25.210  16.972  0.00  0.00    +0.066 C 
ENDBRANCH  19  20
ENDBRANCH  18  19
ENDBRANCH  14  15
ENDBRANCH  12  13
TORSDOF 6
ENDMDL
MODEL 2
REMARK VINA RESULT:      -8.6     31.552     34.455
REMARK  Name = C:\Users\Docking\Desktop\test protocol\1iep_ligandH.pdb
REMARK  8 active torsions:
REMARK  status: ('A' for Active; 'I' for Inactive)
REMARK    1  A    between atoms: _5  and  _11
REMARK    2  A    between atoms: _19  and  _21
REMARK    3  A    between atoms: _22  and  _66
REMARK    4  A    between atoms: _27  and  _30
REMARK    5  A    between atoms: _32  and  _33
REMARK    6  A    between atoms: _38  and  _43
REMARK    7  A    between atoms: _43  and  _46
REMARK    8  A    between atoms: _53  and  _55
REMARK                            x       y       z     vdW  Elec       q    Type
REMARK                         _______ _______ _______ _____ _____    ______ ____
ROOT
ATOM     10  C   UNL     1      53.254  16.097  23.955  0.00  0.00    +0.038 A 
ATOM     11  C   UNL     1      53.111  14.729  24.302  0.00  0.00    +0.047 A 
ATOM     12  C   UNL     1      52.185  13.864  23.588  0.00  0.00    +0.035 A 
ATOM     32  C   UNL     1      51.421  14.426  22.524  0.00  0.00    +0.024 A 
ATOM     33  C   UNL     1      51.552  15.814  22.159  0.00  0.00    +0.007 A 
ATOM     34  C   UNL     1      52.463  16.673  22.861  0.00  0.00    -0.029 A 
ATOM     35  C   UNL     1      52.558  18.155  22.431  0.00  0.00    +0.045 C 
ENDROOT
BRANCH  10   9
ATOM      4  C   UNL     1      54.360  19.015  27.602  0.00  0.00    +0.077 A 
ATOM      5  C   UNL     1      53.015  18.997  28.102  0.00  0.00    +0.048 A 
ATOM      6  C   UNL     1      52.067  18.230  27.387  0.00  0.00    +0.116 A 
ATOM      7  N   UNL     1      52.448  17.537  26.259  0.00  0.00    -0.223 NA
ATOM      8  C   UNL     1      53.752  17.577  25.803  0.00  0.00    +0.220 A 
ATOM      9  N   UNL     1      54.159  16.881  24.674  0.00  0.00    -0.283 N 
ATOM     36  H   UNL     1      55.129  16.943  24.366  0.00  0.00    +0.155 HD
ATOM     37  N   UNL     1      54.676  18.303  26.467  0.00  0.00    -0.214 NA
BRANCH   4   3
ATOM      1  C   UNL     1      57.864  20.016  29.023  0.00  0.00    +0.020 A 
ATOM      2  C   UNL     1      56.823  19.239  28.390  0.00  0.00    +0.013 A 
ATOM      3  C   UNL     1      55.475  19.776  28.249  0.00  0.00    +0.019 A 
ATOM     38  C   UNL     1      55.212  21.112  28.762  0.00  0.00    +0.120 A 
ATOM     39  N   UNL     1      56.234  21.836  29.367  0.00  0.00    -0.263 NA
ATOM     40  C   UNL     1      57.535  21.329  29.510  0.00  0.00    +0.111 A 
ENDBRANCH   4   3
ENDBRANCH  10   9
BRANCH  12  13
ATOM     13  N   UNL     1      51.991  12.470  23.900  0.00  0.00    -0.281 N 
ATOM     14  C   UNL     1      50.819  11.837  24.281  0.00  0.00    +0.248 C 
ATOM     30  O   UNL     1      49.798  12.418  24.618  0.00  0.00    -0.270 OA
ATOM     31  H   UNL     1      52.819  11.878  23.833  0.00  0.00    +0.155 HD
BRANCH  14  15
ATOM     15  C   UNL     1      50.780  10.343  24.303  0.00  0.00    +0.037 A 
ATOM     16  C   UNL     1      49.529   9.620  24.548  0.00  0.00    +0.013 A 
ATOM     17  C   UNL     1      49.522   8.179  24.581  0.00  0.00    +0.005 A 
ATOM     18  C   UNL     1      50.771   7.451  24.366  0.00  0.00    -0.033 A 
ATOM     28  C   UNL     1      51.996   8.194  24.120  0.00  0.00    +0.005 A 
ATOM     29  C   UNL     1      52.007   9.607  24.088  0.00  0.00    +0.013 A 
BRANCH  18  19
ATOM     19  C   UNL     1      50.861   5.914  24.405  0.00  0.00    +0.119 C 
BRANCH  19  20
ATOM     20  N   UNL     1      51.752   5.307  25.438  0.00  0.00    -0.302 NA
ATOM     21  C   UNL     1      52.034   3.829  25.157  0.00  0.00    +0.066 C 
ATOM     22  C   UNL     1      52.986   3.216  26.235  0.00  0.00    -0.064 C 
ATOM     23  N   UNL     1      52.364   3.394  27.621  0.00  0.00    +0.379 N 
ATOM     24  C   UNL     1      53.229   2.767  28.631  0.00  0.00    -0.096 C 
ATOM     25  H   UNL     1      51.390   2.852  27.626  0.00  0.00    -0.082 HD
ATOM     26  C   UNL     1      52.078   4.861  27.908  0.00  0.00    -0.064 C 
ATOM     27  C   UNL     1      51.155   5.468  26.815  0.00  0.00    +0.066 C 
ENDBRANCH  19  20
ENDBRANCH  18  19
ENDBRANCH  14  15
ENDBRANCH  12  13
TORSDOF 6
ENDMDL
MODEL 3
REMARK VINA RESULT:      -8.5     28.455     30.883
REMARK  Name = C:\Users\Docking\Desktop\test protocol\1iep_ligandH.pdb
REMARK  8 active torsions:
REMARK  status: ('A' for Active; 'I' for Inactive)
REMARK    1  A    between atoms: _5  and  _11
REMARK    2  A    between atoms: _19  and  _21
REMARK    3  A    between atoms: _22  and  _66
REMARK    4  A    between atoms: _27  and  _30
REMARK    5  A    between atoms: _32  and  _33
REMARK    6  A    between atoms: _38  and  _43
REMARK    7  A    between atoms: _43  and  _46
REMARK    8  A    between atoms: _53  and  _55
REMARK                            x       y       z     vdW  Elec       q    Type
REMARK                         _______ _______ _______ _____ _____    ______ ____
ROOT
ATOM     10  C   UNL     1      32.700   4.370  18.824  0.00  0.00    +0.038 A 
ATOM     11  C   UNL     1      33.789   4.795  18.021  0.00  0.00    +0.047 A 
ATOM     12  C   UNL     1      33.576   5.315  16.679  0.00  0.00    +0.035 A 
ATOM     32  C   UNL     1      32.240   5.391  16.188  0.00  0.00    +0.024 A 
ATOM     33  C   UNL     1      31.122   4.962  16.991  0.00  0.00    +0.007 A 
ATOM     34  C   UNL     1      31.326   4.446  18.314  0.00  0.00    -0.029 A 
ATOM     35  C   UNL     1      30.090   3.995  19.128  0.00  0.00    +0.045 C 
ENDROOT
BRANCH  10   9
ATOM      4  C   UNL     1      33.849   0.820  21.844  0.00  0.00    +0.077 A 
ATOM      5  C   UNL     1      33.905  -0.144  20.783  0.00  0.00    +0.048 A 
ATOM      6  C   UNL     1      33.625   0.313  19.475  0.00  0.00    +0.116 A 
ATOM      7  N   UNL     1      33.313   1.638  19.257  0.00  0.00    -0.223 NA
ATOM      8  C   UNL     1      33.266   2.541  20.303  0.00  0.00    +0.220 A 
ATOM      9  N   UNL     1      32.962   3.879  20.105  0.00  0.00    -0.283 N 
ATOM     36  H   UNL     1      32.930   4.512  20.904  0.00  0.00    +0.155 HD
ATOM     37  N   UNL     1      33.528   2.129  21.561  0.00  0.00    -0.214 NA
BRANCH   4   3
ATOM      1  C   UNL     1      34.953   1.078  25.588  0.00  0.00    +0.020 A 
ATOM      2  C   UNL     1      34.709   1.446  24.212  0.00  0.00    +0.013 A 
ATOM      3  C   UNL     1      34.123   0.492  23.278  0.00  0.00    +0.019 A 
ATOM     38  C   UNL     1      33.792  -0.836  23.773  0.00  0.00    +0.120 A 
ATOM     39  N   UNL     1      34.040  -1.162  25.103  0.00  0.00    -0.263 NA
ATOM     40  C   UNL     1      34.605  -0.253  26.010  0.00  0.00    +0.111 A 
ENDBRANCH   4   3
ENDBRANCH  10   9
BRANCH  12  13
ATOM     13  N   UNL     1      34.643   5.754  15.814  0.00  0.00    -0.281 N 
ATOM     14  C   UNL     1      35.852   5.125  15.568  0.00  0.00    +0.248 C 
ATOM     30  O   UNL     1      36.292   4.191  16.222  0.00  0.00    -0.270 OA
ATOM     31  H   UNL     1      34.487   6.635  15.324  0.00  0.00    +0.155 HD
BRANCH  14  15
ATOM     15  C   UNL     1      36.703   5.614  14.440  0.00  0.00    +0.037 A 
ATOM     16  C   UNL     1      37.960   4.946  14.091  0.00  0.00    +0.013 A 
ATOM     17  C   UNL     1      38.770   5.448  13.010  0.00  0.00    +0.005 A 
ATOM     18  C   UNL     1      38.325   6.625  12.269  0.00  0.00    -0.033 A 
ATOM     28  C   UNL     1      37.072   7.265  12.632  0.00  0.00    +0.005 A 
ATOM     29  C   UNL     1      36.276   6.777  13.692  0.00  0.00    +0.013 A 
BRANCH  18  19
ATOM     19  C   UNL     1      39.136   7.242  11.114  0.00  0.00    +0.119 C 
BRANCH  19  20
ATOM     20  N   UNL     1      40.619   7.310  11.280  0.00  0.00    -0.302 NA
ATOM     21  C   UNL     1      41.116   8.751  11.421  0.00  0.00    +0.066 C 
ATOM     22  C   UNL     1      42.667   8.802  11.617  0.00  0.00    -0.064 C 
ATOM     23  N   UNL     1      43.349   8.107  10.437  0.00  0.00    +0.379 N 
ATOM     24  C   UNL     1      44.808   8.204  10.589  0.00  0.00    -0.096 C 
ATOM     25  H   UNL     1      43.068   8.659   9.511  0.00  0.00    -0.082 HD
ATOM     26  C   UNL     1      42.859   6.674  10.288  0.00  0.00    -0.064 C 
ATOM     27  C   UNL     1      41.314   6.633  10.124  0.00  0.00    +0.066 C 
ENDBRANCH  19  20
ENDBRANCH  18  19
ENDBRANCH  14  15
ENDBRANCH  12  13
TORSDOF 6
ENDMDL
MODEL 4
REMARK VINA RESULT:      -8.4     28.302     31.821
REMARK  Name = C:\Users\Docking\Desktop\test protocol\1iep_ligandH.pdb
REMARK  8 active torsions:
REMARK  status: ('A' for Active; 'I' for Inactive)
REMARK    1  A    between atoms: _5  and  _11
REMARK    2  A    between atoms: _19  and  _21
REMARK    3  A    between atoms: _22  and  _66
REMARK    4  A    between atoms: _27  and  _30
REMARK    5  A    between atoms: _32  and  _33
REMARK    6  A    between atoms: _38  and  _43
REMARK    7  A    between atoms: _43  and  _46
REMARK    8  A    between atoms: _53  and  _55
REMARK                            x       y       z     vdW  Elec       q    Type
REMARK                         _______ _______ _______ _____ _____    ______ ____
ROOT
ATOM     10  C   UNL     1      48.924  26.246  37.088  0.00  0.00    +0.038 A 
ATOM     11  C   UNL     1      48.004  27.042  37.817  0.00  0.00    +0.047 A 
ATOM     12  C   UNL     1      48.324  28.412  38.189  0.00  0.00    +0.035 A 
ATOM     32  C   UNL     1      49.590  28.939  37.800  0.00  0.00    +0.024 A 
ATOM     33  C   UNL     1      50.538  28.143  37.060  0.00  0.00    +0.007 A 
ATOM     34  C   UNL     1      50.229  26.791  36.693  0.00  0.00    -0.029 A 
ATOM     35  C   UNL     1      51.285  25.981  35.906  0.00  0.00    +0.045 C 
ENDROOT
BRANCH  10   9
ATOM      4  C   UNL     1      48.538  21.574  38.118  0.00  0.00    +0.077 A 
ATOM      5  C   UNL     1      49.126  21.750  39.415  0.00  0.00    +0.048 A 
ATOM      6  C   UNL     1      49.521  23.058  39.775  0.00  0.00    +0.116 A 
ATOM      7  N   UNL     1      49.336  24.104  38.897  0.00  0.00    -0.223 NA
ATOM      8  C   UNL     1      48.767  23.899  37.654  0.00  0.00    +0.220 A 
ATOM      9  N   UNL     1      48.565  24.937  36.758  0.00  0.00    -0.283 N 
ATOM     36  H   UNL     1      48.149  24.743  35.847  0.00  0.00    +0.155 HD
ATOM     37  N   UNL     1      48.383  22.659  37.285  0.00  0.00    -0.214 NA
BRANCH   4   3
ATOM      1  C   UNL     1      46.399  18.364  37.466  0.00  0.00    +0.020 A 
ATOM      2  C   UNL     1      46.808  19.642  38.003  0.00  0.00    +0.013 A 
ATOM      3  C   UNL     1      48.066  20.253  37.594  0.00  0.00    +0.019 A 
ATOM     38  C   UNL     1      48.894  19.541  36.632  0.00  0.00    +0.120 A 
ATOM     39  N   UNL     1      48.474  18.311  36.133  0.00  0.00    -0.263 NA
ATOM     40  C   UNL     1      47.266  17.712  36.520  0.00  0.00    +0.111 A 
ENDBRANCH   4   3
ENDBRANCH  10   9
BRANCH  12  13
ATOM     13  N   UNL     1      47.433  29.265  38.934  0.00  0.00    -0.281 N 
ATOM     14  C   UNL     1      47.196  29.264  40.299  0.00  0.00    +0.248 C 
ATOM     30  O   UNL     1      47.557  28.380  41.062  0.00  0.00    -0.270 OA
ATOM     31  H   UNL     1      46.915  29.955  38.390  0.00  0.00    +0.155 HD
BRANCH  14  15
ATOM     15  C   UNL     1      46.436  30.401  40.901  0.00  0.00    +0.037 A 
ATOM     16  C   UNL     1      46.334  31.693  40.219  0.00  0.00    +0.013 A 
ATOM     17  C   UNL     1      45.609  32.779  40.830  0.00  0.00    +0.005 A 
ATOM     18  C   UNL     1      44.977  32.576  42.131  0.00  0.00    -0.033 A 
ATOM     28  C   UNL     1      45.089  31.282  42.784  0.00  0.00    +0.005 A 
ATOM     29  C   UNL     1      45.800  30.216  42.189  0.00  0.00    +0.013 A 
BRANCH  18  19
ATOM     19  C   UNL     1      44.201  33.684  42.867  0.00  0.00    +0.119 C 
BRANCH  19  20
ATOM     20  N   UNL     1      44.993  34.831  43.404  0.00  0.00    -0.302 NA
ATOM     21  C   UNL     1      45.511  35.744  42.290  0.00  0.00    +0.066 C 
ATOM     22  C   UNL     1      46.318  36.951  42.871  0.00  0.00    -0.064 C 
ATOM     23  N   UNL     1      47.474  36.425  43.723  0.00  0.00    +0.379 N 
ATOM     24  C   UNL     1      48.269  37.556  44.223  0.00  0.00    -0.096 C 
ATOM     25  H   UNL     1      48.132  35.816  43.060  0.00  0.00    -0.082 HD
ATOM     26  C   UNL     1      46.967  35.514  44.832  0.00  0.00    -0.064 C 
ATOM     27  C   UNL     1      46.143  34.334  44.245  0.00  0.00    +0.066 C 
ENDBRANCH  19  20
ENDBRANCH  18  19
ENDBRANCH  14  15
ENDBRANCH  12  13
TORSDOF 6
ENDMDL
MODEL 5
REMARK VINA RESULT:      -8.4     30.142     33.173
REMARK  Name = C:\Users\Docking\Desktop\test protocol\1iep_ligandH.pdb
REMARK  8 active torsions:
REMARK  status: ('A' for Active; 'I' for Inactive)
REMARK    1  A    between atoms: _5  and  _11
REMARK    2  A    between atoms: _19  and  _21
REMARK    3  A    between atoms: _22  and  _66
REMARK    4  A    between atoms: _27  and  _30
REMARK    5  A    between atoms: _32  and  _33
REMARK    6  A    between atoms: _38  and  _43
REMARK    7  A    between atoms: _43  and  _46
REMARK    8  A    between atoms: _53  and  _55
REMARK                            x       y       z     vdW  Elec       q    Type
REMARK                         _______ _______ _______ _____ _____    ______ ____
ROOT
ATOM     10  C   UNL     1      53.451  25.089  33.966  0.00  0.00    +0.038 A 
ATOM     11  C   UNL     1      54.171  24.642  32.829  0.00  0.00    +0.047 A 
ATOM     12  C   UNL     1      55.381  25.319  32.390  0.00  0.00    +0.035 A 
ATOM     32  C   UNL     1      55.830  26.449  33.134  0.00  0.00    +0.024 A 
ATOM     33  C   UNL     1      55.110  26.919  34.291  0.00  0.00    +0.007 A 
ATOM     34  C   UNL     1      53.914  26.255  34.728  0.00  0.00    -0.029 A 
ATOM     35  C   UNL     1      53.179  26.806  35.972  0.00  0.00    +0.045 C 
ENDROOT
BRANCH  10   9
ATOM      4  C   UNL     1      51.047  22.138  36.890  0.00  0.00    +0.077 A 
ATOM      5  C   UNL     1      52.198  21.929  37.722  0.00  0.00    +0.048 A 
ATOM      6  C   UNL     1      53.390  22.594  37.358  0.00  0.00    +0.116 A 
ATOM      7  N   UNL     1      53.419  23.405  36.244  0.00  0.00    -0.223 NA
ATOM      8  C   UNL     1      52.292  23.584  35.463  0.00  0.00    +0.220 A 
ATOM      9  N   UNL     1      52.296  24.401  34.343  0.00  0.00    -0.283 N 
ATOM     36  H   UNL     1      51.445  24.501  33.789  0.00  0.00    +0.155 HD
ATOM     37  N   UNL     1      51.141  22.959  35.788  0.00  0.00    -0.214 NA
BRANCH   4   3
ATOM      1  C   UNL     1      47.887  20.682  38.678  0.00  0.00    +0.020 A 
ATOM      2  C   UNL     1      49.182  21.295  38.486  0.00  0.00    +0.013 A 
ATOM      3  C   UNL     1      49.713  21.508  37.146  0.00  0.00    +0.019 A 
ATOM     38  C   UNL     1      48.904  21.087  36.012  0.00  0.00    +0.120 A 
ATOM     39  N   UNL     1      47.662  20.498  36.228  0.00  0.00    -0.263 NA
ATOM     40  C   UNL     1      47.140  20.286  37.513  0.00  0.00    +0.111 A 
ENDBRANCH   4   3
ENDBRANCH  10   9
BRANCH  12  13
ATOM     13  N   UNL     1      56.149  24.915  31.239  0.00  0.00    -0.281 N 
ATOM     14  C   UNL     1      56.937  23.785  31.095  0.00  0.00    +0.248 C 
ATOM     30  O   UNL     1      57.272  23.055  32.015  0.00  0.00    -0.270 OA
ATOM     31  H   UNL     1      56.107  25.538  30.432  0.00  0.00    +0.155 HD
BRANCH  14  15
ATOM     15  C   UNL     1      57.437  23.422  29.734  0.00  0.00    +0.037 A 
ATOM     16  C   UNL     1      58.204  22.194  29.509  0.00  0.00    +0.013 A 
ATOM     17  C   UNL     1      58.689  21.876  28.189  0.00  0.00    +0.005 A 
ATOM     18  C   UNL     1      58.406  22.787  27.083  0.00  0.00    -0.033 A 
ATOM     28  C   UNL     1      57.638  23.996  27.334  0.00  0.00    +0.005 A 
ATOM     29  C   UNL     1      57.162  24.312  28.626  0.00  0.00    +0.013 A 
BRANCH  18  19
ATOM     19  C   UNL     1      58.902  22.539  25.646  0.00  0.00    +0.119 C 
BRANCH  19  20
ATOM     20  N   UNL     1      58.640  23.608  24.638  0.00  0.00    -0.302 NA
ATOM     21  C   UNL     1      57.306  23.401  23.914  0.00  0.00    +0.066 C 
ATOM     22  C   UNL     1      57.038  24.541  22.878  0.00  0.00    -0.064 C 
ATOM     23  N   UNL     1      58.193  24.600  21.878  0.00  0.00    +0.379 N 
ATOM     24  C   UNL     1      57.916  25.633  20.869  0.00  0.00    -0.096 C 
ATOM     25  H   UNL     1      58.238  23.617  21.354  0.00  0.00    -0.082 HD
ATOM     26  C   UNL     1      59.523  24.804  22.590  0.00  0.00    -0.064 C 
ATOM     27  C   UNL     1      59.767  23.682  23.637  0.00  0.00    +0.066 C 
ENDBRANCH  19  20
ENDBRANCH  18  19
ENDBRANCH  14  15
ENDBRANCH  12  13
TORSDOF 6
ENDMDL
