MODEL 1
REMARK VINA RESULT:      -8.2      0.000      0.000
REMARK  Name = C:\Users\Docking\Desktop\test protocol\1iep_ligandH.pdb
REMARK  8 active torsions:
REMARK  status: ('A' for Active; 'I' for Inactive)
REMARK    1  A    between atoms: _5  and  _11
REMARK    2  A    between atoms: _19  and  _21
REMARK    3  A    between atoms: _22  and  _66
REMARK    4  A    between atoms: _27  and  _30
REMARK    5  A    between atoms: _32  and  _33
REMARK    6  A    between atoms: _38  and  _43
REMARK    7  A    between atoms: _43  and  _46
REMARK    8  A    between atoms: _53  and  _55
REMARK                            x       y       z     vdW  Elec       q    Type
REMARK                         _______ _______ _______ _____ _____    ______ ____
ROOT
ATOM     10  C   UNL     1       2.838 -11.332  24.305  0.00  0.00    +0.038 A 
ATOM     11  C   UNL     1       3.230 -10.834  23.036  0.00  0.00    +0.047 A 
ATOM     12  C   UNL     1       4.610 -10.925  22.585  0.00  0.00    +0.035 A 
ATOM     32  C   UNL     1       5.565 -11.532  23.452  0.00  0.00    +0.024 A 
ATOM     33  C   UNL     1       5.184 -12.043  24.745  0.00  0.00    +0.007 A 
ATOM     34  C   UNL     1       3.825 -11.954  25.196  0.00  0.00    -0.029 A 
ATOM     35  C   UNL     1       3.475 -12.512  26.595  0.00  0.00    +0.045 C 
ENDROOT
BRANCH  10   9
ATOM      4  C   UNL     1      -0.839  -8.871  26.166  0.00  0.00    +0.077 A 
ATOM      5  C   UNL     1      -0.017  -7.724  26.423  0.00  0.00    +0.048 A 
ATOM      6  C   UNL     1       1.348  -7.810  26.069  0.00  0.00    +0.116 A 
ATOM      7  N   UNL     1       1.843  -8.963  25.499  0.00  0.00    -0.223 NA
ATOM      8  C   UNL     1       1.024 -10.052  25.266  0.00  0.00    +0.220 A 
ATOM      9  N   UNL     1       1.499 -11.219  24.687  0.00  0.00    -0.283 N 
ATOM     36  H   UNL     1       0.865 -12.003  24.538  0.00  0.00    +0.155 HD
ATOM     37  N   UNL     1      -0.283  -9.996  25.597  0.00  0.00    -0.214 NA
BRANCH   4   3
ATOM      1  C   UNL     1      -4.489  -7.874  27.156  0.00  0.00    +0.020 A 
ATOM      2  C   UNL     1      -3.079  -7.761  26.861  0.00  0.00    +0.013 A 
ATOM      3  C   UNL     1      -2.301  -8.933  26.482  0.00  0.00    +0.019 A 
ATOM     38  C   UNL     1      -2.985 -10.215  26.409  0.00  0.00    +0.120 A 
ATOM     39  N   UNL     1      -4.343 -10.294  26.699  0.00  0.00    -0.263 NA
ATOM     40  C   UNL     1      -5.102  -9.173  27.067  0.00  0.00    +0.111 A 
ENDBRANCH   4   3
ENDBRANCH  10   9
BRANCH  12  13
ATOM     13  N   UNL     1       5.068 -10.430  21.311  0.00  0.00    -0.281 N 
ATOM     14  C   UNL     1       5.233 -11.137  20.132  0.00  0.00    +0.248 C 
ATOM     30  O   UNL     1       5.215 -12.357  20.049  0.00  0.00    -0.270 OA
ATOM     31  H   UNL     1       5.298  -9.437  21.274  0.00  0.00    +0.155 HD
BRANCH  14  15
ATOM     15  C   UNL     1       5.466 -10.382  18.863  0.00  0.00    +0.037 A 
ATOM     16  C   UNL     1       6.754 -10.447  18.166  0.00  0.00    +0.013 A 
ATOM     17  C   UNL     1       6.958  -9.695  16.953  0.00  0.00    +0.005 A 
ATOM     18  C   UNL     1       5.870  -8.873  16.429  0.00  0.00    -0.033 A 
ATOM     28  C   UNL     1       4.602  -8.831  17.137  0.00  0.00    +0.005 A 
ATOM     29  C   UNL     1       4.398  -9.566  18.327  0.00  0.00    +0.013 A 
BRANCH  18  19
ATOM     19  C   UNL     1       6.006  -8.021  15.152  0.00  0.00    +0.119 C 
BRANCH  19  20
ATOM     20  N   UNL     1       7.389  -7.698  14.690  0.00  0.00    -0.302 NA
ATOM     21  C   UNL     1       8.020  -6.570  15.511  0.00  0.00    +0.066 C 
ATOM     22  C   UNL     1       9.474  -6.260  15.028  0.00  0.00    -0.064 C 
ATOM     23  N   UNL     1       9.450  -5.900  13.542  0.00  0.00    +0.379 N 
ATOM     24  C   UNL     1      10.808  -5.552  13.099  0.00  0.00    -0.096 C 
ATOM     25  H   UNL     1       8.812  -4.993  13.424  0.00  0.00    -0.082 HD
ATOM     26  C   UNL     1       8.821  -7.016  12.719  0.00  0.00    -0.064 C 
ATOM     27  C   UNL     1       7.387  -7.336  13.225  0.00  0.00    +0.066 C 
ENDBRANCH  19  20
ENDBRANCH  18  19
ENDBRANCH  14  15
ENDBRANCH  12  13
TORSDOF 6
ENDMDL
MODEL 2
REMARK VINA RESULT:      -8.0      1.827      2.490
REMARK  Name = C:\Users\Docking\Desktop\test protocol\1iep_ligandH.pdb
REMARK  8 active torsions:
REMARK  status: ('A' for Active; 'I' for Inactive)
REMARK    1  A    between atoms: _5  and  _11
REMARK    2  A    between atoms: _19  and  _21
REMARK    3  A    between atoms: _22  and  _66
REMARK    4  A    between atoms: _27  and  _30
REMARK    5  A    between atoms: _32  and  _33
REMARK    6  A    between atoms: _38  and  _43
REMARK    7  A    between atoms: _43  and  _46
REMARK    8  A    between atoms: _53  and  _55
REMARK                            x       y       z     vdW  Elec       q    Type
REMARK                         _______ _______ _______ _____ _____    ______ ____
ROOT
ATOM     10  C   UNL     1       2.864 -11.657  24.492  0.00  0.00    +0.038 A 
ATOM     11  C   UNL     1       3.386 -11.042  23.326  0.00  0.00    +0.047 A 
ATOM     12  C   UNL     1       4.782 -11.205  22.949  0.00  0.00    +0.035 A 
ATOM     32  C   UNL     1       5.618 -12.003  23.783  0.00  0.00    +0.024 A 
ATOM     33  C   UNL     1       5.104 -12.635  24.973  0.00  0.00    +0.007 A 
ATOM     34  C   UNL     1       3.729 -12.476  25.350  0.00  0.00    -0.029 A 
ATOM     35  C   UNL     1       3.234 -13.171  26.640  0.00  0.00    +0.045 C 
ENDROOT
BRANCH  10   9
ATOM      4  C   UNL     1      -0.779  -8.946  26.047  0.00  0.00    +0.077 A 
ATOM      5  C   UNL     1       0.080  -7.821  26.279  0.00  0.00    +0.048 A 
ATOM      6  C   UNL     1       1.454  -7.983  25.992  0.00  0.00    +0.116 A 
ATOM      7  N   UNL     1       1.923  -9.186  25.509  0.00  0.00    -0.223 NA
ATOM      8  C   UNL     1       1.068 -10.251  25.298  0.00  0.00    +0.220 A 
ATOM      9  N   UNL     1       1.517 -11.467  24.806  0.00  0.00    -0.283 N 
ATOM     36  H   UNL     1       0.855 -12.231  24.671  0.00  0.00    +0.155 HD
ATOM     37  N   UNL     1      -0.248 -10.122  25.566  0.00  0.00    -0.214 NA
BRANCH   4   3
ATOM      1  C   UNL     1      -4.539  -9.998  26.272  0.00  0.00    +0.020 A 
ATOM      2  C   UNL     1      -3.120 -10.066  26.010  0.00  0.00    +0.013 A 
ATOM      3  C   UNL     1      -2.254  -8.929  26.298  0.00  0.00    +0.019 A 
ATOM     38  C   UNL     1      -2.861  -7.729  26.856  0.00  0.00    +0.120 A 
ATOM     39  N   UNL     1      -4.231  -7.693  27.096  0.00  0.00    -0.263 NA
ATOM     40  C   UNL     1      -5.074  -8.780  26.821  0.00  0.00    +0.111 A 
ENDBRANCH   4   3
ENDBRANCH  10   9
BRANCH  12  13
ATOM     13  N   UNL     1       5.370 -10.598  21.781  0.00  0.00    -0.281 N 
ATOM     14  C   UNL     1       5.447 -11.117  20.499  0.00  0.00    +0.248 C 
ATOM     30  O   UNL     1       5.209 -12.280  20.209  0.00  0.00    -0.270 OA
ATOM     31  H   UNL     1       5.779  -9.673  21.915  0.00  0.00    +0.155 HD
BRANCH  14  15
ATOM     15  C   UNL     1       5.862 -10.218  19.379  0.00  0.00    +0.037 A 
ATOM     16  C   UNL     1       6.819  -9.130  19.594  0.00  0.00    +0.013 A 
ATOM     17  C   UNL     1       7.189  -8.266  18.500  0.00  0.00    +0.005 A 
ATOM     18  C   UNL     1       6.601  -8.489  17.181  0.00  0.00    -0.033 A 
ATOM     28  C   UNL     1       5.658  -9.579  16.996  0.00  0.00    +0.005 A 
ATOM     29  C   UNL     1       5.292 -10.426  18.065  0.00  0.00    +0.013 A 
BRANCH  18  19
ATOM     19  C   UNL     1       6.922  -7.603  15.963  0.00  0.00    +0.119 C 
BRANCH  19  20
ATOM     20  N   UNL     1       6.235  -6.280  15.878  0.00  0.00    -0.302 NA
ATOM     21  C   UNL     1       7.101  -5.146  16.434  0.00  0.00    +0.066 C 
ATOM     22  C   UNL     1       6.375  -3.766  16.317  0.00  0.00    -0.064 C 
ATOM     23  N   UNL     1       5.035  -3.834  17.052  0.00  0.00    +0.379 N 
ATOM     24  C   UNL     1       4.376  -2.521  16.994  0.00  0.00    -0.096 C 
ATOM     25  H   UNL     1       5.248  -4.059  18.123  0.00  0.00    -0.082 HD
ATOM     26  C   UNL     1       4.169  -4.961  16.508  0.00  0.00    -0.064 C 
ATOM     27  C   UNL     1       4.911  -6.324  16.601  0.00  0.00    +0.066 C 
ENDBRANCH  19  20
ENDBRANCH  18  19
ENDBRANCH  14  15
ENDBRANCH  12  13
TORSDOF 6
ENDMDL
MODEL 3
REMARK VINA RESULT:      -7.7      2.377      4.004
REMARK  Name = C:\Users\Docking\Desktop\test protocol\1iep_ligandH.pdb
REMARK  8 active torsions:
REMARK  status: ('A' for Active; 'I' for Inactive)
REMARK    1  A    between atoms: _5  and  _11
REMARK    2  A    between atoms: _19  and  _21
REMARK    3  A    between atoms: _22  and  _66
REMARK    4  A    between atoms: _27  and  _30
REMARK    5  A    between atoms: _32  and  _33
REMARK    6  A    between atoms: _38  and  _43
REMARK    7  A    between atoms: _43  and  _46
REMARK    8  A    between atoms: _53  and  _55
REMARK                            x       y       z     vdW  Elec       q    Type
REMARK                         _______ _______ _______ _____ _____    ______ ____
ROOT
ATOM     10  C   UNL     1       0.624 -10.172  26.604  0.00  0.00    +0.038 A 
ATOM     11  C   UNL     1       1.418  -9.947  25.451  0.00  0.00    +0.047 A 
ATOM     12  C   UNL     1       2.082 -11.046  24.768  0.00  0.00    +0.035 A 
ATOM     32  C   UNL     1       1.913 -12.364  25.286  0.00  0.00    +0.024 A 
ATOM     33  C   UNL     1       1.110 -12.610  26.458  0.00  0.00    +0.007 A 
ATOM     34  C   UNL     1       0.455 -11.529  27.137  0.00  0.00    -0.029 A 
ATOM     35  C   UNL     1      -0.388 -11.852  28.392  0.00  0.00    +0.045 C 
ENDROOT
BRANCH  10   9
ATOM      4  C   UNL     1      -3.200  -7.405  27.479  0.00  0.00    +0.077 A 
ATOM      5  C   UNL     1      -4.037  -8.187  26.615  0.00  0.00    +0.048 A 
ATOM      6  C   UNL     1      -3.443  -9.288  25.958  0.00  0.00    +0.116 A 
ATOM      7  N   UNL     1      -2.111  -9.577  26.159  0.00  0.00    -0.223 NA
ATOM      8  C   UNL     1      -1.331  -8.802  26.998  0.00  0.00    +0.220 A 
ATOM      9  N   UNL     1       0.009  -9.079  27.220  0.00  0.00    -0.283 N 
ATOM     36  H   UNL     1       0.552  -8.479  27.840  0.00  0.00    +0.155 HD
ATOM     37  N   UNL     1      -1.874  -7.744  27.635  0.00  0.00    -0.214 NA
BRANCH   4   3
ATOM      1  C   UNL     1      -5.468  -4.569  28.932  0.00  0.00    +0.020 A 
ATOM      2  C   UNL     1      -5.053  -5.725  28.171  0.00  0.00    +0.013 A 
ATOM      3  C   UNL     1      -3.682  -6.213  28.245  0.00  0.00    +0.019 A 
ATOM     38  C   UNL     1      -2.747  -5.503  29.105  0.00  0.00    +0.120 A 
ATOM     39  N   UNL     1      -3.175  -4.391  29.825  0.00  0.00    -0.263 NA
ATOM     40  C   UNL     1      -4.492  -3.912  29.761  0.00  0.00    +0.111 A 
ENDBRANCH   4   3
ENDBRANCH  10   9
BRANCH  12  13
ATOM     13  N   UNL     1       2.908 -10.878  23.598  0.00  0.00    -0.281 N 
ATOM     14  C   UNL     1       4.045 -11.587  23.249  0.00  0.00    +0.248 C 
ATOM     30  O   UNL     1       4.650 -12.337  24.000  0.00  0.00    -0.270 OA
ATOM     31  H   UNL     1       2.618 -10.146  22.948  0.00  0.00    +0.155 HD
BRANCH  14  15
ATOM     15  C   UNL     1       4.598 -11.430  21.869  0.00  0.00    +0.037 A 
ATOM     16  C   UNL     1       5.318 -12.524  21.210  0.00  0.00    +0.013 A 
ATOM     17  C   UNL     1       5.856 -12.340  19.886  0.00  0.00    +0.005 A 
ATOM     18  C   UNL     1       5.676 -11.057  19.211  0.00  0.00    -0.033 A 
ATOM     28  C   UNL     1       4.954  -9.991  19.886  0.00  0.00    +0.005 A 
ATOM     29  C   UNL     1       4.425 -10.167  21.184  0.00  0.00    +0.013 A 
BRANCH  18  19
ATOM     19  C   UNL     1       6.235 -10.765  17.806  0.00  0.00    +0.119 C 
BRANCH  19  20
ATOM     20  N   UNL     1       6.180  -9.352  17.327  0.00  0.00    -0.302 NA
ATOM     21  C   UNL     1       5.271  -9.194  16.105  0.00  0.00    +0.066 C 
ATOM     22  C   UNL     1       5.207  -7.705  15.632  0.00  0.00    -0.064 C 
ATOM     23  N   UNL     1       6.621  -7.210  15.323  0.00  0.00    +0.379 N 
ATOM     24  C   UNL     1       6.559  -5.829  14.823  0.00  0.00    -0.096 C 
ATOM     25  H   UNL     1       7.032  -7.847  14.507  0.00  0.00    -0.082 HD
ATOM     26  C   UNL     1       7.532  -7.365  16.533  0.00  0.00    -0.064 C 
ATOM     27  C   UNL     1       7.565  -8.843  17.013  0.00  0.00    +0.066 C 
ENDBRANCH  19  20
ENDBRANCH  18  19
ENDBRANCH  14  15
ENDBRANCH  12  13
TORSDOF 6
ENDMDL
MODEL 4
REMARK VINA RESULT:      -7.6      3.406     12.822
REMARK  Name = C:\Users\Docking\Desktop\test protocol\1iep_ligandH.pdb
REMARK  8 active torsions:
REMARK  status: ('A' for Active; 'I' for Inactive)
REMARK    1  A    between atoms: _5  and  _11
REMARK    2  A    between atoms: _19  and  _21
REMARK    3  A    between atoms: _22  and  _66
REMARK    4  A    between atoms: _27  and  _30
REMARK    5  A    between atoms: _32  and  _33
REMARK    6  A    between atoms: _38  and  _43
REMARK    7  A    between atoms: _43  and  _46
REMARK    8  A    between atoms: _53  and  _55
REMARK                            x       y       z     vdW  Elec       q    Type
REMARK                         _______ _______ _______ _____ _____    ______ ____
ROOT
ATOM     10  C   UNL     1       4.314 -10.560  23.563  0.00  0.00    +0.038 A 
ATOM     11  C   UNL     1       2.941 -10.766  23.853  0.00  0.00    +0.047 A 
ATOM     12  C   UNL     1       2.520 -11.406  25.090  0.00  0.00    +0.035 A 
ATOM     32  C   UNL     1       3.526 -11.821  26.011  0.00  0.00    +0.024 A 
ATOM     33  C   UNL     1       4.926 -11.621  25.732  0.00  0.00    +0.007 A 
ATOM     34  C   UNL     1       5.347 -10.992  24.512  0.00  0.00    -0.029 A 
ATOM     35  C   UNL     1       6.862 -10.809  24.262  0.00  0.00    +0.045 C 
ENDROOT
BRANCH  10   9
ATOM      4  C   UNL     1       5.722 -10.710  18.977  0.00  0.00    +0.077 A 
ATOM      5  C   UNL     1       5.799 -12.143  18.986  0.00  0.00    +0.048 A 
ATOM      6  C   UNL     1       5.475 -12.803  20.193  0.00  0.00    +0.116 A 
ATOM      7  N   UNL     1       5.103 -12.074  21.301  0.00  0.00    -0.223 NA
ATOM      8  C   UNL     1       5.040 -10.693  21.259  0.00  0.00    +0.220 A 
ATOM      9  N   UNL     1       4.661  -9.941  22.360  0.00  0.00    -0.283 N 
ATOM     36  H   UNL     1       4.634  -8.924  22.291  0.00  0.00    +0.155 HD
ATOM     37  N   UNL     1       5.346 -10.040  20.119  0.00  0.00    -0.214 NA
BRANCH   4   3
ATOM      1  C   UNL     1       5.386  -8.724  15.624  0.00  0.00    +0.020 A 
ATOM      2  C   UNL     1       5.036  -9.539  16.764  0.00  0.00    +0.013 A 
ATOM      3  C   UNL     1       6.031  -9.870  17.777  0.00  0.00    +0.019 A 
ATOM     38  C   UNL     1       7.381  -9.356  17.605  0.00  0.00    +0.120 A 
ATOM     39  N   UNL     1       7.689  -8.574  16.496  0.00  0.00    -0.263 NA
ATOM     40  C   UNL     1       6.741  -8.250  15.514  0.00  0.00    +0.111 A 
ENDBRANCH   4   3
ENDBRANCH  10   9
BRANCH  12  13
ATOM     13  N   UNL     1       1.142 -11.649  25.435  0.00  0.00    -0.281 N 
ATOM     14  C   UNL     1       0.123 -10.721  25.575  0.00  0.00    +0.248 C 
ATOM     30  O   UNL     1       0.292  -9.512  25.634  0.00  0.00    -0.270 OA
ATOM     31  H   UNL     1       0.886 -12.623  25.595  0.00  0.00    +0.155 HD
BRANCH  14  15
ATOM     15  C   UNL     1      -1.287 -11.207  25.679  0.00  0.00    +0.037 A 
ATOM     16  C   UNL     1      -2.385 -10.500  25.015  0.00  0.00    +0.013 A 
ATOM     17  C   UNL     1      -3.738 -10.980  25.146  0.00  0.00    +0.005 A 
ATOM     18  C   UNL     1      -4.000 -12.176  25.944  0.00  0.00    -0.033 A 
ATOM     28  C   UNL     1      -2.891 -12.860  26.587  0.00  0.00    +0.005 A 
ATOM     29  C   UNL     1      -1.564 -12.392  26.462  0.00  0.00    +0.013 A 
BRANCH  18  19
ATOM     19  C   UNL     1      -5.414 -12.747  26.155  0.00  0.00    +0.119 C 
BRANCH  19  20
ATOM     20  N   UNL     1      -6.018 -13.514  25.024  0.00  0.00    -0.302 NA
ATOM     21  C   UNL     1      -7.354 -12.916  24.575  0.00  0.00    +0.066 C 
ATOM     22  C   UNL     1      -7.961 -13.717  23.377  0.00  0.00    -0.064 C 
ATOM     23  N   UNL     1      -8.131 -15.183  23.780  0.00  0.00    +0.379 N 
ATOM     24  C   UNL     1      -8.755 -15.926  22.676  0.00  0.00    -0.096 C 
ATOM     25  H   UNL     1      -8.831 -15.215  24.648  0.00  0.00    -0.082 HD
ATOM     26  C   UNL     1      -6.808 -15.783  24.231  0.00  0.00    -0.064 C 
ATOM     27  C   UNL     1      -6.199 -14.963  25.403  0.00  0.00    +0.066 C 
ENDBRANCH  19  20
ENDBRANCH  18  19
ENDBRANCH  14  15
ENDBRANCH  12  13
TORSDOF 6
ENDMDL
MODEL 5
REMARK VINA RESULT:      -7.6      2.318      3.227
REMARK  Name = C:\Users\Docking\Desktop\test protocol\1iep_ligandH.pdb
REMARK  8 active torsions:
REMARK  status: ('A' for Active; 'I' for Inactive)
REMARK    1  A    between atoms: _5  and  _11
REMARK    2  A    between atoms: _19  and  _21
REMARK    3  A    between atoms: _22  and  _66
REMARK    4  A    between atoms: _27  and  _30
REMARK    5  A    between atoms: _32  and  _33
REMARK    6  A    between atoms: _38  and  _43
REMARK    7  A    between atoms: _43  and  _46
REMARK    8  A    between atoms: _53  and  _55
REMARK                            x       y       z     vdW  Elec       q    Type
REMARK                         _______ _______ _______ _____ _____    ______ ____
ROOT
ATOM     10  C   UNL     1       1.351 -11.202  25.713  0.00  0.00    +0.038 A 
ATOM     11  C   UNL     1       1.978 -10.898  24.478  0.00  0.00    +0.047 A 
ATOM     12  C   UNL     1       3.361 -10.453  24.425  0.00  0.00    +0.035 A 
ATOM     32  C   UNL     1       4.079 -10.331  25.650  0.00  0.00    +0.024 A 
ATOM     33  C   UNL     1       3.457 -10.634  26.915  0.00  0.00    +0.007 A 
ATOM     34  C   UNL     1       2.092 -11.071  26.974  0.00  0.00    -0.029 A 
ATOM     35  C   UNL     1       1.475 -11.376  28.359  0.00  0.00    +0.045 C 
ENDROOT
BRANCH  10   9
ATOM      4  C   UNL     1      -3.359 -10.364  26.097  0.00  0.00    +0.077 A 
ATOM      5  C   UNL     1      -3.150  -8.970  26.362  0.00  0.00    +0.048 A 
ATOM      6  C   UNL     1      -1.814  -8.510  26.398  0.00  0.00    +0.116 A 
ATOM      7  N   UNL     1      -0.774  -9.387  26.184  0.00  0.00    -0.223 NA
ATOM      8  C   UNL     1      -1.011 -10.726  25.932  0.00  0.00    +0.220 A 
ATOM      9  N   UNL     1       0.020 -11.625  25.706  0.00  0.00    -0.283 N 
ATOM     36  H   UNL     1      -0.196 -12.606  25.531  0.00  0.00    +0.155 HD
ATOM     37  N   UNL     1      -2.277 -11.191  25.894  0.00  0.00    -0.214 NA
BRANCH   4   3
ATOM      1  C   UNL     1      -7.184 -11.063  26.525  0.00  0.00    +0.020 A 
ATOM      2  C   UNL     1      -5.901 -10.407  26.625  0.00  0.00    +0.013 A 
ATOM      3  C   UNL     1      -4.713 -11.000  26.024  0.00  0.00    +0.019 A 
ATOM     38  C   UNL     1      -4.859 -12.267  25.323  0.00  0.00    +0.120 A 
ATOM     39  N   UNL     1      -6.108 -12.876  25.244  0.00  0.00    -0.263 NA
ATOM     40  C   UNL     1      -7.257 -12.315  25.820  0.00  0.00    +0.111 A 
ENDBRANCH   4   3
ENDBRANCH  10   9
BRANCH  12  13
ATOM     13  N   UNL     1       4.048 -10.123  23.200  0.00  0.00    -0.281 N 
ATOM     14  C   UNL     1       4.873 -10.936  22.441  0.00  0.00    +0.248 C 
ATOM     30  O   UNL     1       5.318 -12.011  22.815  0.00  0.00    -0.270 OA
ATOM     31  H   UNL     1       3.909  -9.175  22.851  0.00  0.00    +0.155 HD
BRANCH  14  15
ATOM     15  C   UNL     1       5.272 -10.484  21.073  0.00  0.00    +0.037 A 
ATOM     16  C   UNL     1       4.272 -10.052  20.094  0.00  0.00    +0.013 A 
ATOM     17  C   UNL     1       4.683  -9.637  18.776  0.00  0.00    +0.005 A 
ATOM     18  C   UNL     1       6.102  -9.650  18.431  0.00  0.00    -0.033 A 
ATOM     28  C   UNL     1       7.074 -10.078  19.424  0.00  0.00    +0.005 A 
ATOM     29  C   UNL     1       6.675 -10.487  20.716  0.00  0.00    +0.013 A 
BRANCH  18  19
ATOM     19  C   UNL     1       6.629  -9.244  17.042  0.00  0.00    +0.119 C 
BRANCH  19  20
ATOM     20  N   UNL     1       6.621  -7.788  16.706  0.00  0.00    -0.302 NA
ATOM     21  C   UNL     1       6.730  -6.910  17.956  0.00  0.00    +0.066 C 
ATOM     22  C   UNL     1       6.742  -5.391  17.585  0.00  0.00    -0.064 C 
ATOM     23  N   UNL     1       5.478  -5.052  16.793  0.00  0.00    +0.379 N 
ATOM     24  C   UNL     1       5.458  -3.613  16.493  0.00  0.00    -0.096 C 
ATOM     25  H   UNL     1       4.602  -5.274  17.446  0.00  0.00    -0.082 HD
ATOM     26  C   UNL     1       5.360  -5.923  15.551  0.00  0.00    -0.064 C 
ATOM     27  C   UNL     1       5.378  -7.431  15.928  0.00  0.00    +0.066 C 
ENDBRANCH  19  20
ENDBRANCH  18  19
ENDBRANCH  14  15
ENDBRANCH  12  13
TORSDOF 6
ENDMDL
