MODEL 1
REMARK VINA RESULT:      -7.4      0.000      0.000
REMARK  Name = C:\Users\Docking\Desktop\test protocol\1iep_ligandH.pdb
REMARK  8 active torsions:
REMARK  status: ('A' for Active; 'I' for Inactive)
REMARK    1  A    between atoms: _5  and  _11
REMARK    2  A    between atoms: _19  and  _21
REMARK    3  A    between atoms: _22  and  _66
REMARK    4  A    between atoms: _27  and  _30
REMARK    5  A    between atoms: _32  and  _33
REMARK    6  A    between atoms: _38  and  _43
REMARK    7  A    between atoms: _43  and  _46
REMARK    8  A    between atoms: _53  and  _55
REMARK                            x       y       z     vdW  Elec       q    Type
REMARK                         _______ _______ _______ _____ _____    ______ ____
ROOT
ATOM     10  C   UNL     1      25.037 -15.753  -0.258  0.00  0.00    +0.038 A 
ATOM     11  C   UNL     1      23.792 -15.918  -0.917  0.00  0.00    +0.047 A 
ATOM     12  C   UNL     1      23.132 -17.213  -0.967  0.00  0.00    +0.035 A 
ATOM     32  C   UNL     1      23.767 -18.320  -0.332  0.00  0.00    +0.024 A 
ATOM     33  C   UNL     1      25.033 -18.171   0.342  0.00  0.00    +0.007 A 
ATOM     34  C   UNL     1      25.690 -16.896   0.392  0.00  0.00    -0.029 A 
ATOM     35  C   UNL     1      27.050 -16.796   1.123  0.00  0.00    +0.045 C 
ENDROOT
BRANCH  10   9
ATOM      4  C   UNL     1      27.366 -12.140  -2.392  0.00  0.00    +0.077 A 
ATOM      5  C   UNL     1      27.439 -12.845  -3.639  0.00  0.00    +0.048 A 
ATOM      6  C   UNL     1      26.871 -14.138  -3.687  0.00  0.00    +0.116 A 
ATOM      7  N   UNL     1      26.277 -14.676  -2.566  0.00  0.00    -0.223 NA
ATOM      8  C   UNL     1      26.226 -13.969  -1.378  0.00  0.00    +0.220 A 
ATOM      9  N   UNL     1      25.626 -14.487  -0.241  0.00  0.00    -0.283 N 
ATOM     36  H   UNL     1      25.615 -13.938   0.618  0.00  0.00    +0.155 HD
ATOM     37  N   UNL     1      26.762 -12.733  -1.306  0.00  0.00    -0.214 NA
BRANCH   4   3
ATOM      1  C   UNL     1      28.785  -8.900  -0.721  0.00  0.00    +0.020 A 
ATOM      2  C   UNL     1      28.255 -10.236  -0.867  0.00  0.00    +0.013 A 
ATOM      3  C   UNL     1      27.918 -10.763  -2.183  0.00  0.00    +0.019 A 
ATOM     38  C   UNL     1      28.131  -9.907  -3.340  0.00  0.00    +0.120 A 
ATOM     39  N   UNL     1      28.642  -8.624  -3.168  0.00  0.00    -0.263 NA
ATOM     40  C   UNL     1      28.968  -8.105  -1.907  0.00  0.00    +0.111 A 
ENDBRANCH   4   3
ENDBRANCH  10   9
BRANCH  12  13
ATOM     13  N   UNL     1      21.871 -17.442  -1.628  0.00  0.00    -0.281 N 
ATOM     14  C   UNL     1      20.627 -16.937  -1.288  0.00  0.00    +0.248 C 
ATOM     30  O   UNL     1      20.373 -16.380  -0.230  0.00  0.00    -0.270 OA
ATOM     31  H   UNL     1      21.900 -18.050  -2.447  0.00  0.00    +0.155 HD
BRANCH  14  15
ATOM     15  C   UNL     1      19.498 -17.085  -2.256  0.00  0.00    +0.037 A 
ATOM     16  C   UNL     1      18.403 -16.113  -2.302  0.00  0.00    +0.013 A 
ATOM     17  C   UNL     1      17.318 -16.289  -3.233  0.00  0.00    +0.005 A 
ATOM     18  C   UNL     1      17.323 -17.443  -4.129  0.00  0.00    -0.033 A 
ATOM     28  C   UNL     1      18.424 -18.390  -4.066  0.00  0.00    +0.005 A 
ATOM     29  C   UNL     1      19.489 -18.221  -3.153  0.00  0.00    +0.013 A 
BRANCH  18  19
ATOM     19  C   UNL     1      16.196 -17.722  -5.141  0.00  0.00    +0.119 C 
BRANCH  19  20
ATOM     20  N   UNL     1      14.800 -17.773  -4.612  0.00  0.00    -0.302 NA
ATOM     21  C   UNL     1      14.295 -19.211  -4.462  0.00  0.00    +0.066 C 
ATOM     22  C   UNL     1      12.842 -19.247  -3.887  0.00  0.00    -0.064 C 
ATOM     23  N   UNL     1      11.915 -18.440  -4.798  0.00  0.00    +0.379 N 
ATOM     24  C   UNL     1      10.538 -18.520  -4.291  0.00  0.00    -0.096 C 
ATOM     25  H   UNL     1      11.934 -18.916  -5.805  0.00  0.00    -0.082 HD
ATOM     26  C   UNL     1      12.411 -17.010  -4.954  0.00  0.00    -0.064 C 
ATOM     27  C   UNL     1      13.867 -16.986  -5.499  0.00  0.00    +0.066 C 
ENDBRANCH  19  20
ENDBRANCH  18  19
ENDBRANCH  14  15
ENDBRANCH  12  13
TORSDOF 6
ENDMDL
MODEL 2
REMARK VINA RESULT:      -7.1     13.403     20.548
REMARK  Name = C:\Users\Docking\Desktop\test protocol\1iep_ligandH.pdb
REMARK  8 active torsions:
REMARK  status: ('A' for Active; 'I' for Inactive)
REMARK    1  A    between atoms: _5  and  _11
REMARK    2  A    between atoms: _19  and  _21
REMARK    3  A    between atoms: _22  and  _66
REMARK    4  A    between atoms: _27  and  _30
REMARK    5  A    between atoms: _32  and  _33
REMARK    6  A    between atoms: _38  and  _43
REMARK    7  A    between atoms: _43  and  _46
REMARK    8  A    between atoms: _53  and  _55
REMARK                            x       y       z     vdW  Elec       q    Type
REMARK                         _______ _______ _______ _____ _____    ______ ____
ROOT
ATOM     10  C   UNL     1       8.266 -11.909 -10.238  0.00  0.00    +0.038 A 
ATOM     11  C   UNL     1       7.280 -10.901 -10.391  0.00  0.00    +0.047 A 
ATOM     12  C   UNL     1       6.693 -10.614 -11.691  0.00  0.00    +0.035 A 
ATOM     32  C   UNL     1       7.132 -11.376 -12.813  0.00  0.00    +0.024 A 
ATOM     33  C   UNL     1       8.133 -12.404 -12.675  0.00  0.00    +0.007 A 
ATOM     34  C   UNL     1       8.717 -12.689 -11.396  0.00  0.00    -0.029 A 
ATOM     35  C   UNL     1       9.792 -13.798 -11.308  0.00  0.00    +0.045 C 
ENDROOT
BRANCH  10   9
ATOM      4  C   UNL     1       8.331 -14.240  -6.042  0.00  0.00    +0.077 A 
ATOM      5  C   UNL     1       7.197 -15.041  -6.402  0.00  0.00    +0.048 A 
ATOM      6  C   UNL     1       6.621 -14.818  -7.673  0.00  0.00    +0.116 A 
ATOM      7  N   UNL     1       7.150 -13.861  -8.514  0.00  0.00    -0.223 NA
ATOM      8  C   UNL     1       8.243 -13.104  -8.135  0.00  0.00    +0.220 A 
ATOM      9  N   UNL     1       8.795 -12.143  -8.967  0.00  0.00    -0.283 N 
ATOM     36  H   UNL     1       9.597 -11.600  -8.647  0.00  0.00    +0.155 HD
ATOM     37  N   UNL     1       8.809 -13.298  -6.925  0.00  0.00    -0.214 NA
BRANCH   4   3
ATOM      1  C   UNL     1       9.115 -14.397  -2.213  0.00  0.00    +0.020 A 
ATOM      2  C   UNL     1       8.374 -14.273  -3.447  0.00  0.00    +0.013 A 
ATOM      3  C   UNL     1       9.050 -14.360  -4.735  0.00  0.00    +0.019 A 
ATOM     38  C   UNL     1      10.489 -14.576  -4.740  0.00  0.00    +0.120 A 
ATOM     39  N   UNL     1      11.177 -14.689  -3.536  0.00  0.00    -0.263 NA
ATOM     40  C   UNL     1      10.537 -14.605  -2.290  0.00  0.00    +0.111 A 
ENDBRANCH   4   3
ENDBRANCH  10   9
BRANCH  12  13
ATOM     13  N   UNL     1       5.695  -9.597 -11.909  0.00  0.00    -0.281 N 
ATOM     14  C   UNL     1       5.873  -8.329 -12.438  0.00  0.00    +0.248 C 
ATOM     30  O   UNL     1       6.960  -7.796 -12.607  0.00  0.00    -0.270 OA
ATOM     31  H   UNL     1       4.741  -9.841 -11.641  0.00  0.00    +0.155 HD
BRANCH  14  15
ATOM     15  C   UNL     1       4.668  -7.531 -12.821  0.00  0.00    +0.037 A 
ATOM     16  C   UNL     1       4.106  -7.605 -14.172  0.00  0.00    +0.013 A 
ATOM     17  C   UNL     1       2.954  -6.812 -14.521  0.00  0.00    +0.005 A 
ATOM     18  C   UNL     1       2.355  -5.938 -13.515  0.00  0.00    -0.033 A 
ATOM     28  C   UNL     1       2.930  -5.888 -12.181  0.00  0.00    +0.005 A 
ATOM     29  C   UNL     1       4.060  -6.663 -11.836  0.00  0.00    +0.013 A 
BRANCH  18  19
ATOM     19  C   UNL     1       1.138  -5.041 -13.805  0.00  0.00    +0.119 C 
BRANCH  19  20
ATOM     20  N   UNL     1      -0.110  -5.712 -14.278  0.00  0.00    -0.302 NA
ATOM     21  C   UNL     1      -1.242  -4.712 -14.525  0.00  0.00    +0.066 C 
ATOM     22  C   UNL     1      -2.532  -5.429 -15.040  0.00  0.00    -0.064 C 
ATOM     23  N   UNL     1      -2.961  -6.493 -14.028  0.00  0.00    +0.379 N 
ATOM     24  C   UNL     1      -4.206  -7.129 -14.482  0.00  0.00    -0.096 C 
ATOM     25  H   UNL     1      -3.177  -5.975 -13.065  0.00  0.00    -0.082 HD
ATOM     26  C   UNL     1      -1.839  -7.490 -13.775  0.00  0.00    -0.064 C 
ATOM     27  C   UNL     1      -0.553  -6.764 -13.291  0.00  0.00    +0.066 C 
ENDBRANCH  19  20
ENDBRANCH  18  19
ENDBRANCH  14  15
ENDBRANCH  12  13
TORSDOF 6
ENDMDL
MODEL 3
REMARK VINA RESULT:      -7.0     13.868     21.152
REMARK  Name = C:\Users\Docking\Desktop\test protocol\1iep_ligandH.pdb
REMARK  8 active torsions:
REMARK  status: ('A' for Active; 'I' for Inactive)
REMARK    1  A    between atoms: _5  and  _11
REMARK    2  A    between atoms: _19  and  _21
REMARK    3  A    between atoms: _22  and  _66
REMARK    4  A    between atoms: _27  and  _30
REMARK    5  A    between atoms: _32  and  _33
REMARK    6  A    between atoms: _38  and  _43
REMARK    7  A    between atoms: _43  and  _46
REMARK    8  A    between atoms: _53  and  _55
REMARK                            x       y       z     vdW  Elec       q    Type
REMARK                         _______ _______ _______ _____ _____    ______ ____
ROOT
ATOM     10  C   UNL     1       7.503 -11.779  -9.935  0.00  0.00    +0.038 A 
ATOM     11  C   UNL     1       6.258 -11.104  -9.994  0.00  0.00    +0.047 A 
ATOM     12  C   UNL     1       5.585 -10.874 -11.263  0.00  0.00    +0.035 A 
ATOM     32  C   UNL     1       6.209 -11.348 -12.453  0.00  0.00    +0.024 A 
ATOM     33  C   UNL     1       7.476 -12.036 -12.412  0.00  0.00    +0.007 A 
ATOM     34  C   UNL     1       8.145 -12.264 -11.163  0.00  0.00    -0.029 A 
ATOM     35  C   UNL     1       9.504 -13.001 -11.180  0.00  0.00    +0.045 C 
ENDROOT
BRANCH  10   9
ATOM      4  C   UNL     1       8.277 -14.362  -5.964  0.00  0.00    +0.077 A 
ATOM      5  C   UNL     1       7.387 -15.401  -6.395  0.00  0.00    +0.048 A 
ATOM      6  C   UNL     1       6.745 -15.229  -7.642  0.00  0.00    +0.116 A 
ATOM      7  N   UNL     1       6.982 -14.099  -8.393  0.00  0.00    -0.223 NA
ATOM      8  C   UNL     1       7.845 -13.114  -7.947  0.00  0.00    +0.220 A 
ATOM      9  N   UNL     1       8.105 -11.973  -8.689  0.00  0.00    -0.283 N 
ATOM     36  H   UNL     1       8.742 -11.267  -8.322  0.00  0.00    +0.155 HD
ATOM     37  N   UNL     1       8.470 -13.254  -6.759  0.00  0.00    -0.214 NA
BRANCH   4   3
ATOM      1  C   UNL     1      11.169 -14.434  -3.331  0.00  0.00    +0.020 A 
ATOM      2  C   UNL     1      10.488 -14.397  -4.605  0.00  0.00    +0.013 A 
ATOM      3  C   UNL     1       9.032 -14.400  -4.672  0.00  0.00    +0.019 A 
ATOM     38  C   UNL     1       8.289 -14.440  -3.422  0.00  0.00    +0.120 A 
ATOM     39  N   UNL     1       8.972 -14.476  -2.210  0.00  0.00    -0.263 NA
ATOM     40  C   UNL     1      10.373 -14.476  -2.133  0.00  0.00    +0.111 A 
ENDBRANCH   4   3
ENDBRANCH  10   9
BRANCH  12  13
ATOM     13  N   UNL     1       4.324 -10.187 -11.385  0.00  0.00    -0.281 N 
ATOM     14  C   UNL     1       4.107  -8.835 -11.597  0.00  0.00    +0.248 C 
ATOM     30  O   UNL     1       4.968  -7.973 -11.500  0.00  0.00    -0.270 OA
ATOM     31  H   UNL     1       3.489 -10.767 -11.306  0.00  0.00    +0.155 HD
BRANCH  14  15
ATOM     15  C   UNL     1       2.732  -8.371 -11.954  0.00  0.00    +0.037 A 
ATOM     16  C   UNL     1       2.472  -6.978 -12.327  0.00  0.00    +0.013 A 
ATOM     17  C   UNL     1       1.133  -6.554 -12.650  0.00  0.00    +0.005 A 
ATOM     18  C   UNL     1       0.043  -7.525 -12.603  0.00  0.00    -0.033 A 
ATOM     28  C   UNL     1       0.329  -8.902 -12.235  0.00  0.00    +0.005 A 
ATOM     29  C   UNL     1       1.640  -9.321 -11.917  0.00  0.00    +0.013 A 
BRANCH  18  19
ATOM     19  C   UNL     1      -1.420  -7.156 -12.912  0.00  0.00    +0.119 C 
BRANCH  19  20
ATOM     20  N   UNL     1      -1.655  -6.052 -13.891  0.00  0.00    -0.302 NA
ATOM     21  C   UNL     1      -3.057  -5.452 -13.755  0.00  0.00    +0.066 C 
ATOM     22  C   UNL     1      -3.278  -4.285 -14.771  0.00  0.00    -0.064 C 
ATOM     23  N   UNL     1      -3.043  -4.798 -16.192  0.00  0.00    +0.379 N 
ATOM     24  C   UNL     1      -3.307  -3.717 -17.154  0.00  0.00    -0.096 C 
ATOM     25  H   UNL     1      -3.783  -5.610 -16.385  0.00  0.00    -0.082 HD
ATOM     26  C   UNL     1      -1.652  -5.399 -16.336  0.00  0.00    -0.064 C 
ATOM     27  C   UNL     1      -1.433  -6.538 -15.302  0.00  0.00    +0.066 C 
ENDBRANCH  19  20
ENDBRANCH  18  19
ENDBRANCH  14  15
ENDBRANCH  12  13
TORSDOF 6
ENDMDL
MODEL 4
REMARK VINA RESULT:      -7.0     33.108     34.917
REMARK  Name = C:\Users\Docking\Desktop\test protocol\1iep_ligandH.pdb
REMARK  8 active torsions:
REMARK  status: ('A' for Active; 'I' for Inactive)
REMARK    1  A    between atoms: _5  and  _11
REMARK    2  A    between atoms: _19  and  _21
REMARK    3  A    between atoms: _22  and  _66
REMARK    4  A    between atoms: _27  and  _30
REMARK    5  A    between atoms: _32  and  _33
REMARK    6  A    between atoms: _38  and  _43
REMARK    7  A    between atoms: _43  and  _46
REMARK    8  A    between atoms: _53  and  _55
REMARK                            x       y       z     vdW  Elec       q    Type
REMARK                         _______ _______ _______ _____ _____    ______ ____
ROOT
ATOM     10  C   UNL     1       0.362  11.780   7.774  0.00  0.00    +0.038 A 
ATOM     11  C   UNL     1      -0.248  10.540   8.095  0.00  0.00    +0.047 A 
ATOM     12  C   UNL     1      -0.304  10.062   9.468  0.00  0.00    +0.035 A 
ATOM     32  C   UNL     1       0.269  10.874  10.490  0.00  0.00    +0.024 A 
ATOM     33  C   UNL     1       0.894  12.136  10.181  0.00  0.00    +0.007 A 
ATOM     34  C   UNL     1       0.954  12.612   8.829  0.00  0.00    -0.029 A 
ATOM     35  C   UNL     1       1.642  13.970   8.555  0.00  0.00    +0.045 C 
ENDROOT
BRANCH  10   9
ATOM      4  C   UNL     1       2.342  11.844   3.403  0.00  0.00    +0.077 A 
ATOM      5  C   UNL     1       3.433  11.011   3.820  0.00  0.00    +0.048 A 
ATOM      6  C   UNL     1       3.451  10.593   5.170  0.00  0.00    +0.116 A 
ATOM      7  N   UNL     1       2.448  10.985   6.029  0.00  0.00    -0.223 NA
ATOM      8  C   UNL     1       1.411  11.791   5.595  0.00  0.00    +0.220 A 
ATOM      9  N   UNL     1       0.387  12.190   6.440  0.00  0.00    -0.283 N 
ATOM     36  H   UNL     1      -0.356  12.791   6.083  0.00  0.00    +0.155 HD
ATOM     37  N   UNL     1       1.372  12.204   4.311  0.00  0.00    -0.214 NA
BRANCH   4   3
ATOM      1  C   UNL     1       2.427  12.163  -0.495  0.00  0.00    +0.020 A 
ATOM      2  C   UNL     1       2.605  11.616   0.830  0.00  0.00    +0.013 A 
ATOM      3  C   UNL     1       2.181  12.363   2.008  0.00  0.00    +0.019 A 
ATOM     38  C   UNL     1       1.575  13.671   1.808  0.00  0.00    +0.120 A 
ATOM     39  N   UNL     1       1.417  14.173   0.520  0.00  0.00    -0.263 NA
ATOM     40  C   UNL     1       1.823  13.463  -0.621  0.00  0.00    +0.111 A 
ENDBRANCH   4   3
ENDBRANCH  10   9
BRANCH  12  13
ATOM     13  N   UNL     1      -0.903   8.808   9.853  0.00  0.00    -0.281 N 
ATOM     14  C   UNL     1      -0.966   7.634   9.121  0.00  0.00    +0.248 C 
ATOM     30  O   UNL     1      -0.702   7.547   7.931  0.00  0.00    -0.270 OA
ATOM     31  H   UNL     1      -1.332   8.783  10.778  0.00  0.00    +0.155 HD
BRANCH  14  15
ATOM     15  C   UNL     1      -1.398   6.378   9.806  0.00  0.00    +0.037 A 
ATOM     16  C   UNL     1      -2.177   6.418  11.046  0.00  0.00    +0.013 A 
ATOM     17  C   UNL     1      -2.566   5.192  11.696  0.00  0.00    +0.005 A 
ATOM     18  C   UNL     1      -2.177   3.914  11.105  0.00  0.00    -0.033 A 
ATOM     28  C   UNL     1      -1.409   3.903   9.871  0.00  0.00    +0.005 A 
ATOM     29  C   UNL     1      -1.025   5.103   9.232  0.00  0.00    +0.013 A 
BRANCH  18  19
ATOM     19  C   UNL     1      -2.531   2.556  11.741  0.00  0.00    +0.119 C 
BRANCH  19  20
ATOM     20  N   UNL     1      -2.549   2.484  13.232  0.00  0.00    -0.302 NA
ATOM     21  C   UNL     1      -1.137   2.447  13.823  0.00  0.00    +0.066 C 
ATOM     22  C   UNL     1      -1.174   2.394  15.385  0.00  0.00    -0.064 C 
ATOM     23  N   UNL     1      -1.980   1.174  15.832  0.00  0.00    +0.379 N 
ATOM     24  C   UNL     1      -1.969   1.089  17.300  0.00  0.00    -0.096 C 
ATOM     25  H   UNL     1      -1.467   0.266  15.436  0.00  0.00    -0.082 HD
ATOM     26  C   UNL     1      -3.385   1.201  15.247  0.00  0.00    -0.064 C 
ATOM     27  C   UNL     1      -3.337   1.283  13.696  0.00  0.00    +0.066 C 
ENDBRANCH  19  20
ENDBRANCH  18  19
ENDBRANCH  14  15
ENDBRANCH  12  13
TORSDOF 6
ENDMDL
MODEL 5
REMARK VINA RESULT:      -7.0      2.140      3.928
REMARK  Name = C:\Users\Docking\Desktop\test protocol\1iep_ligandH.pdb
REMARK  8 active torsions:
REMARK  status: ('A' for Active; 'I' for Inactive)
REMARK    1  A    between atoms: _5  and  _11
REMARK    2  A    between atoms: _19  and  _21
REMARK    3  A    between atoms: _22  and  _66
REMARK    4  A    between atoms: _27  and  _30
REMARK    5  A    between atoms: _32  and  _33
REMARK    6  A    between atoms: _38  and  _43
REMARK    7  A    between atoms: _43  and  _46
REMARK    8  A    between atoms: _53  and  _55
REMARK                            x       y       z     vdW  Elec       q    Type
REMARK                         _______ _______ _______ _____ _____    ______ ____
ROOT
ATOM     10  C   UNL     1      21.529 -16.887  -0.714  0.00  0.00    +0.038 A 
ATOM     11  C   UNL     1      20.390 -16.704  -1.540  0.00  0.00    +0.047 A 
ATOM     12  C   UNL     1      19.327 -17.695  -1.586  0.00  0.00    +0.035 A 
ATOM     32  C   UNL     1      19.454 -18.861  -0.776  0.00  0.00    +0.024 A 
ATOM     33  C   UNL     1      20.605 -19.064   0.068  0.00  0.00    +0.007 A 
ATOM     34  C   UNL     1      21.658 -18.091   0.116  0.00  0.00    -0.029 A 
ATOM     35  C   UNL     1      22.872 -18.364   1.035  0.00  0.00    +0.045 C 
ENDROOT
BRANCH  10   9
ATOM      4  C   UNL     1      25.480 -14.849  -2.522  0.00  0.00    +0.077 A 
ATOM      5  C   UNL     1      25.595 -15.844  -3.549  0.00  0.00    +0.048 A 
ATOM      6  C   UNL     1      24.621 -16.867  -3.573  0.00  0.00    +0.116 A 
ATOM      7  N   UNL     1      23.612 -16.884  -2.635  0.00  0.00    -0.223 NA
ATOM      8  C   UNL     1      23.531 -15.910  -1.657  0.00  0.00    +0.220 A 
ATOM      9  N   UNL     1      22.520 -15.903  -0.708  0.00  0.00    -0.283 N 
ATOM     36  H   UNL     1      22.499 -15.171   0.002  0.00  0.00    +0.155 HD
ATOM     37  N   UNL     1      24.450 -14.923  -1.611  0.00  0.00    -0.214 NA
BRANCH   4   3
ATOM      1  C   UNL     1      27.250 -11.385  -2.936  0.00  0.00    +0.020 A 
ATOM      2  C   UNL     1      26.305 -12.462  -3.123  0.00  0.00    +0.013 A 
ATOM      3  C   UNL     1      26.431 -13.702  -2.367  0.00  0.00    +0.019 A 
ATOM     38  C   UNL     1      27.531 -13.821  -1.422  0.00  0.00    +0.120 A 
ATOM     39  N   UNL     1      28.426 -12.767  -1.264  0.00  0.00    -0.263 NA
ATOM     40  C   UNL     1      28.316 -11.570  -1.987  0.00  0.00    +0.111 A 
ENDBRANCH   4   3
ENDBRANCH  10   9
BRANCH  12  13
ATOM     13  N   UNL     1      18.151 -17.567  -2.411  0.00  0.00    -0.281 N 
ATOM     14  C   UNL     1      17.857 -18.240  -3.586  0.00  0.00    +0.248 C 
ATOM     30  O   UNL     1      18.663 -18.904  -4.222  0.00  0.00    -0.270 OA
ATOM     31  H   UNL     1      17.451 -16.898  -2.091  0.00  0.00    +0.155 HD
BRANCH  14  15
ATOM     15  C   UNL     1      16.473 -18.152  -4.141  0.00  0.00    +0.037 A 
ATOM     16  C   UNL     1      15.405 -19.035  -3.664  0.00  0.00    +0.013 A 
ATOM     17  C   UNL     1      14.082 -18.941  -4.229  0.00  0.00    +0.005 A 
ATOM     18  C   UNL     1      13.820 -17.958  -5.278  0.00  0.00    -0.033 A 
ATOM     28  C   UNL     1      14.896 -17.092  -5.729  0.00  0.00    +0.005 A 
ATOM     29  C   UNL     1      16.194 -17.182  -5.178  0.00  0.00    +0.013 A 
BRANCH  18  19
ATOM     19  C   UNL     1      12.444 -17.802  -5.953  0.00  0.00    +0.119 C 
BRANCH  19  20
ATOM     20  N   UNL     1      11.436 -16.946  -5.260  0.00  0.00    -0.302 NA
ATOM     21  C   UNL     1      11.998 -15.566  -4.908  0.00  0.00    +0.066 C 
ATOM     22  C   UNL     1      10.923 -14.676  -4.204  0.00  0.00    -0.064 C 
ATOM     23  N   UNL     1      10.416 -15.390  -2.950  0.00  0.00    +0.379 N 
ATOM     24  C   UNL     1       9.447 -14.530  -2.254  0.00  0.00    -0.096 C 
ATOM     25  H   UNL     1      11.287 -15.538  -2.270  0.00  0.00    -0.082 HD
ATOM     26  C   UNL     1       9.857 -16.764  -3.290  0.00  0.00    -0.064 C 
ATOM     27  C   UNL     1      10.924 -17.630  -4.016  0.00  0.00    +0.066 C 
ENDBRANCH  19  20
ENDBRANCH  18  19
ENDBRANCH  14  15
ENDBRANCH  12  13
TORSDOF 6
ENDMDL
