MODEL 1
REMARK VINA RESULT:      -7.9      0.000      0.000
REMARK  Name = C:\Users\Docking\Desktop\test protocol\1iep_ligandH.pdb
REMARK  8 active torsions:
REMARK  status: ('A' for Active; 'I' for Inactive)
REMARK    1  A    between atoms: _5  and  _11
REMARK    2  A    between atoms: _19  and  _21
REMARK    3  A    between atoms: _22  and  _66
REMARK    4  A    between atoms: _27  and  _30
REMARK    5  A    between atoms: _32  and  _33
REMARK    6  A    between atoms: _38  and  _43
REMARK    7  A    between atoms: _43  and  _46
REMARK    8  A    between atoms: _53  and  _55
REMARK                            x       y       z     vdW  Elec       q    Type
REMARK                         _______ _______ _______ _____ _____    ______ ____
ROOT
ATOM     10  C   UNL     1      19.111  28.719  63.519  0.00  0.00    +0.038 A 
ATOM     11  C   UNL     1      18.788  28.961  64.879  0.00  0.00    +0.047 A 
ATOM     12  C   UNL     1      19.779  28.788  65.930  0.00  0.00    +0.035 A 
ATOM     32  C   UNL     1      21.090  28.369  65.560  0.00  0.00    +0.024 A 
ATOM     33  C   UNL     1      21.435  28.118  64.183  0.00  0.00    +0.007 A 
ATOM     34  C   UNL     1      20.461  28.285  63.142  0.00  0.00    -0.029 A 
ATOM     35  C   UNL     1      20.885  27.995  61.683  0.00  0.00    +0.045 C 
ENDROOT
BRANCH  10   9
ATOM      4  C   UNL     1      16.709  31.446  60.384  0.00  0.00    +0.077 A 
ATOM      5  C   UNL     1      17.473  32.612  60.722  0.00  0.00    +0.048 A 
ATOM      6  C   UNL     1      18.470  32.470  61.713  0.00  0.00    +0.116 A 
ATOM      7  N   UNL     1      18.679  31.247  62.314  0.00  0.00    -0.223 NA
ATOM      8  C   UNL     1      17.923  30.143  61.965  0.00  0.00    +0.220 A 
ATOM      9  N   UNL     1      18.121  28.902  62.551  0.00  0.00    -0.283 N 
ATOM     36  H   UNL     1      17.538  28.114  62.272  0.00  0.00    +0.155 HD
ATOM     37  N   UNL     1      16.964  30.253  61.023  0.00  0.00    -0.214 NA
BRANCH   4   3
ATOM      1  C   UNL     1      13.894  30.265  57.938  0.00  0.00    +0.020 A 
ATOM      2  C   UNL     1      14.937  30.220  58.937  0.00  0.00    +0.013 A 
ATOM      3  C   UNL     1      15.622  31.436  59.354  0.00  0.00    +0.019 A 
ATOM     38  C   UNL     1      15.225  32.693  58.736  0.00  0.00    +0.120 A 
ATOM     39  N   UNL     1      14.218  32.705  57.776  0.00  0.00    -0.263 NA
ATOM     40  C   UNL     1      13.553  31.540  57.366  0.00  0.00    +0.111 A 
ENDBRANCH   4   3
ENDBRANCH  10   9
BRANCH  12  13
ATOM     13  N   UNL     1      19.507  29.010  67.328  0.00  0.00    -0.281 N 
ATOM     14  C   UNL     1      19.484  30.216  68.010  0.00  0.00    +0.248 C 
ATOM     30  O   UNL     1      19.906  31.272  67.561  0.00  0.00    -0.270 OA
ATOM     31  H   UNL     1      19.307  28.178  67.883  0.00  0.00    +0.155 HD
BRANCH  14  15
ATOM     15  C   UNL     1      18.924  30.252  69.395  0.00  0.00    +0.037 A 
ATOM     16  C   UNL     1      18.464  29.030  70.061  0.00  0.00    +0.013 A 
ATOM     17  C   UNL     1      17.913  29.095  71.391  0.00  0.00    +0.005 A 
ATOM     18  C   UNL     1      17.820  30.388  72.065  0.00  0.00    -0.033 A 
ATOM     28  C   UNL     1      18.288  31.583  71.384  0.00  0.00    +0.005 A 
ATOM     29  C   UNL     1      18.828  31.524  70.080  0.00  0.00    +0.013 A 
BRANCH  18  19
ATOM     19  C   UNL     1      17.225  30.554  73.477  0.00  0.00    +0.119 C 
BRANCH  19  20
ATOM     20  N   UNL     1      16.476  31.814  73.759  0.00  0.00    -0.302 NA
ATOM     21  C   UNL     1      17.235  32.731  74.723  0.00  0.00    +0.066 C 
ATOM     22  C   UNL     1      16.447  34.054  74.989  0.00  0.00    -0.064 C 
ATOM     23  N   UNL     1      15.061  33.717  75.541  0.00  0.00    +0.379 N 
ATOM     24  C   UNL     1      14.339  34.961  75.848  0.00  0.00    -0.096 C 
ATOM     25  H   UNL     1      15.204  33.164  76.499  0.00  0.00    -0.082 HD
ATOM     26  C   UNL     1      14.300  32.804  74.590  0.00  0.00    -0.064 C 
ATOM     27  C   UNL     1      15.105  31.505  74.309  0.00  0.00    +0.066 C 
ENDBRANCH  19  20
ENDBRANCH  18  19
ENDBRANCH  14  15
ENDBRANCH  12  13
TORSDOF 6
ENDMDL
MODEL 2
REMARK VINA RESULT:      -7.8     24.155     28.057
REMARK  Name = C:\Users\Docking\Desktop\test protocol\1iep_ligandH.pdb
REMARK  8 active torsions:
REMARK  status: ('A' for Active; 'I' for Inactive)
REMARK    1  A    between atoms: _5  and  _11
REMARK    2  A    between atoms: _19  and  _21
REMARK    3  A    between atoms: _22  and  _66
REMARK    4  A    between atoms: _27  and  _30
REMARK    5  A    between atoms: _32  and  _33
REMARK    6  A    between atoms: _38  and  _43
REMARK    7  A    between atoms: _43  and  _46
REMARK    8  A    between atoms: _53  and  _55
REMARK                            x       y       z     vdW  Elec       q    Type
REMARK                         _______ _______ _______ _____ _____    ______ ____
ROOT
ATOM     10  C   UNL     1      -1.191  24.111  81.896  0.00  0.00    +0.038 A 
ATOM     11  C   UNL     1      -1.818  22.839  81.855  0.00  0.00    +0.047 A 
ATOM     12  C   UNL     1      -1.050  21.616  82.029  0.00  0.00    +0.035 A 
ATOM     32  C   UNL     1       0.354  21.725  82.245  0.00  0.00    +0.024 A 
ATOM     33  C   UNL     1       1.008  23.009  82.288  0.00  0.00    +0.007 A 
ATOM     34  C   UNL     1       0.256  24.219  82.115  0.00  0.00    -0.029 A 
ATOM     35  C   UNL     1       1.010  25.568  82.164  0.00  0.00    +0.045 C 
ENDROOT
BRANCH  10   9
ATOM      4  C   UNL     1      -3.375  27.367  79.127  0.00  0.00    +0.077 A 
ATOM      5  C   UNL     1      -2.888  26.757  77.924  0.00  0.00    +0.048 A 
ATOM      6  C   UNL     1      -2.073  25.611  78.061  0.00  0.00    +0.116 A 
ATOM      7  N   UNL     1      -1.774  25.120  79.313  0.00  0.00    -0.223 NA
ATOM      8  C   UNL     1      -2.258  25.734  80.454  0.00  0.00    +0.220 A 
ATOM      9  N   UNL     1      -1.977  25.253  81.723  0.00  0.00    -0.283 N 
ATOM     36  H   UNL     1      -2.347  25.738  82.540  0.00  0.00    +0.155 HD
ATOM     37  N   UNL     1      -3.038  26.830  80.350  0.00  0.00    -0.214 NA
BRANCH   4   3
ATOM      1  C   UNL     1      -4.751  30.986  78.571  0.00  0.00    +0.020 A 
ATOM      2  C   UNL     1      -3.869  29.843  78.525  0.00  0.00    +0.013 A 
ATOM      3  C   UNL     1      -4.251  28.581  79.147  0.00  0.00    +0.019 A 
ATOM     38  C   UNL     1      -5.543  28.509  79.812  0.00  0.00    +0.120 A 
ATOM     39  N   UNL     1      -6.371  29.626  79.842  0.00  0.00    -0.263 NA
ATOM     40  C   UNL     1      -6.013  30.846  79.249  0.00  0.00    +0.111 A 
ENDBRANCH   4   3
ENDBRANCH  10   9
BRANCH  12  13
ATOM     13  N   UNL     1      -1.631  20.297  81.989  0.00  0.00    -0.281 N 
ATOM     14  C   UNL     1      -2.063  19.589  80.879  0.00  0.00    +0.248 C 
ATOM     30  O   UNL     1      -2.213  20.073  79.767  0.00  0.00    -0.270 OA
ATOM     31  H   UNL     1      -1.736  19.827  82.889  0.00  0.00    +0.155 HD
BRANCH  14  15
ATOM     15  C   UNL     1      -2.389  18.138  81.030  0.00  0.00    +0.037 A 
ATOM     16  C   UNL     1      -2.834  17.589  82.313  0.00  0.00    +0.013 A 
ATOM     17  C   UNL     1      -3.126  16.182  82.435  0.00  0.00    +0.005 A 
ATOM     18  C   UNL     1      -2.975  15.316  81.268  0.00  0.00    -0.033 A 
ATOM     28  C   UNL     1      -2.537  15.888  80.006  0.00  0.00    +0.005 A 
ATOM     29  C   UNL     1      -2.249  17.266  79.883  0.00  0.00    +0.013 A 
BRANCH  18  19
ATOM     19  C   UNL     1      -3.244  13.800  81.312  0.00  0.00    +0.119 C 
BRANCH  19  20
ATOM     20  N   UNL     1      -2.719  13.046  82.490  0.00  0.00    -0.302 NA
ATOM     21  C   UNL     1      -1.268  12.602  82.287  0.00  0.00    +0.066 C 
ATOM     22  C   UNL     1      -0.727  11.835  83.537  0.00  0.00    -0.064 C 
ATOM     23  N   UNL     1      -1.627  10.631  83.821  0.00  0.00    +0.379 N 
ATOM     24  C   UNL     1      -1.089   9.874  84.961  0.00  0.00    -0.096 C 
ATOM     25  H   UNL     1      -1.594   9.966  82.927  0.00  0.00    -0.082 HD
ATOM     26  C   UNL     1      -3.073  11.063  84.022  0.00  0.00    -0.064 C 
ATOM     27  C   UNL     1      -3.591  11.850  82.786  0.00  0.00    +0.066 C 
ENDBRANCH  19  20
ENDBRANCH  18  19
ENDBRANCH  14  15
ENDBRANCH  12  13
TORSDOF 6
ENDMDL
MODEL 3
REMARK VINA RESULT:      -7.6     24.340     26.822
REMARK  Name = C:\Users\Docking\Desktop\test protocol\1iep_ligandH.pdb
REMARK  8 active torsions:
REMARK  status: ('A' for Active; 'I' for Inactive)
REMARK    1  A    between atoms: _5  and  _11
REMARK    2  A    between atoms: _19  and  _21
REMARK    3  A    between atoms: _22  and  _66
REMARK    4  A    between atoms: _27  and  _30
REMARK    5  A    between atoms: _32  and  _33
REMARK    6  A    between atoms: _38  and  _43
REMARK    7  A    between atoms: _43  and  _46
REMARK    8  A    between atoms: _53  and  _55
REMARK                            x       y       z     vdW  Elec       q    Type
REMARK                         _______ _______ _______ _____ _____    ______ ____
ROOT
ATOM     10  C   UNL     1      -6.225  33.243  79.074  0.00  0.00    +0.038 A 
ATOM     11  C   UNL     1      -5.582  31.994  79.270  0.00  0.00    +0.047 A 
ATOM     12  C   UNL     1      -5.872  30.856  78.410  0.00  0.00    +0.035 A 
ATOM     32  C   UNL     1      -6.820  31.027  77.360  0.00  0.00    +0.024 A 
ATOM     33  C   UNL     1      -7.483  32.289  77.148  0.00  0.00    +0.007 A 
ATOM     34  C   UNL     1      -7.203  33.414  77.994  0.00  0.00    -0.029 A 
ATOM     35  C   UNL     1      -7.949  34.742  77.724  0.00  0.00    +0.045 C 
ENDROOT
BRANCH  10   9
ATOM      4  C   UNL     1      -3.414  36.885  80.442  0.00  0.00    +0.077 A 
ATOM      5  C   UNL     1      -2.481  36.642  79.379  0.00  0.00    +0.048 A 
ATOM      6  C   UNL     1      -2.758  35.565  78.507  0.00  0.00    +0.116 A 
ATOM      7  N   UNL     1      -3.886  34.796  78.693  0.00  0.00    -0.223 NA
ATOM      8  C   UNL     1      -4.764  35.057  79.728  0.00  0.00    +0.220 A 
ATOM      9  N   UNL     1      -5.909  34.301  79.929  0.00  0.00    -0.283 N 
ATOM     36  H   UNL     1      -6.528  34.521  80.709  0.00  0.00    +0.155 HD
ATOM     37  N   UNL     1      -4.522  36.078  80.576  0.00  0.00    -0.214 NA
BRANCH   4   3
ATOM      1  C   UNL     1      -3.602  40.362  82.223  0.00  0.00    +0.020 A 
ATOM      2  C   UNL     1      -3.775  39.334  81.223  0.00  0.00    +0.013 A 
ATOM      3  C   UNL     1      -3.262  37.988  81.443  0.00  0.00    +0.019 A 
ATOM     38  C   UNL     1      -2.574  37.712  82.695  0.00  0.00    +0.120 A 
ATOM     39  N   UNL     1      -2.420  38.723  83.639  0.00  0.00    -0.263 NA
ATOM     40  C   UNL     1      -2.908  40.023  83.438  0.00  0.00    +0.111 A 
ENDBRANCH   4   3
ENDBRANCH  10   9
BRANCH  12  13
ATOM     13  N   UNL     1      -5.256  29.561  78.565  0.00  0.00    -0.281 N 
ATOM     14  C   UNL     1      -3.989  29.168  78.169  0.00  0.00    +0.248 C 
ATOM     30  O   UNL     1      -3.266  29.814  77.425  0.00  0.00    -0.270 OA
ATOM     31  H   UNL     1      -5.824  28.848  79.023  0.00  0.00    +0.155 HD
BRANCH  14  15
ATOM     15  C   UNL     1      -3.452  27.861  78.658  0.00  0.00    +0.037 A 
ATOM     16  C   UNL     1      -2.934  26.856  77.727  0.00  0.00    +0.013 A 
ATOM     17  C   UNL     1      -2.438  25.597  78.224  0.00  0.00    +0.005 A 
ATOM     18  C   UNL     1      -2.457  25.337  79.661  0.00  0.00    -0.033 A 
ATOM     28  C   UNL     1      -2.971  26.354  80.563  0.00  0.00    +0.005 A 
ATOM     29  C   UNL     1      -3.459  27.589  80.080  0.00  0.00    +0.013 A 
BRANCH  18  19
ATOM     19  C   UNL     1      -1.967  24.014  80.278  0.00  0.00    +0.119 C 
BRANCH  19  20
ATOM     20  N   UNL     1      -1.155  24.102  81.529  0.00  0.00    -0.302 NA
ATOM     21  C   UNL     1       0.292  24.513  81.246  0.00  0.00    +0.066 C 
ATOM     22  C   UNL     1       1.121  24.622  82.568  0.00  0.00    -0.064 C 
ATOM     23  N   UNL     1       1.073  23.284  83.308  0.00  0.00    +0.379 N 
ATOM     24  C   UNL     1       1.899  23.365  84.521  0.00  0.00    -0.096 C 
ATOM     25  H   UNL     1       1.525  22.513  82.642  0.00  0.00    -0.082 HD
ATOM     26  C   UNL     1      -0.363  22.866  83.590  0.00  0.00    -0.064 C 
ATOM     27  C   UNL     1      -1.185  22.790  82.274  0.00  0.00    +0.066 C 
ENDBRANCH  19  20
ENDBRANCH  18  19
ENDBRANCH  14  15
ENDBRANCH  12  13
TORSDOF 6
ENDMDL
MODEL 4
REMARK VINA RESULT:      -7.5     24.203     28.192
REMARK  Name = C:\Users\Docking\Desktop\test protocol\1iep_ligandH.pdb
REMARK  8 active torsions:
REMARK  status: ('A' for Active; 'I' for Inactive)
REMARK    1  A    between atoms: _5  and  _11
REMARK    2  A    between atoms: _19  and  _21
REMARK    3  A    between atoms: _22  and  _66
REMARK    4  A    between atoms: _27  and  _30
REMARK    5  A    between atoms: _32  and  _33
REMARK    6  A    between atoms: _38  and  _43
REMARK    7  A    between atoms: _43  and  _46
REMARK    8  A    between atoms: _53  and  _55
REMARK                            x       y       z     vdW  Elec       q    Type
REMARK                         _______ _______ _______ _____ _____    ______ ____
ROOT
ATOM     10  C   UNL     1      -1.325  24.090  81.846  0.00  0.00    +0.038 A 
ATOM     11  C   UNL     1      -1.969  22.831  81.747  0.00  0.00    +0.047 A 
ATOM     12  C   UNL     1      -1.228  21.591  81.914  0.00  0.00    +0.035 A 
ATOM     32  C   UNL     1       0.170  21.670  82.183  0.00  0.00    +0.024 A 
ATOM     33  C   UNL     1       0.841  22.942  82.286  0.00  0.00    +0.007 A 
ATOM     34  C   UNL     1       0.115  24.168  82.120  0.00  0.00    -0.029 A 
ATOM     35  C   UNL     1       0.889  25.503  82.234  0.00  0.00    +0.045 C 
ENDROOT
BRANCH  10   9
ATOM      4  C   UNL     1      -3.406  27.422  79.089  0.00  0.00    +0.077 A 
ATOM      5  C   UNL     1      -2.915  26.818  77.885  0.00  0.00    +0.048 A 
ATOM      6  C   UNL     1      -2.124  25.655  78.018  0.00  0.00    +0.116 A 
ATOM      7  N   UNL     1      -1.852  25.143  79.268  0.00  0.00    -0.223 NA
ATOM      8  C   UNL     1      -2.340  25.751  80.410  0.00  0.00    +0.220 A 
ATOM      9  N   UNL     1      -2.085  25.249  81.677  0.00  0.00    -0.283 N 
ATOM     36  H   UNL     1      -2.457  25.732  82.495  0.00  0.00    +0.155 HD
ATOM     37  N   UNL     1      -3.096  26.864  80.309  0.00  0.00    -0.214 NA
BRANCH   4   3
ATOM      1  C   UNL     1      -6.330  29.927  79.783  0.00  0.00    +0.020 A 
ATOM      2  C   UNL     1      -5.546  28.713  79.791  0.00  0.00    +0.013 A 
ATOM      3  C   UNL     1      -4.258  28.654  79.112  0.00  0.00    +0.019 A 
ATOM     38  C   UNL     1      -3.787  29.849  78.430  0.00  0.00    +0.120 A 
ATOM     39  N   UNL     1      -4.564  31.004  78.438  0.00  0.00    -0.263 NA
ATOM     40  C   UNL     1      -5.806  31.073  79.087  0.00  0.00    +0.111 A 
ENDBRANCH   4   3
ENDBRANCH  10   9
BRANCH  12  13
ATOM     13  N   UNL     1      -1.827  20.283  81.816  0.00  0.00    -0.281 N 
ATOM     14  C   UNL     1      -1.899  19.459  80.705  0.00  0.00    +0.248 C 
ATOM     30  O   UNL     1      -1.645  19.815  79.564  0.00  0.00    -0.270 OA
ATOM     31  H   UNL     1      -2.250  19.920  82.671  0.00  0.00    +0.155 HD
BRANCH  14  15
ATOM     15  C   UNL     1      -2.329  18.039  80.884  0.00  0.00    +0.037 A 
ATOM     16  C   UNL     1      -2.481  17.140  79.737  0.00  0.00    +0.013 A 
ATOM     17  C   UNL     1      -2.914  15.780  79.937  0.00  0.00    +0.005 A 
ATOM     18  C   UNL     1      -3.196  15.310  81.291  0.00  0.00    -0.033 A 
ATOM     28  C   UNL     1      -3.032  16.221  82.411  0.00  0.00    +0.005 A 
ATOM     29  C   UNL     1      -2.609  17.555  82.220  0.00  0.00    +0.013 A 
BRANCH  18  19
ATOM     19  C   UNL     1      -3.683  13.880  81.596  0.00  0.00    +0.119 C 
BRANCH  19  20
ATOM     20  N   UNL     1      -3.895  12.968  80.433  0.00  0.00    -0.302 NA
ATOM     21  C   UNL     1      -5.189  12.160  80.566  0.00  0.00    +0.066 C 
ATOM     22  C   UNL     1      -5.407  11.227  79.330  0.00  0.00    -0.064 C 
ATOM     23  N   UNL     1      -4.201  10.299  79.176  0.00  0.00    +0.379 N 
ATOM     24  C   UNL     1      -4.429   9.382  78.050  0.00  0.00    -0.096 C 
ATOM     25  H   UNL     1      -4.127   9.684  80.103  0.00  0.00    -0.082 HD
ATOM     26  C   UNL     1      -2.911  11.095  79.045  0.00  0.00    -0.064 C 
ATOM     27  C   UNL     1      -2.718  12.039  80.265  0.00  0.00    +0.066 C 
ENDBRANCH  19  20
ENDBRANCH  18  19
ENDBRANCH  14  15
ENDBRANCH  12  13
TORSDOF 6
ENDMDL
MODEL 5
REMARK VINA RESULT:      -7.5     24.785     27.428
REMARK  Name = C:\Users\Docking\Desktop\test protocol\1iep_ligandH.pdb
REMARK  8 active torsions:
REMARK  status: ('A' for Active; 'I' for Inactive)
REMARK    1  A    between atoms: _5  and  _11
REMARK    2  A    between atoms: _19  and  _21
REMARK    3  A    between atoms: _22  and  _66
REMARK    4  A    between atoms: _27  and  _30
REMARK    5  A    between atoms: _32  and  _33
REMARK    6  A    between atoms: _38  and  _43
REMARK    7  A    between atoms: _43  and  _46
REMARK    8  A    between atoms: _53  and  _55
REMARK                            x       y       z     vdW  Elec       q    Type
REMARK                         _______ _______ _______ _____ _____    ______ ____
ROOT
ATOM     10  C   UNL     1      -6.403  33.389  78.868  0.00  0.00    +0.038 A 
ATOM     11  C   UNL     1      -5.785  32.127  79.058  0.00  0.00    +0.047 A 
ATOM     12  C   UNL     1      -6.095  30.999  78.194  0.00  0.00    +0.035 A 
ATOM     32  C   UNL     1      -7.038  31.193  77.143  0.00  0.00    +0.024 A 
ATOM     33  C   UNL     1      -7.677  32.469  76.936  0.00  0.00    +0.007 A 
ATOM     34  C   UNL     1      -7.377  33.584  77.787  0.00  0.00    -0.029 A 
ATOM     35  C   UNL     1      -8.096  34.927  77.523  0.00  0.00    +0.045 C 
ENDROOT
BRANCH  10   9
ATOM      4  C   UNL     1      -3.486  36.923  80.298  0.00  0.00    +0.077 A 
ATOM      5  C   UNL     1      -2.537  36.639  79.260  0.00  0.00    +0.048 A 
ATOM      6  C   UNL     1      -2.833  35.571  78.384  0.00  0.00    +0.116 A 
ATOM      7  N   UNL     1      -3.995  34.847  78.542  0.00  0.00    -0.223 NA
ATOM      8  C   UNL     1      -4.889  35.146  79.555  0.00  0.00    +0.220 A 
ATOM      9  N   UNL     1      -6.067  34.437  79.728  0.00  0.00    -0.283 N 
ATOM     36  H   UNL     1      -6.697  34.684  80.491  0.00  0.00    +0.155 HD
ATOM     37  N   UNL     1      -4.628  36.161  80.405  0.00  0.00    -0.214 NA
BRANCH   4   3
ATOM      1  C   UNL     1      -3.641  40.395  82.093  0.00  0.00    +0.020 A 
ATOM      2  C   UNL     1      -3.832  39.369  81.093  0.00  0.00    +0.013 A 
ATOM      3  C   UNL     1      -3.316  38.022  81.300  0.00  0.00    +0.019 A 
ATOM     38  C   UNL     1      -2.607  37.742  82.539  0.00  0.00    +0.120 A 
ATOM     39  N   UNL     1      -2.437  38.750  83.483  0.00  0.00    -0.263 NA
ATOM     40  C   UNL     1      -2.927  40.051  83.294  0.00  0.00    +0.111 A 
ENDBRANCH   4   3
ENDBRANCH  10   9
BRANCH  12  13
ATOM     13  N   UNL     1      -5.505  29.692  78.343  0.00  0.00    -0.281 N 
ATOM     14  C   UNL     1      -4.173  29.337  78.203  0.00  0.00    +0.248 C 
ATOM     30  O   UNL     1      -3.314  30.057  77.714  0.00  0.00    -0.270 OA
ATOM     31  H   UNL     1      -6.147  28.936  78.582  0.00  0.00    +0.155 HD
BRANCH  14  15
ATOM     15  C   UNL     1      -3.735  27.983  78.657  0.00  0.00    +0.037 A 
ATOM     16  C   UNL     1      -3.039  27.065  77.750  0.00  0.00    +0.013 A 
ATOM     17  C   UNL     1      -2.642  25.758  78.209  0.00  0.00    +0.005 A 
ATOM     18  C   UNL     1      -2.939  25.360  79.583  0.00  0.00    -0.033 A 
ATOM     28  C   UNL     1      -3.625  26.292  80.463  0.00  0.00    +0.005 A 
ATOM     29  C   UNL     1      -4.017  27.574  80.016  0.00  0.00    +0.013 A 
BRANCH  18  19
ATOM     19  C   UNL     1      -2.571  23.977  80.152  0.00  0.00    +0.119 C 
BRANCH  19  20
ATOM     20  N   UNL     1      -3.222  22.786  79.528  0.00  0.00    -0.302 NA
ATOM     21  C   UNL     1      -4.122  22.039  80.516  0.00  0.00    +0.066 C 
ATOM     22  C   UNL     1      -4.812  20.810  79.841  0.00  0.00    -0.064 C 
ATOM     23  N   UNL     1      -3.742  19.877  79.271  0.00  0.00    +0.379 N 
ATOM     24  C   UNL     1      -4.385  18.692  78.687  0.00  0.00    -0.096 C 
ATOM     25  H   UNL     1      -3.107  19.533  80.120  0.00  0.00    -0.082 HD
ATOM     26  C   UNL     1      -2.841  20.613  78.289  0.00  0.00    -0.064 C 
ATOM     27  C   UNL     1      -2.183  21.849  78.962  0.00  0.00    +0.066 C 
ENDBRANCH  19  20
ENDBRANCH  18  19
ENDBRANCH  14  15
ENDBRANCH  12  13
TORSDOF 6
ENDMDL
