MODEL 1
REMARK VINA RESULT:      -8.0      0.000      0.000
REMARK  Name = C:\Users\Docking\Desktop\test protocol\1iep_ligandH.pdb
REMARK  8 active torsions:
REMARK  status: ('A' for Active; 'I' for Inactive)
REMARK    1  A    between atoms: _5  and  _11
REMARK    2  A    between atoms: _19  and  _21
REMARK    3  A    between atoms: _22  and  _66
REMARK    4  A    between atoms: _27  and  _30
REMARK    5  A    between atoms: _32  and  _33
REMARK    6  A    between atoms: _38  and  _43
REMARK    7  A    between atoms: _43  and  _46
REMARK    8  A    between atoms: _53  and  _55
REMARK                            x       y       z     vdW  Elec       q    Type
REMARK                         _______ _______ _______ _____ _____    ______ ____
ROOT
ATOM     10  C   UNL     1      18.891  -6.588  -5.520  0.00  0.00    +0.038 A 
ATOM     11  C   UNL     1      18.528  -7.813  -4.905  0.00  0.00    +0.047 A 
ATOM     12  C   UNL     1      19.482  -8.563  -4.102  0.00  0.00    +0.035 A 
ATOM     32  C   UNL     1      20.796  -8.034  -3.945  0.00  0.00    +0.024 A 
ATOM     33  C   UNL     1      21.182  -6.790  -4.565  0.00  0.00    +0.007 A 
ATOM     34  C   UNL     1      20.246  -6.047  -5.360  0.00  0.00    -0.029 A 
ATOM     35  C   UNL     1      20.716  -4.723  -6.005  0.00  0.00    +0.045 C 
ENDROOT
BRANCH  10   9
ATOM      4  C   UNL     1      15.389  -3.339  -5.997  0.00  0.00    +0.077 A 
ATOM      5  C   UNL     1      15.450  -2.983  -4.609  0.00  0.00    +0.048 A 
ATOM      6  C   UNL     1      16.392  -3.664  -3.805  0.00  0.00    +0.116 A 
ATOM      7  N   UNL     1      17.206  -4.628  -4.358  0.00  0.00    -0.223 NA
ATOM      8  C   UNL     1      17.120  -4.949  -5.701  0.00  0.00    +0.220 A 
ATOM      9  N   UNL     1      17.935  -5.909  -6.280  0.00  0.00    -0.283 N 
ATOM     36  H   UNL     1      17.836  -6.122  -7.272  0.00  0.00    +0.155 HD
ATOM     37  N   UNL     1      16.229  -4.314  -6.489  0.00  0.00    -0.214 NA
BRANCH   4   3
ATOM      1  C   UNL     1      13.817  -0.907  -8.626  0.00  0.00    +0.020 A 
ATOM      2  C   UNL     1      14.760  -1.476  -7.691  0.00  0.00    +0.013 A 
ATOM      3  C   UNL     1      14.449  -2.707  -6.975  0.00  0.00    +0.019 A 
ATOM     38  C   UNL     1      13.165  -3.342  -7.231  0.00  0.00    +0.120 A 
ATOM     39  N   UNL     1      12.276  -2.770  -8.136  0.00  0.00    -0.263 NA
ATOM     40  C   UNL     1      12.564  -1.585  -8.829  0.00  0.00    +0.111 A 
ENDBRANCH   4   3
ENDBRANCH  10   9
BRANCH  12  13
ATOM     13  N   UNL     1      19.173  -9.816  -3.460  0.00  0.00    -0.281 N 
ATOM     14  C   UNL     1      18.273 -10.048  -2.433  0.00  0.00    +0.248 C 
ATOM     30  O   UNL     1      17.749  -9.171  -1.762  0.00  0.00    -0.270 OA
ATOM     31  H   UNL     1      19.680 -10.632  -3.804  0.00  0.00    +0.155 HD
BRANCH  14  15
ATOM     15  C   UNL     1      17.914 -11.458  -2.092  0.00  0.00    +0.037 A 
ATOM     16  C   UNL     1      17.129 -12.286  -3.011  0.00  0.00    +0.013 A 
ATOM     17  C   UNL     1      16.782 -13.638  -2.650  0.00  0.00    +0.005 A 
ATOM     18  C   UNL     1      17.222 -14.171  -1.363  0.00  0.00    -0.033 A 
ATOM     28  C   UNL     1      18.004 -13.329  -0.472  0.00  0.00    +0.005 A 
ATOM     29  C   UNL     1      18.345 -12.004  -0.822  0.00  0.00    +0.013 A 
BRANCH  18  19
ATOM     19  C   UNL     1      16.879 -15.595  -0.886  0.00  0.00    +0.119 C 
BRANCH  19  20
ATOM     20  N   UNL     1      15.609 -16.197  -1.390  0.00  0.00    -0.302 NA
ATOM     21  C   UNL     1      14.382 -15.643  -0.661  0.00  0.00    +0.066 C 
ATOM     22  C   UNL     1      13.060 -16.267  -1.216  0.00  0.00    -0.064 C 
ATOM     23  N   UNL     1      13.125 -17.790  -1.086  0.00  0.00    +0.379 N 
ATOM     24  C   UNL     1      11.860 -18.376  -1.553  0.00  0.00    -0.096 C 
ATOM     25  H   UNL     1      13.231 -18.032  -0.003  0.00  0.00    -0.082 HD
ATOM     26  C   UNL     1      14.344 -18.350  -1.805  0.00  0.00    -0.064 C 
ATOM     27  C   UNL     1      15.650 -17.701  -1.267  0.00  0.00    +0.066 C 
ENDBRANCH  19  20
ENDBRANCH  18  19
ENDBRANCH  14  15
ENDBRANCH  12  13
TORSDOF 6
ENDMDL
MODEL 2
REMARK VINA RESULT:      -7.7     38.775     41.264
REMARK  Name = C:\Users\Docking\Desktop\test protocol\1iep_ligandH.pdb
REMARK  8 active torsions:
REMARK  status: ('A' for Active; 'I' for Inactive)
REMARK    1  A    between atoms: _5  and  _11
REMARK    2  A    between atoms: _19  and  _21
REMARK    3  A    between atoms: _22  and  _66
REMARK    4  A    between atoms: _27  and  _30
REMARK    5  A    between atoms: _32  and  _33
REMARK    6  A    between atoms: _38  and  _43
REMARK    7  A    between atoms: _43  and  _46
REMARK    8  A    between atoms: _53  and  _55
REMARK                            x       y       z     vdW  Elec       q    Type
REMARK                         _______ _______ _______ _____ _____    ______ ____
ROOT
ATOM     10  C   UNL     1      17.604  -7.297  36.612  0.00  0.00    +0.038 A 
ATOM     11  C   UNL     1      16.194  -7.153  36.574  0.00  0.00    +0.047 A 
ATOM     12  C   UNL     1      15.327  -8.038  37.336  0.00  0.00    +0.035 A 
ATOM     32  C   UNL     1      15.930  -9.057  38.129  0.00  0.00    +0.024 A 
ATOM     33  C   UNL     1      17.362  -9.218  38.179  0.00  0.00    +0.007 A 
ATOM     34  C   UNL     1      18.222  -8.350  37.427  0.00  0.00    -0.029 A 
ATOM     35  C   UNL     1      19.750  -8.572  37.513  0.00  0.00    +0.045 C 
ENDROOT
BRANCH  10   9
ATOM      4  C   UNL     1      19.835  -3.093  35.984  0.00  0.00    +0.077 A 
ATOM      5  C   UNL     1      19.376  -2.593  37.248  0.00  0.00    +0.048 A 
ATOM      6  C   UNL     1      18.561  -3.447  38.026  0.00  0.00    +0.116 A 
ATOM      7  N   UNL     1      18.238  -4.704  37.565  0.00  0.00    -0.223 NA
ATOM      8  C   UNL     1      18.696  -5.155  36.341  0.00  0.00    +0.220 A 
ATOM      9  N   UNL     1      18.389  -6.419  35.861  0.00  0.00    -0.283 N 
ATOM     36  H   UNL     1      18.741  -6.711  34.950  0.00  0.00    +0.155 HD
ATOM     37  N   UNL     1      19.474  -4.359  35.578  0.00  0.00    -0.214 NA
BRANCH   4   3
ATOM      1  C   UNL     1      21.108  -1.028  32.916  0.00  0.00    +0.020 A 
ATOM      2  C   UNL     1      20.226  -1.776  33.782  0.00  0.00    +0.013 A 
ATOM      3  C   UNL     1      20.705  -2.312  35.049  0.00  0.00    +0.019 A 
ATOM     38  C   UNL     1      22.093  -2.070  35.415  0.00  0.00    +0.120 A 
ATOM     39  N   UNL     1      22.919  -1.347  34.560  0.00  0.00    -0.263 NA
ATOM     40  C   UNL     1      22.469  -0.829  33.336  0.00  0.00    +0.111 A 
ENDBRANCH   4   3
ENDBRANCH  10   9
BRANCH  12  13
ATOM     13  N   UNL     1      13.888  -7.946  37.330  0.00  0.00    -0.281 N 
ATOM     14  C   UNL     1      13.070  -7.322  38.259  0.00  0.00    +0.248 C 
ATOM     30  O   UNL     1      13.443  -6.929  39.354  0.00  0.00    -0.270 OA
ATOM     31  H   UNL     1      13.414  -8.395  36.546  0.00  0.00    +0.155 HD
BRANCH  14  15
ATOM     15  C   UNL     1      11.627  -7.117  37.928  0.00  0.00    +0.037 A 
ATOM     16  C   UNL     1      11.024  -5.782  37.952  0.00  0.00    +0.013 A 
ATOM     17  C   UNL     1       9.626  -5.614  37.646  0.00  0.00    +0.005 A 
ATOM     18  C   UNL     1       8.821  -6.787  37.311  0.00  0.00    -0.033 A 
ATOM     28  C   UNL     1       9.445  -8.099  37.290  0.00  0.00    +0.005 A 
ATOM     29  C   UNL     1      10.816  -8.267  37.591  0.00  0.00    +0.013 A 
BRANCH  18  19
ATOM     19  C   UNL     1       7.316  -6.704  36.992  0.00  0.00    +0.119 C 
BRANCH  19  20
ATOM     20  N   UNL     1       6.699  -7.875  36.299  0.00  0.00    -0.302 NA
ATOM     21  C   UNL     1       6.624  -7.671  34.783  0.00  0.00    +0.066 C 
ATOM     22  C   UNL     1       5.996  -8.914  34.072  0.00  0.00    -0.064 C 
ATOM     23  N   UNL     1       4.607  -9.183  34.653  0.00  0.00    +0.379 N 
ATOM     24  C   UNL     1       3.991 -10.316  33.946  0.00  0.00    -0.096 C 
ATOM     25  H   UNL     1       3.980  -8.282  34.459  0.00  0.00    -0.082 HD
ATOM     26  C   UNL     1       4.672  -9.384  36.160  0.00  0.00    -0.064 C 
ATOM     27  C   UNL     1       5.324  -8.155  36.854  0.00  0.00    +0.066 C 
ENDBRANCH  19  20
ENDBRANCH  18  19
ENDBRANCH  14  15
ENDBRANCH  12  13
TORSDOF 6
ENDMDL
MODEL 3
REMARK VINA RESULT:      -7.5      2.308     12.389
REMARK  Name = C:\Users\Docking\Desktop\test protocol\1iep_ligandH.pdb
REMARK  8 active torsions:
REMARK  status: ('A' for Active; 'I' for Inactive)
REMARK    1  A    between atoms: _5  and  _11
REMARK    2  A    between atoms: _19  and  _21
REMARK    3  A    between atoms: _22  and  _66
REMARK    4  A    between atoms: _27  and  _30
REMARK    5  A    between atoms: _32  and  _33
REMARK    6  A    between atoms: _38  and  _43
REMARK    7  A    between atoms: _43  and  _46
REMARK    8  A    between atoms: _53  and  _55
REMARK                            x       y       z     vdW  Elec       q    Type
REMARK                         _______ _______ _______ _____ _____    ______ ____
ROOT
ATOM     10  C   UNL     1      17.000 -15.603  -1.287  0.00  0.00    +0.038 A 
ATOM     11  C   UNL     1      17.140 -14.291  -1.808  0.00  0.00    +0.047 A 
ATOM     12  C   UNL     1      17.751 -13.231  -1.022  0.00  0.00    +0.035 A 
ATOM     32  C   UNL     1      18.211 -13.543   0.291  0.00  0.00    +0.024 A 
ATOM     33  C   UNL     1      18.074 -14.871   0.837  0.00  0.00    +0.007 A 
ATOM     34  C   UNL     1      17.470 -15.920   0.066  0.00  0.00    -0.029 A 
ATOM     35  C   UNL     1      17.345 -17.323   0.704  0.00  0.00    +0.045 C 
ENDROOT
BRANCH  10   9
ATOM      4  C   UNL     1      13.153 -17.754  -3.190  0.00  0.00    +0.077 A 
ATOM      5  C   UNL     1      12.250 -16.867  -2.515  0.00  0.00    +0.048 A 
ATOM      6  C   UNL     1      12.815 -15.876  -1.681  0.00  0.00    +0.116 A 
ATOM      7  N   UNL     1      14.183 -15.787  -1.541  0.00  0.00    -0.223 NA
ATOM      8  C   UNL     1      15.026 -16.659  -2.206  0.00  0.00    +0.220 A 
ATOM      9  N   UNL     1      16.405 -16.583  -2.086  0.00  0.00    -0.283 N 
ATOM     36  H   UNL     1      16.993 -17.249  -2.587  0.00  0.00    +0.155 HD
ATOM     37  N   UNL     1      14.511 -17.615  -3.007  0.00  0.00    -0.214 NA
BRANCH   4   3
ATOM      1  C   UNL     1      10.955 -20.069  -5.450  0.00  0.00    +0.020 A 
ATOM      2  C   UNL     1      11.332 -18.992  -4.564  0.00  0.00    +0.013 A 
ATOM      3  C   UNL     1      12.709 -18.850  -4.108  0.00  0.00    +0.019 A 
ATOM     38  C   UNL     1      13.688 -19.821  -4.572  0.00  0.00    +0.120 A 
ATOM     39  N   UNL     1      13.296 -20.848  -5.425  0.00  0.00    -0.263 NA
ATOM     40  C   UNL     1      11.973 -20.996  -5.868  0.00  0.00    +0.111 A 
ENDBRANCH   4   3
ENDBRANCH  10   9
BRANCH  12  13
ATOM     13  N   UNL     1      17.914 -11.879  -1.494  0.00  0.00    -0.281 N 
ATOM     14  C   UNL     1      18.807 -11.410  -2.444  0.00  0.00    +0.248 C 
ATOM     30  O   UNL     1      19.753 -12.050  -2.878  0.00  0.00    -0.270 OA
ATOM     31  H   UNL     1      17.295 -11.182  -1.078  0.00  0.00    +0.155 HD
BRANCH  14  15
ATOM     15  C   UNL     1      18.633 -10.024  -2.977  0.00  0.00    +0.037 A 
ATOM     16  C   UNL     1      18.810  -9.731  -4.401  0.00  0.00    +0.013 A 
ATOM     17  C   UNL     1      18.653  -8.382  -4.887  0.00  0.00    +0.005 A 
ATOM     18  C   UNL     1      18.316  -7.317  -3.945  0.00  0.00    -0.033 A 
ATOM     28  C   UNL     1      18.142  -7.638  -2.538  0.00  0.00    +0.005 A 
ATOM     29  C   UNL     1      18.296  -8.958  -2.059  0.00  0.00    +0.013 A 
BRANCH  18  19
ATOM     19  C   UNL     1      18.150  -5.846  -4.371  0.00  0.00    +0.119 C 
BRANCH  19  20
ATOM     20  N   UNL     1      17.626  -5.587  -5.745  0.00  0.00    -0.302 NA
ATOM     21  C   UNL     1      18.748  -5.267  -6.737  0.00  0.00    +0.066 C 
ATOM     22  C   UNL     1      18.184  -5.021  -8.174  0.00  0.00    -0.064 C 
ATOM     23  N   UNL     1      17.160  -3.886  -8.130  0.00  0.00    +0.379 N 
ATOM     24  C   UNL     1      16.671  -3.613  -9.489  0.00  0.00    -0.096 C 
ATOM     25  H   UNL     1      17.686  -2.971  -7.769  0.00  0.00    -0.082 HD
ATOM     26  C   UNL     1      16.042  -4.195  -7.144  0.00  0.00    -0.064 C 
ATOM     27  C   UNL     1      16.616  -4.467  -5.725  0.00  0.00    +0.066 C 
ENDBRANCH  19  20
ENDBRANCH  18  19
ENDBRANCH  14  15
ENDBRANCH  12  13
TORSDOF 6
ENDMDL
MODEL 4
REMARK VINA RESULT:      -7.5      3.926      7.572
REMARK  Name = C:\Users\Docking\Desktop\test protocol\1iep_ligandH.pdb
REMARK  8 active torsions:
REMARK  status: ('A' for Active; 'I' for Inactive)
REMARK    1  A    between atoms: _5  and  _11
REMARK    2  A    between atoms: _19  and  _21
REMARK    3  A    between atoms: _22  and  _66
REMARK    4  A    between atoms: _27  and  _30
REMARK    5  A    between atoms: _32  and  _33
REMARK    6  A    between atoms: _38  and  _43
REMARK    7  A    between atoms: _43  and  _46
REMARK    8  A    between atoms: _53  and  _55
REMARK                            x       y       z     vdW  Elec       q    Type
REMARK                         _______ _______ _______ _____ _____    ______ ____
ROOT
ATOM     10  C   UNL     1      18.114 -12.846  -2.400  0.00  0.00    +0.038 A 
ATOM     11  C   UNL     1      16.830 -13.403  -2.630  0.00  0.00    +0.047 A 
ATOM     12  C   UNL     1      16.298 -14.448  -1.769  0.00  0.00    +0.035 A 
ATOM     32  C   UNL     1      17.100 -14.901  -0.682  0.00  0.00    +0.024 A 
ATOM     33  C   UNL     1      18.408 -14.347  -0.434  0.00  0.00    +0.007 A 
ATOM     34  C   UNL     1      18.939 -13.317  -1.281  0.00  0.00    -0.029 A 
ATOM     35  C   UNL     1      20.349 -12.763  -0.972  0.00  0.00    +0.045 C 
ENDROOT
BRANCH  10   9
ATOM      4  C   UNL     1      18.576  -8.239  -3.665  0.00  0.00    +0.077 A 
ATOM      5  C   UNL     1      17.812  -7.791  -2.536  0.00  0.00    +0.048 A 
ATOM      6  C   UNL     1      17.312  -8.778  -1.658  0.00  0.00    +0.116 A 
ATOM      7  N   UNL     1      17.563 -10.111  -1.900  0.00  0.00    -0.223 NA
ATOM      8  C   UNL     1      18.303 -10.510  -2.999  0.00  0.00    +0.220 A 
ATOM      9  N   UNL     1      18.575 -11.844  -3.257  0.00  0.00    -0.283 N 
ATOM     36  H   UNL     1      19.118 -12.098  -4.082  0.00  0.00    +0.155 HD
ATOM     37  N   UNL     1      18.790  -9.586  -3.853  0.00  0.00    -0.214 NA
BRANCH   4   3
ATOM      1  C   UNL     1      19.079  -5.979  -6.817  0.00  0.00    +0.020 A 
ATOM      2  C   UNL     1      18.455  -6.871  -5.867  0.00  0.00    +0.013 A 
ATOM      3  C   UNL     1      19.175  -7.316  -4.680  0.00  0.00    +0.019 A 
ATOM     38  C   UNL     1      20.534  -6.836  -4.482  0.00  0.00    +0.120 A 
ATOM     39  N   UNL     1      21.109  -5.978  -5.415  0.00  0.00    -0.263 NA
ATOM     40  C   UNL     1      20.427  -5.544  -6.562  0.00  0.00    +0.111 A 
ENDBRANCH   4   3
ENDBRANCH  10   9
BRANCH  12  13
ATOM     13  N   UNL     1      15.005 -15.057  -1.959  0.00  0.00    -0.281 N 
ATOM     14  C   UNL     1      14.723 -16.378  -2.269  0.00  0.00    +0.248 C 
ATOM     30  O   UNL     1      15.553 -17.193  -2.642  0.00  0.00    -0.270 OA
ATOM     31  H   UNL     1      14.200 -14.440  -1.851  0.00  0.00    +0.155 HD
BRANCH  14  15
ATOM     15  C   UNL     1      13.312 -16.859  -2.162  0.00  0.00    +0.037 A 
ATOM     16  C   UNL     1      12.189 -16.019  -2.587  0.00  0.00    +0.013 A 
ATOM     17  C   UNL     1      10.836 -16.501  -2.457  0.00  0.00    +0.005 A 
ATOM     18  C   UNL     1      10.600 -17.831  -1.902  0.00  0.00    -0.033 A 
ATOM     28  C   UNL     1      11.732 -18.645  -1.493  0.00  0.00    +0.005 A 
ATOM     29  C   UNL     1      13.059 -18.176  -1.618  0.00  0.00    +0.013 A 
BRANCH  18  19
ATOM     19  C   UNL     1       9.189 -18.417  -1.707  0.00  0.00    +0.119 C 
BRANCH  19  20
ATOM     20  N   UNL     1       8.037 -17.471  -1.792  0.00  0.00    -0.302 NA
ATOM     21  C   UNL     1       7.749 -16.795  -0.449  0.00  0.00    +0.066 C 
ATOM     22  C   UNL     1       6.555 -15.791  -0.561  0.00  0.00    -0.064 C 
ATOM     23  N   UNL     1       5.317 -16.530  -1.073  0.00  0.00    +0.379 N 
ATOM     24  C   UNL     1       4.178 -15.602  -1.124  0.00  0.00    -0.096 C 
ATOM     25  H   UNL     1       5.071 -17.327  -0.334  0.00  0.00    -0.082 HD
ATOM     26  C   UNL     1       5.596 -17.207  -2.407  0.00  0.00    -0.064 C 
ATOM     27  C   UNL     1       6.803 -18.180  -2.291  0.00  0.00    +0.066 C 
ENDBRANCH  19  20
ENDBRANCH  18  19
ENDBRANCH  14  15
ENDBRANCH  12  13
TORSDOF 6
ENDMDL
MODEL 5
REMARK VINA RESULT:      -7.4      2.905      3.809
REMARK  Name = C:\Users\Docking\Desktop\test protocol\1iep_ligandH.pdb
REMARK  8 active torsions:
REMARK  status: ('A' for Active; 'I' for Inactive)
REMARK    1  A    between atoms: _5  and  _11
REMARK    2  A    between atoms: _19  and  _21
REMARK    3  A    between atoms: _22  and  _66
REMARK    4  A    between atoms: _27  and  _30
REMARK    5  A    between atoms: _32  and  _33
REMARK    6  A    between atoms: _38  and  _43
REMARK    7  A    between atoms: _43  and  _46
REMARK    8  A    between atoms: _53  and  _55
REMARK                            x       y       z     vdW  Elec       q    Type
REMARK                         _______ _______ _______ _____ _____    ______ ____
ROOT
ATOM     10  C   UNL     1      18.616  -5.931  -5.955  0.00  0.00    +0.038 A 
ATOM     11  C   UNL     1      18.471  -6.913  -4.941  0.00  0.00    +0.047 A 
ATOM     12  C   UNL     1      19.623  -7.417  -4.211  0.00  0.00    +0.035 A 
ATOM     32  C   UNL     1      20.910  -6.898  -4.538  0.00  0.00    +0.024 A 
ATOM     33  C   UNL     1      21.076  -5.901  -5.566  0.00  0.00    +0.007 A 
ATOM     34  C   UNL     1      19.943  -5.402  -6.291  0.00  0.00    -0.029 A 
ATOM     35  C   UNL     1      20.181  -4.338  -7.388  0.00  0.00    +0.045 C 
ENDROOT
BRANCH  10   9
ATOM      4  C   UNL     1      14.628  -3.272  -6.205  0.00  0.00    +0.077 A 
ATOM      5  C   UNL     1      14.819  -2.754  -4.881  0.00  0.00    +0.048 A 
ATOM      6  C   UNL     1      15.953  -3.203  -4.167  0.00  0.00    +0.116 A 
ATOM      7  N   UNL     1      16.823  -4.102  -4.743  0.00  0.00    -0.223 NA
ATOM      8  C   UNL     1      16.609  -4.583  -6.021  0.00  0.00    +0.220 A 
ATOM      9  N   UNL     1      17.475  -5.482  -6.623  0.00  0.00    -0.283 N 
ATOM     36  H   UNL     1      17.278  -5.820  -7.565  0.00  0.00    +0.155 HD
ATOM     37  N   UNL     1      15.533  -4.172  -6.724  0.00  0.00    -0.214 NA
BRANCH   4   3
ATOM      1  C   UNL     1      11.670  -1.304  -7.841  0.00  0.00    +0.020 A 
ATOM      2  C   UNL     1      12.772  -1.624  -6.963  0.00  0.00    +0.013 A 
ATOM      3  C   UNL     1      13.480  -2.891  -7.088  0.00  0.00    +0.019 A 
ATOM     38  C   UNL     1      13.045  -3.821  -8.119  0.00  0.00    +0.120 A 
ATOM     39  N   UNL     1      11.979  -3.487  -8.949  0.00  0.00    -0.263 NA
ATOM     40  C   UNL     1      11.289  -2.271  -8.837  0.00  0.00    +0.111 A 
ENDBRANCH   4   3
ENDBRANCH  10   9
BRANCH  12  13
ATOM     13  N   UNL     1      19.538  -8.419  -3.177  0.00  0.00    -0.281 N 
ATOM     14  C   UNL     1      18.463  -8.699  -2.349  0.00  0.00    +0.248 C 
ATOM     30  O   UNL     1      17.479  -7.984  -2.228  0.00  0.00    -0.270 OA
ATOM     31  H   UNL     1      20.371  -8.991  -3.038  0.00  0.00    +0.155 HD
BRANCH  14  15
ATOM     15  C   UNL     1      18.491  -9.946  -1.527  0.00  0.00    +0.037 A 
ATOM     16  C   UNL     1      19.125  -9.972  -0.206  0.00  0.00    +0.013 A 
ATOM     17  C   UNL     1      19.153 -11.193   0.559  0.00  0.00    +0.005 A 
ATOM     18  C   UNL     1      18.543 -12.399   0.006  0.00  0.00    -0.033 A 
ATOM     28  C   UNL     1      17.916 -12.345  -1.305  0.00  0.00    +0.005 A 
ATOM     29  C   UNL     1      17.888 -11.150  -2.058  0.00  0.00    +0.013 A 
BRANCH  18  19
ATOM     19  C   UNL     1      18.545 -13.751   0.743  0.00  0.00    +0.119 C 
BRANCH  19  20
ATOM     20  N   UNL     1      19.758 -14.609   0.595  0.00  0.00    -0.302 NA
ATOM     21  C   UNL     1      19.397 -16.081   0.375  0.00  0.00    +0.066 C 
ATOM     22  C   UNL     1      20.678 -16.961   0.199  0.00  0.00    -0.064 C 
ATOM     23  N   UNL     1      21.575 -16.801   1.428  0.00  0.00    +0.379 N 
ATOM     24  C   UNL     1      22.752 -17.672   1.292  0.00  0.00    -0.096 C 
ATOM     25  H   UNL     1      20.998 -17.149   2.316  0.00  0.00    -0.082 HD
ATOM     26  C   UNL     1      21.937 -15.340   1.655  0.00  0.00    -0.064 C 
ATOM     27  C   UNL     1      20.657 -14.470   1.799  0.00  0.00    +0.066 C 
ENDBRANCH  19  20
ENDBRANCH  18  19
ENDBRANCH  14  15
ENDBRANCH  12  13
TORSDOF 6
ENDMDL
