MODEL 1
REMARK VINA RESULT:      -9.9      0.000      0.000
REMARK  Name = C:\Users\Docking\Desktop\test protocol\1iep_ligandH.pdb
REMARK  8 active torsions:
REMARK  status: ('A' for Active; 'I' for Inactive)
REMARK    1  A    between atoms: _5  and  _11
REMARK    2  A    between atoms: _19  and  _21
REMARK    3  A    between atoms: _22  and  _66
REMARK    4  A    between atoms: _27  and  _30
REMARK    5  A    between atoms: _32  and  _33
REMARK    6  A    between atoms: _38  and  _43
REMARK    7  A    between atoms: _43  and  _46
REMARK    8  A    between atoms: _53  and  _55
REMARK                            x       y       z     vdW  Elec       q    Type
REMARK                         _______ _______ _______ _____ _____    ______ ____
ROOT
ATOM     10  C   UNL     1      15.377 -20.226  -7.949  0.00  0.00    +0.038 A 
ATOM     11  C   UNL     1      16.518 -19.423  -7.695  0.00  0.00    +0.047 A 
ATOM     12  C   UNL     1      17.834 -19.810  -8.180  0.00  0.00    +0.035 A 
ATOM     32  C   UNL     1      17.950 -21.021  -8.923  0.00  0.00    +0.024 A 
ATOM     33  C   UNL     1      16.801 -21.849  -9.190  0.00  0.00    +0.007 A 
ATOM     34  C   UNL     1      15.501 -21.474  -8.712  0.00  0.00    -0.029 A 
ATOM     35  C   UNL     1      14.305 -22.404  -9.022  0.00  0.00    +0.045 C 
ENDROOT
BRANCH  10   9
ATOM      4  C   UNL     1      12.035 -20.014  -4.510  0.00  0.00    +0.077 A 
ATOM      5  C   UNL     1      12.812 -20.831  -3.623  0.00  0.00    +0.048 A 
ATOM      6  C   UNL     1      14.062 -21.291  -4.093  0.00  0.00    +0.116 A 
ATOM      7  N   UNL     1      14.494 -20.953  -5.357  0.00  0.00    -0.223 NA
ATOM      8  C   UNL     1      13.720 -20.165  -6.188  0.00  0.00    +0.220 A 
ATOM      9  N   UNL     1      14.138 -19.806  -7.460  0.00  0.00    -0.283 N 
ATOM     36  H   UNL     1      13.534 -19.229  -8.045  0.00  0.00    +0.155 HD
ATOM     37  N   UNL     1      12.521 -19.714  -5.763  0.00  0.00    -0.214 NA
BRANCH   4   3
ATOM      1  C   UNL     1       8.241 -19.067  -4.604  0.00  0.00    +0.020 A 
ATOM      2  C   UNL     1       9.512 -19.634  -4.990  0.00  0.00    +0.013 A 
ATOM      3  C   UNL     1      10.694 -19.448  -4.158  0.00  0.00    +0.019 A 
ATOM     38  C   UNL     1      10.555 -18.679  -2.931  0.00  0.00    +0.120 A 
ATOM     39  N   UNL     1       9.318 -18.144  -2.585  0.00  0.00    -0.263 NA
ATOM     40  C   UNL     1       8.174 -18.314  -3.379  0.00  0.00    +0.111 A 
ENDBRANCH   4   3
ENDBRANCH  10   9
BRANCH  12  13
ATOM     13  N   UNL     1      19.030 -19.039  -7.946  0.00  0.00    -0.281 N 
ATOM     14  C   UNL     1      19.671 -18.175  -8.819  0.00  0.00    +0.248 C 
ATOM     30  O   UNL     1      19.430 -18.097 -10.014  0.00  0.00    -0.270 OA
ATOM     31  H   UNL     1      19.456 -19.143  -7.025  0.00  0.00    +0.155 HD
BRANCH  14  15
ATOM     15  C   UNL     1      20.743 -17.279  -8.290  0.00  0.00    +0.037 A 
ATOM     16  C   UNL     1      20.471 -15.875  -7.970  0.00  0.00    +0.013 A 
ATOM     17  C   UNL     1      21.528 -15.028  -7.477  0.00  0.00    +0.005 A 
ATOM     18  C   UNL     1      22.868 -15.583  -7.300  0.00  0.00    -0.033 A 
ATOM     28  C   UNL     1      23.108 -16.981  -7.620  0.00  0.00    +0.005 A 
ATOM     29  C   UNL     1      22.075 -17.814  -8.104  0.00  0.00    +0.013 A 
BRANCH  18  19
ATOM     19  C   UNL     1      24.060 -14.747  -6.800  0.00  0.00    +0.119 C 
BRANCH  19  20
ATOM     20  N   UNL     1      25.377 -15.441  -6.674  0.00  0.00    -0.302 NA
ATOM     21  C   UNL     1      25.962 -15.312  -5.265  0.00  0.00    +0.066 C 
ATOM     22  C   UNL     1      27.328 -16.063  -5.145  0.00  0.00    -0.064 C 
ATOM     23  N   UNL     1      28.302 -15.512  -6.188  0.00  0.00    +0.379 N 
ATOM     24  C   UNL     1      29.606 -16.175  -6.040  0.00  0.00    -0.096 C 
ATOM     25  H   UNL     1      28.448 -14.427  -5.975  0.00  0.00    -0.082 HD
ATOM     26  C   UNL     1      27.727 -15.633  -7.592  0.00  0.00    -0.064 C 
ATOM     27  C   UNL     1      26.356 -14.909  -7.692  0.00  0.00    +0.066 C 
ENDBRANCH  19  20
ENDBRANCH  18  19
ENDBRANCH  14  15
ENDBRANCH  12  13
TORSDOF 6
ENDMDL
MODEL 2
REMARK VINA RESULT:      -9.3      5.692      8.624
REMARK  Name = C:\Users\Docking\Desktop\test protocol\1iep_ligandH.pdb
REMARK  8 active torsions:
REMARK  status: ('A' for Active; 'I' for Inactive)
REMARK    1  A    between atoms: _5  and  _11
REMARK    2  A    between atoms: _19  and  _21
REMARK    3  A    between atoms: _22  and  _66
REMARK    4  A    between atoms: _27  and  _30
REMARK    5  A    between atoms: _32  and  _33
REMARK    6  A    between atoms: _38  and  _43
REMARK    7  A    between atoms: _43  and  _46
REMARK    8  A    between atoms: _53  and  _55
REMARK                            x       y       z     vdW  Elec       q    Type
REMARK                         _______ _______ _______ _____ _____    ______ ____
ROOT
ATOM     10  C   UNL     1      21.180 -17.981  -7.728  0.00  0.00    +0.038 A 
ATOM     11  C   UNL     1      22.539 -17.594  -7.851  0.00  0.00    +0.047 A 
ATOM     12  C   UNL     1      22.957 -16.224  -7.596  0.00  0.00    +0.035 A 
ATOM     32  C   UNL     1      21.965 -15.274  -7.216  0.00  0.00    +0.024 A 
ATOM     33  C   UNL     1      20.579 -15.650  -7.088  0.00  0.00    +0.007 A 
ATOM     34  C   UNL     1      20.160 -16.999  -7.340  0.00  0.00    -0.029 A 
ATOM     35  C   UNL     1      18.659 -17.344  -7.193  0.00  0.00    +0.045 C 
ENDROOT
BRANCH  10   9
ATOM      4  C   UNL     1      19.521 -21.443 -10.608  0.00  0.00    +0.077 A 
ATOM      5  C   UNL     1      19.300 -20.522 -11.686  0.00  0.00    +0.048 A 
ATOM      6  C   UNL     1      19.619 -19.165 -11.456  0.00  0.00    +0.116 A 
ATOM      7  N   UNL     1      20.122 -18.770 -10.235  0.00  0.00    -0.223 NA
ATOM      8  C   UNL     1      20.322 -19.684  -9.216  0.00  0.00    +0.220 A 
ATOM      9  N   UNL     1      20.834 -19.310  -7.984  0.00  0.00    -0.283 N 
ATOM     36  H   UNL     1      20.960 -20.012  -7.256  0.00  0.00    +0.155 HD
ATOM     37  N   UNL     1      20.023 -20.985  -9.411  0.00  0.00    -0.214 NA
BRANCH   4   3
ATOM      1  C   UNL     1      18.079 -25.015  -9.927  0.00  0.00    +0.020 A 
ATOM      2  C   UNL     1      18.319 -23.596  -9.797  0.00  0.00    +0.013 A 
ATOM      3  C   UNL     1      19.236 -22.910 -10.699  0.00  0.00    +0.019 A 
ATOM     38  C   UNL     1      19.897 -23.695 -11.731  0.00  0.00    +0.120 A 
ATOM     39  N   UNL     1      19.647 -25.060 -11.831  0.00  0.00    -0.263 NA
ATOM     40  C   UNL     1      18.768 -25.731 -10.968  0.00  0.00    +0.111 A 
ENDBRANCH   4   3
ENDBRANCH  10   9
BRANCH  12  13
ATOM     13  N   UNL     1      24.321 -15.771  -7.713  0.00  0.00    -0.281 N 
ATOM     14  C   UNL     1      25.403 -16.114  -6.919  0.00  0.00    +0.248 C 
ATOM     30  O   UNL     1      25.318 -16.701  -5.850  0.00  0.00    -0.270 OA
ATOM     31  H   UNL     1      24.512 -15.118  -8.473  0.00  0.00    +0.155 HD
BRANCH  14  15
ATOM     15  C   UNL     1      26.777 -15.738  -7.370  0.00  0.00    +0.037 A 
ATOM     16  C   UNL     1      27.051 -14.425  -7.961  0.00  0.00    +0.013 A 
ATOM     17  C   UNL     1      28.382 -14.095  -8.403  0.00  0.00    +0.005 A 
ATOM     18  C   UNL     1      29.452 -15.079  -8.254  0.00  0.00    -0.033 A 
ATOM     28  C   UNL     1      29.154 -16.371  -7.660  0.00  0.00    +0.005 A 
ATOM     29  C   UNL     1      27.850 -16.700  -7.226  0.00  0.00    +0.013 A 
BRANCH  18  19
ATOM     19  C   UNL     1      30.897 -14.820  -8.718  0.00  0.00    +0.119 C 
BRANCH  19  20
ATOM     20  N   UNL     1      31.088 -14.301 -10.105  0.00  0.00    -0.302 NA
ATOM     21  C   UNL     1      31.880 -15.278 -10.980  0.00  0.00    +0.066 C 
ATOM     22  C   UNL     1      32.051 -14.730 -12.434  0.00  0.00    -0.064 C 
ATOM     23  N   UNL     1      32.741 -13.365 -12.384  0.00  0.00    +0.379 N 
ATOM     24  C   UNL     1      32.955 -12.873 -13.753  0.00  0.00    -0.096 C 
ATOM     25  H   UNL     1      33.742 -13.510 -11.916  0.00  0.00    -0.082 HD
ATOM     26  C   UNL     1      31.961 -12.389 -11.514  0.00  0.00    -0.064 C 
ATOM     27  C   UNL     1      31.772 -12.956 -10.080  0.00  0.00    +0.066 C 
ENDBRANCH  19  20
ENDBRANCH  18  19
ENDBRANCH  14  15
ENDBRANCH  12  13
TORSDOF 6
ENDMDL
MODEL 3
REMARK VINA RESULT:      -9.3      3.790      7.585
REMARK  Name = C:\Users\Docking\Desktop\test protocol\1iep_ligandH.pdb
REMARK  8 active torsions:
REMARK  status: ('A' for Active; 'I' for Inactive)
REMARK    1  A    between atoms: _5  and  _11
REMARK    2  A    between atoms: _19  and  _21
REMARK    3  A    between atoms: _22  and  _66
REMARK    4  A    between atoms: _27  and  _30
REMARK    5  A    between atoms: _32  and  _33
REMARK    6  A    between atoms: _38  and  _43
REMARK    7  A    between atoms: _43  and  _46
REMARK    8  A    between atoms: _53  and  _55
REMARK                            x       y       z     vdW  Elec       q    Type
REMARK                         _______ _______ _______ _____ _____    ______ ____
ROOT
ATOM     10  C   UNL     1       9.788 -17.830  -4.328  0.00  0.00    +0.038 A 
ATOM     11  C   UNL     1      11.124 -18.083  -4.732  0.00  0.00    +0.047 A 
ATOM     12  C   UNL     1      11.633 -19.441  -4.840  0.00  0.00    +0.035 A 
ATOM     32  C   UNL     1      10.753 -20.519  -4.530  0.00  0.00    +0.024 A 
ATOM     33  C   UNL     1       9.393 -20.280  -4.117  0.00  0.00    +0.007 A 
ATOM     34  C   UNL     1       8.886 -18.942  -4.007  0.00  0.00    -0.029 A 
ATOM     35  C   UNL     1       7.421 -18.745  -3.553  0.00  0.00    +0.045 C 
ENDROOT
BRANCH  10   9
ATOM      4  C   UNL     1       8.746 -13.871  -1.822  0.00  0.00    +0.077 A 
ATOM      5  C   UNL     1       9.074 -14.502  -0.576  0.00  0.00    +0.048 A 
ATOM      6  C   UNL     1       9.500 -15.849  -0.623  0.00  0.00    +0.116 A 
ATOM      7  N   UNL     1       9.588 -16.505  -1.831  0.00  0.00    -0.223 NA
ATOM      8  C   UNL     1       9.263 -15.868  -3.014  0.00  0.00    +0.220 A 
ATOM      9  N   UNL     1       9.352 -16.506  -4.242  0.00  0.00    -0.283 N 
ATOM     36  H   UNL     1       9.096 -16.003  -5.091  0.00  0.00    +0.155 HD
ATOM     37  N   UNL     1       8.852 -14.582  -2.996  0.00  0.00    -0.214 NA
BRANCH   4   3
ATOM      1  C   UNL     1       7.040 -10.430  -1.085  0.00  0.00    +0.020 A 
ATOM      2  C   UNL     1       7.458 -11.803  -0.926  0.00  0.00    +0.013 A 
ATOM      3  C   UNL     1       8.285 -12.452  -1.937  0.00  0.00    +0.019 A 
ATOM     38  C   UNL     1       8.674 -11.676  -3.105  0.00  0.00    +0.120 A 
ATOM     39  N   UNL     1       8.254 -10.355  -3.231  0.00  0.00    -0.263 NA
ATOM     40  C   UNL     1       7.457  -9.721  -2.266  0.00  0.00    +0.111 A 
ENDBRANCH   4   3
ENDBRANCH  10   9
BRANCH  12  13
ATOM     13  N   UNL     1      12.982 -19.759  -5.237  0.00  0.00    -0.281 N 
ATOM     14  C   UNL     1      13.403 -20.384  -6.400  0.00  0.00    +0.248 C 
ATOM     30  O   UNL     1      12.661 -20.960  -7.182  0.00  0.00    -0.270 OA
ATOM     31  H   UNL     1      13.717 -19.490  -4.582  0.00  0.00    +0.155 HD
BRANCH  14  15
ATOM     15  C   UNL     1      14.860 -20.382  -6.734  0.00  0.00    +0.037 A 
ATOM     16  C   UNL     1      15.874 -20.115  -5.711  0.00  0.00    +0.013 A 
ATOM     17  C   UNL     1      17.272 -20.102  -6.065  0.00  0.00    +0.005 A 
ATOM     18  C   UNL     1      17.663 -20.358  -7.449  0.00  0.00    -0.033 A 
ATOM     28  C   UNL     1      16.636 -20.625  -8.442  0.00  0.00    +0.005 A 
ATOM     29  C   UNL     1      15.265 -20.637  -8.100  0.00  0.00    +0.013 A 
BRANCH  18  19
ATOM     19  C   UNL     1      19.129 -20.343  -7.920  0.00  0.00    +0.119 C 
BRANCH  19  20
ATOM     20  N   UNL     1      19.929 -19.116  -7.627  0.00  0.00    -0.302 NA
ATOM     21  C   UNL     1      19.139 -17.835  -7.911  0.00  0.00    +0.066 C 
ATOM     22  C   UNL     1      19.983 -16.561  -7.578  0.00  0.00    -0.064 C 
ATOM     23  N   UNL     1      21.282 -16.587  -8.386  0.00  0.00    +0.379 N 
ATOM     24  C   UNL     1      22.050 -15.363  -8.118  0.00  0.00    -0.096 C 
ATOM     25  H   UNL     1      21.008 -16.586  -9.466  0.00  0.00    -0.082 HD
ATOM     26  C   UNL     1      22.071 -17.859  -8.111  0.00  0.00    -0.064 C 
ATOM     27  C   UNL     1      21.214 -19.119  -8.417  0.00  0.00    +0.066 C 
ENDBRANCH  19  20
ENDBRANCH  18  19
ENDBRANCH  14  15
ENDBRANCH  12  13
TORSDOF 6
ENDMDL
MODEL 4
REMARK VINA RESULT:      -9.3      2.100     12.327
REMARK  Name = C:\Users\Docking\Desktop\test protocol\1iep_ligandH.pdb
REMARK  8 active torsions:
REMARK  status: ('A' for Active; 'I' for Inactive)
REMARK    1  A    between atoms: _5  and  _11
REMARK    2  A    between atoms: _19  and  _21
REMARK    3  A    between atoms: _22  and  _66
REMARK    4  A    between atoms: _27  and  _30
REMARK    5  A    between atoms: _32  and  _33
REMARK    6  A    between atoms: _38  and  _43
REMARK    7  A    between atoms: _43  and  _46
REMARK    8  A    between atoms: _53  and  _55
REMARK                            x       y       z     vdW  Elec       q    Type
REMARK                         _______ _______ _______ _____ _____    ______ ____
ROOT
ATOM     10  C   UNL     1      19.645 -19.988  -8.661  0.00  0.00    +0.038 A 
ATOM     11  C   UNL     1      18.366 -19.899  -8.056  0.00  0.00    +0.047 A 
ATOM     12  C   UNL     1      17.186 -20.447  -8.705  0.00  0.00    +0.035 A 
ATOM     32  C   UNL     1      17.345 -21.083  -9.971  0.00  0.00    +0.024 A 
ATOM     33  C   UNL     1      18.638 -21.182 -10.602  0.00  0.00    +0.007 A 
ATOM     34  C   UNL     1      19.805 -20.640  -9.967  0.00  0.00    -0.029 A 
ATOM     35  C   UNL     1      21.165 -20.769 -10.692  0.00  0.00    +0.045 C 
ENDROOT
BRANCH  10   9
ATOM      4  C   UNL     1      22.343 -16.265  -7.283  0.00  0.00    +0.077 A 
ATOM      5  C   UNL     1      21.508 -15.327  -7.976  0.00  0.00    +0.048 A 
ATOM      6  C   UNL     1      20.397 -15.844  -8.681  0.00  0.00    +0.116 A 
ATOM      7  N   UNL     1      20.151 -17.200  -8.685  0.00  0.00    -0.223 NA
ATOM      8  C   UNL     1      20.978 -18.078  -8.008  0.00  0.00    +0.220 A 
ATOM      9  N   UNL     1      20.744 -19.444  -7.993  0.00  0.00    -0.283 N 
ATOM     36  H   UNL     1      21.382 -20.059  -7.488  0.00  0.00    +0.155 HD
ATOM     37  N   UNL     1      22.045 -17.609  -7.329  0.00  0.00    -0.214 NA
BRANCH   4   3
ATOM      1  C   UNL     1      25.667 -14.541  -6.152  0.00  0.00    +0.020 A 
ATOM      2  C   UNL     1      24.517 -14.885  -6.956  0.00  0.00    +0.013 A 
ATOM      3  C   UNL     1      23.552 -15.873  -6.491  0.00  0.00    +0.019 A 
ATOM     38  C   UNL     1      23.781 -16.499  -5.198  0.00  0.00    +0.120 A 
ATOM     39  N   UNL     1      24.899 -16.150  -4.447  0.00  0.00    -0.263 NA
ATOM     40  C   UNL     1      25.835 -15.201  -4.884  0.00  0.00    +0.111 A 
ENDBRANCH   4   3
ENDBRANCH  10   9
BRANCH  12  13
ATOM     13  N   UNL     1      15.860 -20.379  -8.143  0.00  0.00    -0.281 N 
ATOM     14  C   UNL     1      15.231 -21.308  -7.330  0.00  0.00    +0.248 C 
ATOM     30  O   UNL     1      15.636 -22.444  -7.137  0.00  0.00    -0.270 OA
ATOM     31  H   UNL     1      15.320 -19.544  -8.371  0.00  0.00    +0.155 HD
BRANCH  14  15
ATOM     15  C   UNL     1      13.960 -20.924  -6.644  0.00  0.00    +0.037 A 
ATOM     16  C   UNL     1      13.915 -19.809  -5.695  0.00  0.00    +0.013 A 
ATOM     17  C   UNL     1      12.680 -19.470  -5.034  0.00  0.00    +0.005 A 
ATOM     18  C   UNL     1      11.477 -20.248  -5.322  0.00  0.00    -0.033 A 
ATOM     28  C   UNL     1      11.548 -21.346  -6.272  0.00  0.00    +0.005 A 
ATOM     29  C   UNL     1      12.758 -21.681  -6.921  0.00  0.00    +0.013 A 
BRANCH  18  19
ATOM     19  C   UNL     1      10.121 -19.970  -4.647  0.00  0.00    +0.119 C 
BRANCH  19  20
ATOM     20  N   UNL     1      10.062 -18.845  -3.667  0.00  0.00    -0.302 NA
ATOM     21  C   UNL     1       9.416 -19.268  -2.345  0.00  0.00    +0.066 C 
ATOM     22  C   UNL     1       9.383 -18.085  -1.323  0.00  0.00    -0.064 C 
ATOM     23  N   UNL     1       8.631 -16.904  -1.940  0.00  0.00    +0.379 N 
ATOM     24  C   UNL     1       8.548 -15.810  -0.960  0.00  0.00    -0.096 C 
ATOM     25  H   UNL     1       7.592 -17.242  -2.159  0.00  0.00    -0.082 HD
ATOM     26  C   UNL     1       9.265 -16.478  -3.256  0.00  0.00    -0.064 C 
ATOM     27  C   UNL     1       9.320 -17.669  -4.254  0.00  0.00    +0.066 C 
ENDBRANCH  19  20
ENDBRANCH  18  19
ENDBRANCH  14  15
ENDBRANCH  12  13
TORSDOF 6
ENDMDL
MODEL 5
REMARK VINA RESULT:      -9.2      6.945     11.517
REMARK  Name = C:\Users\Docking\Desktop\test protocol\1iep_ligandH.pdb
REMARK  8 active torsions:
REMARK  status: ('A' for Active; 'I' for Inactive)
REMARK    1  A    between atoms: _5  and  _11
REMARK    2  A    between atoms: _19  and  _21
REMARK    3  A    between atoms: _22  and  _66
REMARK    4  A    between atoms: _27  and  _30
REMARK    5  A    between atoms: _32  and  _33
REMARK    6  A    between atoms: _38  and  _43
REMARK    7  A    between atoms: _43  and  _46
REMARK    8  A    between atoms: _53  and  _55
REMARK                            x       y       z     vdW  Elec       q    Type
REMARK                         _______ _______ _______ _____ _____    ______ ____
ROOT
ATOM     10  C   UNL     1      17.014 -22.362  -8.052  0.00  0.00    +0.038 A 
ATOM     11  C   UNL     1      17.596 -23.655  -8.052  0.00  0.00    +0.047 A 
ATOM     12  C   UNL     1      16.814 -24.832  -8.398  0.00  0.00    +0.035 A 
ATOM     32  C   UNL     1      15.442 -24.655  -8.742  0.00  0.00    +0.024 A 
ATOM     33  C   UNL     1      14.834 -23.348  -8.745  0.00  0.00    +0.007 A 
ATOM     34  C   UNL     1      15.599 -22.184  -8.403  0.00  0.00    -0.029 A 
ATOM     35  C   UNL     1      14.894 -20.808  -8.417  0.00  0.00    +0.045 C 
ENDROOT
BRANCH  10   9
ATOM      4  C   UNL     1      19.813 -18.640  -9.215  0.00  0.00    +0.077 A 
ATOM      5  C   UNL     1      19.700 -18.918 -10.618  0.00  0.00    +0.048 A 
ATOM      6  C   UNL     1      18.918 -20.031 -10.998  0.00  0.00    +0.116 A 
ATOM      7  N   UNL     1      18.299 -20.803 -10.038  0.00  0.00    -0.223 NA
ATOM      8  C   UNL     1      18.430 -20.509  -8.694  0.00  0.00    +0.220 A 
ATOM      9  N   UNL     1      17.811 -21.267  -7.712  0.00  0.00    -0.283 N 
ATOM     36  H   UNL     1      17.938 -21.021  -6.730  0.00  0.00    +0.155 HD
ATOM     37  N   UNL     1      19.173 -19.452  -8.305  0.00  0.00    -0.214 NA
BRANCH   4   3
ATOM      1  C   UNL     1      20.865 -15.080  -7.984  0.00  0.00    +0.020 A 
ATOM      2  C   UNL     1      20.062 -16.149  -8.531  0.00  0.00    +0.013 A 
ATOM      3  C   UNL     1      20.601 -17.497  -8.656  0.00  0.00    +0.019 A 
ATOM     38  C   UNL     1      21.968 -17.732  -8.214  0.00  0.00    +0.120 A 
ATOM     39  N   UNL     1      22.718 -16.682  -7.693  0.00  0.00    -0.263 NA
ATOM     40  C   UNL     1      22.210 -15.381  -7.569  0.00  0.00    +0.111 A 
ENDBRANCH   4   3
ENDBRANCH  10   9
BRANCH  12  13
ATOM     13  N   UNL     1      17.349 -26.171  -8.408  0.00  0.00    -0.281 N 
ATOM     14  C   UNL     1      18.159 -26.758  -9.367  0.00  0.00    +0.248 C 
ATOM     30  O   UNL     1      18.372 -26.286 -10.474  0.00  0.00    -0.270 OA
ATOM     31  H   UNL     1      17.101 -26.758  -7.611  0.00  0.00    +0.155 HD
BRANCH  14  15
ATOM     15  C   UNL     1      18.814 -28.065  -9.057  0.00  0.00    +0.037 A 
ATOM     16  C   UNL     1      19.698 -28.720 -10.025  0.00  0.00    +0.013 A 
ATOM     17  C   UNL     1      20.304 -29.989  -9.707  0.00  0.00    +0.005 A 
ATOM     18  C   UNL     1      20.029 -30.610  -8.414  0.00  0.00    -0.033 A 
ATOM     28  C   UNL     1      19.153 -29.935  -7.470  0.00  0.00    +0.005 A 
ATOM     29  C   UNL     1      18.556 -28.692  -7.778  0.00  0.00    +0.013 A 
BRANCH  18  19
ATOM     19  C   UNL     1      20.616 -31.972  -7.998  0.00  0.00    +0.119 C 
BRANCH  19  20
ATOM     20  N   UNL     1      22.048 -32.000  -7.575  0.00  0.00    -0.302 NA
ATOM     21  C   UNL     1      22.319 -31.049  -6.406  0.00  0.00    +0.066 C 
ATOM     22  C   UNL     1      23.817 -31.107  -5.961  0.00  0.00    -0.064 C 
ATOM     23  N   UNL     1      24.714 -30.769  -7.153  0.00  0.00    +0.379 N 
ATOM     24  C   UNL     1      26.120 -30.766  -6.724  0.00  0.00    -0.096 C 
ATOM     25  H   UNL     1      24.459 -29.736  -7.485  0.00  0.00    -0.082 HD
ATOM     26  C   UNL     1      24.448 -31.708  -8.322  0.00  0.00    -0.064 C 
ATOM     27  C   UNL     1      22.951 -31.664  -8.737  0.00  0.00    +0.066 C 
ENDBRANCH  19  20
ENDBRANCH  18  19
ENDBRANCH  14  15
ENDBRANCH  12  13
TORSDOF 6
ENDMDL
