MODEL 1
REMARK VINA RESULT:      -8.5      0.000      0.000
REMARK  Name = C:\Users\Docking\Desktop\test protocol\1iep_ligandH.pdb
REMARK  8 active torsions:
REMARK  status: ('A' for Active; 'I' for Inactive)
REMARK    1  A    between atoms: _5  and  _11
REMARK    2  A    between atoms: _19  and  _21
REMARK    3  A    between atoms: _22  and  _66
REMARK    4  A    between atoms: _27  and  _30
REMARK    5  A    between atoms: _32  and  _33
REMARK    6  A    between atoms: _38  and  _43
REMARK    7  A    between atoms: _43  and  _46
REMARK    8  A    between atoms: _53  and  _55
REMARK                            x       y       z     vdW  Elec       q    Type
REMARK                         _______ _______ _______ _____ _____    ______ ____
ROOT
ATOM     10  C   UNL     1       5.421  -0.924  22.622  0.00  0.00    +0.038 A 
ATOM     11  C   UNL     1       4.915  -1.089  21.307  0.00  0.00    +0.047 A 
ATOM     12  C   UNL     1       5.556  -1.990  20.362  0.00  0.00    +0.035 A 
ATOM     32  C   UNL     1       6.709  -2.710  20.790  0.00  0.00    +0.024 A 
ATOM     33  C   UNL     1       7.237  -2.554  22.123  0.00  0.00    +0.007 A 
ATOM     34  C   UNL     1       6.611  -1.664  23.059  0.00  0.00    -0.029 A 
ATOM     35  C   UNL     1       7.224  -1.531  24.472  0.00  0.00    +0.045 C 
ENDROOT
BRANCH  10   9
ATOM      4  C   UNL     1       5.170   3.186  25.088  0.00  0.00    +0.077 A 
ATOM      5  C   UNL     1       6.464   3.607  24.634  0.00  0.00    +0.048 A 
ATOM      6  C   UNL     1       7.165   2.733  23.772  0.00  0.00    +0.116 A 
ATOM      7  N   UNL     1       6.603   1.531  23.399  0.00  0.00    -0.223 NA
ATOM      8  C   UNL     1       5.354   1.155  23.857  0.00  0.00    +0.220 A 
ATOM      9  N   UNL     1       4.766  -0.045  23.488  0.00  0.00    -0.283 N 
ATOM     36  H   UNL     1       3.846  -0.289  23.853  0.00  0.00    +0.155 HD
ATOM     37  N   UNL     1       4.665   1.971  24.681  0.00  0.00    -0.214 NA
BRANCH   4   3
ATOM      1  C   UNL     1       3.909   5.335  28.103  0.00  0.00    +0.020 A 
ATOM      2  C   UNL     1       4.784   4.555  27.260  0.00  0.00    +0.013 A 
ATOM      3  C   UNL     1       4.306   4.001  25.999  0.00  0.00    +0.019 A 
ATOM     38  C   UNL     1       2.925   4.258  25.618  0.00  0.00    +0.120 A 
ATOM     39  N   UNL     1       2.104   5.011  26.452  0.00  0.00    -0.263 NA
ATOM     40  C   UNL     1       2.553   5.548  27.668  0.00  0.00    +0.111 A 
ENDBRANCH   4   3
ENDBRANCH  10   9
BRANCH  12  13
ATOM     13  N   UNL     1       5.092  -2.192  19.011  0.00  0.00    -0.281 N 
ATOM     14  C   UNL     1       4.395  -3.276  18.504  0.00  0.00    +0.248 C 
ATOM     30  O   UNL     1       4.249  -4.339  19.088  0.00  0.00    -0.270 OA
ATOM     31  H   UNL     1       5.304  -1.446  18.349  0.00  0.00    +0.155 HD
BRANCH  14  15
ATOM     15  C   UNL     1       3.783  -3.169  17.144  0.00  0.00    +0.037 A 
ATOM     16  C   UNL     1       2.580  -3.925  16.790  0.00  0.00    +0.013 A 
ATOM     17  C   UNL     1       2.020  -3.816  15.466  0.00  0.00    +0.005 A 
ATOM     18  C   UNL     1       2.664  -2.945  14.486  0.00  0.00    -0.033 A 
ATOM     28  C   UNL     1       3.854  -2.202  14.866  0.00  0.00    +0.005 A 
ATOM     29  C   UNL     1       4.406  -2.307  16.162  0.00  0.00    +0.013 A 
BRANCH  18  19
ATOM     19  C   UNL     1       2.148  -2.784  13.044  0.00  0.00    +0.119 C 
BRANCH  19  20
ATOM     20  N   UNL     1       1.933  -1.393  12.546  0.00  0.00    -0.302 NA
ATOM     21  C   UNL     1       0.872  -0.648  13.362  0.00  0.00    +0.066 C 
ATOM     22  C   UNL     1       0.676   0.813  12.841  0.00  0.00    -0.064 C 
ATOM     23  N   UNL     1       0.294   0.777  11.360  0.00  0.00    +0.379 N 
ATOM     24  C   UNL     1       0.053   2.147  10.883  0.00  0.00    -0.096 C 
ATOM     25  H   UNL     1      -0.664   0.214  11.272  0.00  0.00    -0.082 HD
ATOM     26  C   UNL     1       1.342   0.036  10.542  0.00  0.00    -0.064 C 
ATOM     27  C   UNL     1       1.551  -1.405  11.086  0.00  0.00    +0.066 C 
ENDBRANCH  19  20
ENDBRANCH  18  19
ENDBRANCH  14  15
ENDBRANCH  12  13
TORSDOF 6
ENDMDL
MODEL 2
REMARK VINA RESULT:      -8.4      1.790      2.860
REMARK  Name = C:\Users\Docking\Desktop\test protocol\1iep_ligandH.pdb
REMARK  8 active torsions:
REMARK  status: ('A' for Active; 'I' for Inactive)
REMARK    1  A    between atoms: _5  and  _11
REMARK    2  A    between atoms: _19  and  _21
REMARK    3  A    between atoms: _22  and  _66
REMARK    4  A    between atoms: _27  and  _30
REMARK    5  A    between atoms: _32  and  _33
REMARK    6  A    between atoms: _38  and  _43
REMARK    7  A    between atoms: _43  and  _46
REMARK    8  A    between atoms: _53  and  _55
REMARK                            x       y       z     vdW  Elec       q    Type
REMARK                         _______ _______ _______ _____ _____    ______ ____
ROOT
ATOM     10  C   UNL     1       5.341  -0.813  22.532  0.00  0.00    +0.038 A 
ATOM     11  C   UNL     1       4.810  -0.960  21.225  0.00  0.00    +0.047 A 
ATOM     12  C   UNL     1       5.447  -1.827  20.247  0.00  0.00    +0.035 A 
ATOM     32  C   UNL     1       6.623  -2.534  20.635  0.00  0.00    +0.024 A 
ATOM     33  C   UNL     1       7.177  -2.396  21.959  0.00  0.00    +0.007 A 
ATOM     34  C   UNL     1       6.554  -1.539  22.927  0.00  0.00    -0.029 A 
ATOM     35  C   UNL     1       7.195  -1.425  24.330  0.00  0.00    +0.045 C 
ENDROOT
BRANCH  10   9
ATOM      4  C   UNL     1       5.082   3.219  25.123  0.00  0.00    +0.077 A 
ATOM      5  C   UNL     1       6.368   3.664  24.667  0.00  0.00    +0.048 A 
ATOM      6  C   UNL     1       7.066   2.823  23.773  0.00  0.00    +0.116 A 
ATOM      7  N   UNL     1       6.511   1.628  23.370  0.00  0.00    -0.223 NA
ATOM      8  C   UNL     1       5.270   1.227  23.830  0.00  0.00    +0.220 A 
ATOM      9  N   UNL     1       4.688   0.033  23.432  0.00  0.00    -0.283 N 
ATOM     36  H   UNL     1       3.774  -0.230  23.799  0.00  0.00    +0.155 HD
ATOM     37  N   UNL     1       4.583   2.012  24.686  0.00  0.00    -0.214 NA
BRANCH   4   3
ATOM      1  C   UNL     1       2.012   4.982  26.786  0.00  0.00    +0.020 A 
ATOM      2  C   UNL     1       2.799   4.222  25.842  0.00  0.00    +0.013 A 
ATOM      3  C   UNL     1       4.221   3.998  26.068  0.00  0.00    +0.019 A 
ATOM     38  C   UNL     1       4.821   4.560  27.268  0.00  0.00    +0.120 A 
ATOM     39  N   UNL     1       4.039   5.289  28.159  0.00  0.00    -0.263 NA
ATOM     40  C   UNL     1       2.670   5.512  27.952  0.00  0.00    +0.111 A 
ENDBRANCH   4   3
ENDBRANCH  10   9
BRANCH  12  13
ATOM     13  N   UNL     1       4.958  -2.009  18.903  0.00  0.00    -0.281 N 
ATOM     14  C   UNL     1       4.383  -3.143  18.352  0.00  0.00    +0.248 C 
ATOM     30  O   UNL     1       4.395  -4.248  18.874  0.00  0.00    -0.270 OA
ATOM     31  H   UNL     1       5.048  -1.205  18.282  0.00  0.00    +0.155 HD
BRANCH  14  15
ATOM     15  C   UNL     1       3.708  -3.036  17.023  0.00  0.00    +0.037 A 
ATOM     16  C   UNL     1       4.223  -2.148  15.978  0.00  0.00    +0.013 A 
ATOM     17  C   UNL     1       3.543  -2.051  14.711  0.00  0.00    +0.005 A 
ATOM     18  C   UNL     1       2.340  -2.848  14.481  0.00  0.00    -0.033 A 
ATOM     28  C   UNL     1       1.854  -3.725  15.533  0.00  0.00    +0.005 A 
ATOM     29  C   UNL     1       2.517  -3.822  16.777  0.00  0.00    +0.013 A 
BRANCH  18  19
ATOM     19  C   UNL     1       1.538  -2.792  13.167  0.00  0.00    +0.119 C 
BRANCH  19  20
ATOM     20  N   UNL     1       1.375  -4.070  12.411  0.00  0.00    -0.302 NA
ATOM     21  C   UNL     1       2.707  -4.584  11.857  0.00  0.00    +0.066 C 
ATOM     22  C   UNL     1       2.521  -5.932  11.088  0.00  0.00    -0.064 C 
ATOM     23  N   UNL     1       1.504  -5.738   9.962  0.00  0.00    +0.379 N 
ATOM     24  C   UNL     1       1.371  -6.989   9.201  0.00  0.00    -0.096 C 
ATOM     25  H   UNL     1       1.910  -4.963   9.270  0.00  0.00    -0.082 HD
ATOM     26  C   UNL     1       0.178  -5.225  10.504  0.00  0.00    -0.064 C 
ATOM     27  C   UNL     1       0.378  -3.900  11.291  0.00  0.00    +0.066 C 
ENDBRANCH  19  20
ENDBRANCH  18  19
ENDBRANCH  14  15
ENDBRANCH  12  13
TORSDOF 6
ENDMDL
MODEL 3
REMARK VINA RESULT:      -8.1      3.746     12.883
REMARK  Name = C:\Users\Docking\Desktop\test protocol\1iep_ligandH.pdb
REMARK  8 active torsions:
REMARK  status: ('A' for Active; 'I' for Inactive)
REMARK    1  A    between atoms: _5  and  _11
REMARK    2  A    between atoms: _19  and  _21
REMARK    3  A    between atoms: _22  and  _66
REMARK    4  A    between atoms: _27  and  _30
REMARK    5  A    between atoms: _32  and  _33
REMARK    6  A    between atoms: _38  and  _43
REMARK    7  A    between atoms: _43  and  _46
REMARK    8  A    between atoms: _53  and  _55
REMARK                            x       y       z     vdW  Elec       q    Type
REMARK                         _______ _______ _______ _____ _____    ______ ____
ROOT
ATOM     10  C   UNL     1       6.407  -1.095  23.002  0.00  0.00    +0.038 A 
ATOM     11  C   UNL     1       5.690  -0.073  23.675  0.00  0.00    +0.047 A 
ATOM     12  C   UNL     1       6.342   0.784  24.653  0.00  0.00    +0.035 A 
ATOM     32  C   UNL     1       7.727   0.574  24.919  0.00  0.00    +0.024 A 
ATOM     33  C   UNL     1       8.470  -0.461  24.244  0.00  0.00    +0.007 A 
ATOM     34  C   UNL     1       7.832  -1.311  23.280  0.00  0.00    -0.029 A 
ATOM     35  C   UNL     1       8.676  -2.409  22.592  0.00  0.00    +0.045 C 
ENDROOT
BRANCH  10   9
ATOM      4  C   UNL     1       5.179  -2.230  18.503  0.00  0.00    +0.077 A 
ATOM      5  C   UNL     1       5.926  -1.132  17.959  0.00  0.00    +0.048 A 
ATOM      6  C   UNL     1       6.606  -0.295  18.872  0.00  0.00    +0.116 A 
ATOM      7  N   UNL     1       6.537  -0.546  20.225  0.00  0.00    -0.223 NA
ATOM      8  C   UNL     1       5.807  -1.613  20.716  0.00  0.00    +0.220 A 
ATOM      9  N   UNL     1       5.731  -1.889  22.073  0.00  0.00    -0.283 N 
ATOM     36  H   UNL     1       5.175  -2.681  22.395  0.00  0.00    +0.155 HD
ATOM     37  N   UNL     1       5.147  -2.426  19.865  0.00  0.00    -0.214 NA
BRANCH   4   3
ATOM      1  C   UNL     1       2.263  -4.273  16.884  0.00  0.00    +0.020 A 
ATOM      2  C   UNL     1       2.957  -3.315  17.712  0.00  0.00    +0.013 A 
ATOM      3  C   UNL     1       4.410  -3.205  17.666  0.00  0.00    +0.019 A 
ATOM     38  C   UNL     1       5.135  -4.085  16.763  0.00  0.00    +0.120 A 
ATOM     39  N   UNL     1       4.440  -4.999  15.978  0.00  0.00    -0.263 NA
ATOM     40  C   UNL     1       3.042  -5.116  16.015  0.00  0.00    +0.111 A 
ENDBRANCH   4   3
ENDBRANCH  10   9
BRANCH  12  13
ATOM     13  N   UNL     1       5.664   1.833  25.374  0.00  0.00    -0.281 N 
ATOM     14  C   UNL     1       4.881   2.852  24.858  0.00  0.00    +0.248 C 
ATOM     30  O   UNL     1       4.820   3.144  23.673  0.00  0.00    -0.270 OA
ATOM     31  H   UNL     1       5.775   1.822  26.388  0.00  0.00    +0.155 HD
BRANCH  14  15
ATOM     15  C   UNL     1       4.059   3.677  25.795  0.00  0.00    +0.037 A 
ATOM     16  C   UNL     1       4.643   4.261  27.005  0.00  0.00    +0.013 A 
ATOM     17  C   UNL     1       3.823   5.038  27.901  0.00  0.00    +0.005 A 
ATOM     18  C   UNL     1       2.410   5.236  27.589  0.00  0.00    -0.033 A 
ATOM     28  C   UNL     1       1.858   4.649  26.379  0.00  0.00    +0.005 A 
ATOM     29  C   UNL     1       2.658   3.886  25.499  0.00  0.00    +0.013 A 
BRANCH  18  19
ATOM     19  C   UNL     1       1.456   6.032  28.499  0.00  0.00    +0.119 C 
BRANCH  19  20
ATOM     20  N   UNL     1       2.063   7.072  29.382  0.00  0.00    -0.302 NA
ATOM     21  C   UNL     1       2.754   6.457  30.602  0.00  0.00    +0.066 C 
ATOM     22  C   UNL     1       3.403   7.557  31.504  0.00  0.00    -0.064 C 
ATOM     23  N   UNL     1       2.329   8.556  31.937  0.00  0.00    +0.379 N 
ATOM     24  C   UNL     1       2.924   9.559  32.832  0.00  0.00    -0.096 C 
ATOM     25  H   UNL     1       1.561   7.996  32.519  0.00  0.00    -0.082 HD
ATOM     26  C   UNL     1       1.635   9.171  30.729  0.00  0.00    -0.064 C 
ATOM     27  C   UNL     1       1.019   8.067  29.825  0.00  0.00    +0.066 C 
ENDBRANCH  19  20
ENDBRANCH  18  19
ENDBRANCH  14  15
ENDBRANCH  12  13
TORSDOF 6
ENDMDL
MODEL 4
REMARK VINA RESULT:      -8.0      2.000      2.522
REMARK  Name = C:\Users\Docking\Desktop\test protocol\1iep_ligandH.pdb
REMARK  8 active torsions:
REMARK  status: ('A' for Active; 'I' for Inactive)
REMARK    1  A    between atoms: _5  and  _11
REMARK    2  A    between atoms: _19  and  _21
REMARK    3  A    between atoms: _22  and  _66
REMARK    4  A    between atoms: _27  and  _30
REMARK    5  A    between atoms: _32  and  _33
REMARK    6  A    between atoms: _38  and  _43
REMARK    7  A    between atoms: _43  and  _46
REMARK    8  A    between atoms: _53  and  _55
REMARK                            x       y       z     vdW  Elec       q    Type
REMARK                         _______ _______ _______ _____ _____    ______ ____
ROOT
ATOM     10  C   UNL     1       5.483  -0.352  22.869  0.00  0.00    +0.038 A 
ATOM     11  C   UNL     1       5.122  -0.308  21.498  0.00  0.00    +0.047 A 
ATOM     12  C   UNL     1       5.831  -1.104  20.507  0.00  0.00    +0.035 A 
ATOM     32  C   UNL     1       6.900  -1.936  20.949  0.00  0.00    +0.024 A 
ATOM     33  C   UNL     1       7.281  -1.992  22.338  0.00  0.00    +0.007 A 
ATOM     34  C   UNL     1       6.588  -1.208  23.320  0.00  0.00    -0.029 A 
ATOM     35  C   UNL     1       7.043  -1.302  24.794  0.00  0.00    +0.045 C 
ENDROOT
BRANCH  10   9
ATOM      4  C   UNL     1       4.958   3.586  25.562  0.00  0.00    +0.077 A 
ATOM      5  C   UNL     1       6.226   4.111  25.146  0.00  0.00    +0.048 A 
ATOM      6  C   UNL     1       6.986   3.334  24.243  0.00  0.00    +0.116 A 
ATOM      7  N   UNL     1       6.504   2.123  23.796  0.00  0.00    -0.223 NA
ATOM      8  C   UNL     1       5.277   1.644  24.219  0.00  0.00    +0.220 A 
ATOM      9  N   UNL     1       4.769   0.433  23.777  0.00  0.00    -0.283 N 
ATOM     36  H   UNL     1       3.863   0.111  24.118  0.00  0.00    +0.155 HD
ATOM     37  N   UNL     1       4.533   2.367  25.082  0.00  0.00    -0.214 NA
BRANCH   4   3
ATOM      1  C   UNL     1       3.546   5.480  28.680  0.00  0.00    +0.020 A 
ATOM      2  C   UNL     1       4.474   4.805  27.802  0.00  0.00    +0.013 A 
ATOM      3  C   UNL     1       4.038   4.291  26.510  0.00  0.00    +0.019 A 
ATOM     38  C   UNL     1       2.645   4.477  26.132  0.00  0.00    +0.120 A 
ATOM     39  N   UNL     1       1.773   5.129  26.999  0.00  0.00    -0.263 NA
ATOM     40  C   UNL     1       2.181   5.627  28.246  0.00  0.00    +0.111 A 
ENDBRANCH   4   3
ENDBRANCH  10   9
BRANCH  12  13
ATOM     13  N   UNL     1       5.515  -1.094  19.101  0.00  0.00    -0.281 N 
ATOM     14  C   UNL     1       6.316  -0.676  18.051  0.00  0.00    +0.248 C 
ATOM     30  O   UNL     1       7.353  -0.044  18.182  0.00  0.00    -0.270 OA
ATOM     31  H   UNL     1       4.588  -1.437  18.848  0.00  0.00    +0.155 HD
BRANCH  14  15
ATOM     15  C   UNL     1       5.896  -0.994  16.652  0.00  0.00    +0.037 A 
ATOM     16  C   UNL     1       5.626   0.069  15.679  0.00  0.00    +0.013 A 
ATOM     17  C   UNL     1       5.207  -0.265  14.341  0.00  0.00    +0.005 A 
ATOM     18  C   UNL     1       5.056  -1.669  13.967  0.00  0.00    -0.033 A 
ATOM     28  C   UNL     1       5.335  -2.703  14.950  0.00  0.00    +0.005 A 
ATOM     29  C   UNL     1       5.746  -2.380  16.263  0.00  0.00    +0.013 A 
BRANCH  18  19
ATOM     19  C   UNL     1       4.593  -2.117  12.568  0.00  0.00    +0.119 C 
BRANCH  19  20
ATOM     20  N   UNL     1       3.198  -2.636  12.444  0.00  0.00    -0.302 NA
ATOM     21  C   UNL     1       3.063  -3.655  11.309  0.00  0.00    +0.066 C 
ATOM     22  C   UNL     1       1.603  -4.204  11.207  0.00  0.00    -0.064 C 
ATOM     23  N   UNL     1       0.635  -3.037  11.005  0.00  0.00    +0.379 N 
ATOM     24  C   UNL     1      -0.732  -3.555  10.851  0.00  0.00    -0.096 C 
ATOM     25  H   UNL     1       0.913  -2.528  10.053  0.00  0.00    -0.082 HD
ATOM     26  C   UNL     1       0.764  -2.018  12.128  0.00  0.00    -0.064 C 
ATOM     27  C   UNL     1       2.225  -1.501  12.239  0.00  0.00    +0.066 C 
ENDBRANCH  19  20
ENDBRANCH  18  19
ENDBRANCH  14  15
ENDBRANCH  12  13
TORSDOF 6
ENDMDL
MODEL 5
REMARK VINA RESULT:      -8.0      3.078      6.558
REMARK  Name = C:\Users\Docking\Desktop\test protocol\1iep_ligandH.pdb
REMARK  8 active torsions:
REMARK  status: ('A' for Active; 'I' for Inactive)
REMARK    1  A    between atoms: _5  and  _11
REMARK    2  A    between atoms: _19  and  _21
REMARK    3  A    between atoms: _22  and  _66
REMARK    4  A    between atoms: _27  and  _30
REMARK    5  A    between atoms: _32  and  _33
REMARK    6  A    between atoms: _38  and  _43
REMARK    7  A    between atoms: _43  and  _46
REMARK    8  A    between atoms: _53  and  _55
REMARK                            x       y       z     vdW  Elec       q    Type
REMARK                         _______ _______ _______ _____ _____    ______ ____
ROOT
ATOM     10  C   UNL     1       3.373  -3.435  17.339  0.00  0.00    +0.038 A 
ATOM     11  C   UNL     1       2.985  -2.555  16.295  0.00  0.00    +0.047 A 
ATOM     12  C   UNL     1       2.729  -3.049  14.951  0.00  0.00    +0.035 A 
ATOM     32  C   UNL     1       2.874  -4.445  14.705  0.00  0.00    +0.024 A 
ATOM     33  C   UNL     1       3.268  -5.353  15.754  0.00  0.00    +0.007 A 
ATOM     34  C   UNL     1       3.524  -4.872  17.081  0.00  0.00    -0.029 A 
ATOM     35  C   UNL     1       3.950  -5.890  18.165  0.00  0.00    +0.045 C 
ENDROOT
BRANCH  10   9
ATOM      4  C   UNL     1       6.093  -1.063  20.503  0.00  0.00    +0.077 A 
ATOM      5  C   UNL     1       7.150  -0.884  19.549  0.00  0.00    +0.048 A 
ATOM      6  C   UNL     1       6.957  -1.424  18.258  0.00  0.00    +0.116 A 
ATOM      7  N   UNL     1       5.790  -2.090  17.953  0.00  0.00    -0.223 NA
ATOM      8  C   UNL     1       4.791  -2.247  18.897  0.00  0.00    +0.220 A 
ATOM      9  N   UNL     1       3.606  -2.907  18.610  0.00  0.00    -0.283 N 
ATOM     36  H   UNL     1       2.897  -3.007  19.336  0.00  0.00    +0.155 HD
ATOM     37  N   UNL     1       4.952  -1.742  20.138  0.00  0.00    -0.214 NA
BRANCH   4   3
ATOM      1  C   UNL     1       5.304   0.906  23.789  0.00  0.00    +0.020 A 
ATOM      2  C   UNL     1       5.209   0.441  22.425  0.00  0.00    +0.013 A 
ATOM      3  C   UNL     1       6.147  -0.547  21.907  0.00  0.00    +0.019 A 
ATOM     38  C   UNL     1       7.176  -1.050  22.804  0.00  0.00    +0.120 A 
ATOM     39  N   UNL     1       7.244  -0.583  24.113  0.00  0.00    -0.263 NA
ATOM     40  C   UNL     1       6.348   0.369  24.621  0.00  0.00    +0.111 A 
ENDBRANCH   4   3
ENDBRANCH  10   9
BRANCH  12  13
ATOM     13  N   UNL     1       2.341  -2.203  13.850  0.00  0.00    -0.281 N 
ATOM     14  C   UNL     1       1.079  -1.711  13.557  0.00  0.00    +0.248 C 
ATOM     30  O   UNL     1       0.047  -2.102  14.081  0.00  0.00    -0.270 OA
ATOM     31  H   UNL     1       3.087  -1.933  13.209  0.00  0.00    +0.155 HD
BRANCH  14  15
ATOM     15  C   UNL     1       0.944  -0.641  12.522  0.00  0.00    +0.037 A 
ATOM     16  C   UNL     1       1.282  -0.894  11.119  0.00  0.00    +0.013 A 
ATOM     17  C   UNL     1       1.159   0.161  10.144  0.00  0.00    +0.005 A 
ATOM     18  C   UNL     1       0.692   1.478  10.570  0.00  0.00    -0.033 A 
ATOM     28  C   UNL     1       0.358   1.700  11.967  0.00  0.00    +0.005 A 
ATOM     29  C   UNL     1       0.479   0.669  12.926  0.00  0.00    +0.013 A 
BRANCH  18  19
ATOM     19  C   UNL     1       0.550   2.668   9.602  0.00  0.00    +0.119 C 
BRANCH  19  20
ATOM     20  N   UNL     1       1.808   3.257   9.054  0.00  0.00    -0.302 NA
ATOM     21  C   UNL     1       2.628   3.967  10.135  0.00  0.00    +0.066 C 
ATOM     22  C   UNL     1       3.951   4.558   9.549  0.00  0.00    -0.064 C 
ATOM     23  N   UNL     1       3.615   5.518   8.406  0.00  0.00    +0.379 N 
ATOM     24  C   UNL     1       4.854   6.121   7.891  0.00  0.00    -0.096 C 
ATOM     25  H   UNL     1       2.990   6.339   8.828  0.00  0.00    -0.082 HD
ATOM     26  C   UNL     1       2.797   4.822   7.328  0.00  0.00    -0.064 C 
ATOM     27  C   UNL     1       1.499   4.212   7.927  0.00  0.00    +0.066 C 
ENDBRANCH  19  20
ENDBRANCH  18  19
ENDBRANCH  14  15
ENDBRANCH  12  13
TORSDOF 6
ENDMDL
