MODEL 1
REMARK VINA RESULT:     -10.0      0.000      0.000
REMARK  Name = C:\Users\Docking\Desktop\test protocol\1iep_ligandH.pdb
REMARK  8 active torsions:
REMARK  status: ('A' for Active; 'I' for Inactive)
REMARK    1  A    between atoms: _5  and  _11
REMARK    2  A    between atoms: _19  and  _21
REMARK    3  A    between atoms: _22  and  _66
REMARK    4  A    between atoms: _27  and  _30
REMARK    5  A    between atoms: _32  and  _33
REMARK    6  A    between atoms: _38  and  _43
REMARK    7  A    between atoms: _43  and  _46
REMARK    8  A    between atoms: _53  and  _55
REMARK                            x       y       z     vdW  Elec       q    Type
REMARK                         _______ _______ _______ _____ _____    ______ ____
ROOT
ATOM     10  C   UNL     1     -28.078  -0.267  34.101  0.00  0.00    +0.038 A 
ATOM     11  C   UNL     1     -27.702   0.599  33.042  0.00  0.00    +0.047 A 
ATOM     12  C   UNL     1     -28.082   2.003  33.048  0.00  0.00    +0.035 A 
ATOM     32  C   UNL     1     -28.843   2.493  34.149  0.00  0.00    +0.024 A 
ATOM     33  C   UNL     1     -29.234   1.627  35.233  0.00  0.00    +0.007 A 
ATOM     34  C   UNL     1     -28.864   0.240  35.232  0.00  0.00    -0.029 A 
ATOM     35  C   UNL     1     -29.316  -0.644  36.417  0.00  0.00    +0.045 C 
ENDROOT
BRANCH  10   9
ATOM      4  C   UNL     1     -24.993  -3.818  35.056  0.00  0.00    +0.077 A 
ATOM      5  C   UNL     1     -24.072  -2.925  35.699  0.00  0.00    +0.048 A 
ATOM      6  C   UNL     1     -24.427  -1.558  35.756  0.00  0.00    +0.116 A 
ATOM      7  N   UNL     1     -25.616  -1.128  35.209  0.00  0.00    -0.223 NA
ATOM      8  C   UNL     1     -26.481  -2.015  34.595  0.00  0.00    +0.220 A 
ATOM      9  N   UNL     1     -27.685  -1.606  34.044  0.00  0.00    -0.283 N 
ATOM     36  H   UNL     1     -28.292  -2.290  33.594  0.00  0.00    +0.155 HD
ATOM     37  N   UNL     1     -26.164  -3.325  34.526  0.00  0.00    -0.214 NA
BRANCH   4   3
ATOM      1  C   UNL     1     -24.608  -7.413  33.565  0.00  0.00    +0.020 A 
ATOM      2  C   UNL     1     -24.841  -5.989  33.643  0.00  0.00    +0.013 A 
ATOM      3  C   UNL     1     -24.762  -5.290  34.919  0.00  0.00    +0.019 A 
ATOM     38  C   UNL     1     -24.441  -6.067  36.107  0.00  0.00    +0.120 A 
ATOM     39  N   UNL     1     -24.223  -7.437  36.002  0.00  0.00    -0.263 NA
ATOM     40  C   UNL     1     -24.299  -8.121  34.779  0.00  0.00    +0.111 A 
ENDBRANCH   4   3
ENDBRANCH  10   9
BRANCH  12  13
ATOM     13  N   UNL     1     -27.737   2.928  31.997  0.00  0.00    -0.281 N 
ATOM     14  C   UNL     1     -26.660   3.798  31.948  0.00  0.00    +0.248 C 
ATOM     30  O   UNL     1     -25.944   4.066  32.902  0.00  0.00    -0.270 OA
ATOM     31  H   UNL     1     -28.363   2.944  31.191  0.00  0.00    +0.155 HD
BRANCH  14  15
ATOM     15  C   UNL     1     -26.340   4.479  30.657  0.00  0.00    +0.037 A 
ATOM     16  C   UNL     1     -25.003   4.394  30.063  0.00  0.00    +0.013 A 
ATOM     17  C   UNL     1     -24.716   5.075  28.825  0.00  0.00    +0.005 A 
ATOM     18  C   UNL     1     -25.771   5.846  28.171  0.00  0.00    -0.033 A 
ATOM     28  C   UNL     1     -27.089   5.909  28.779  0.00  0.00    +0.005 A 
ATOM     29  C   UNL     1     -27.374   5.244  29.993  0.00  0.00    +0.013 A 
BRANCH  18  19
ATOM     19  C   UNL     1     -25.548   6.621  26.859  0.00  0.00    +0.119 C 
BRANCH  19  20
ATOM     20  N   UNL     1     -26.086   6.013  25.606  0.00  0.00    -0.302 NA
ATOM     21  C   UNL     1     -25.253   4.812  25.148  0.00  0.00    +0.066 C 
ATOM     22  C   UNL     1     -25.843   4.174  23.848  0.00  0.00    -0.064 C 
ATOM     23  N   UNL     1     -25.913   5.235  22.748  0.00  0.00    +0.379 N 
ATOM     24  C   UNL     1     -26.413   4.624  21.508  0.00  0.00    -0.096 C 
ATOM     25  H   UNL     1     -24.875   5.592  22.556  0.00  0.00    -0.082 HD
ATOM     26  C   UNL     1     -26.737   6.434  23.197  0.00  0.00    -0.064 C 
ATOM     27  C   UNL     1     -26.160   7.043  24.506  0.00  0.00    +0.066 C 
ENDBRANCH  19  20
ENDBRANCH  18  19
ENDBRANCH  14  15
ENDBRANCH  12  13
TORSDOF 6
ENDMDL
MODEL 2
REMARK VINA RESULT:      -9.7      1.501      2.105
REMARK  Name = C:\Users\Docking\Desktop\test protocol\1iep_ligandH.pdb
REMARK  8 active torsions:
REMARK  status: ('A' for Active; 'I' for Inactive)
REMARK    1  A    between atoms: _5  and  _11
REMARK    2  A    between atoms: _19  and  _21
REMARK    3  A    between atoms: _22  and  _66
REMARK    4  A    between atoms: _27  and  _30
REMARK    5  A    between atoms: _32  and  _33
REMARK    6  A    between atoms: _38  and  _43
REMARK    7  A    between atoms: _43  and  _46
REMARK    8  A    between atoms: _53  and  _55
REMARK                            x       y       z     vdW  Elec       q    Type
REMARK                         _______ _______ _______ _____ _____    ______ ____
ROOT
ATOM     10  C   UNL     1     -26.407  -0.429  35.166  0.00  0.00    +0.038 A 
ATOM     11  C   UNL     1     -26.266   0.437  34.052  0.00  0.00    +0.047 A 
ATOM     12  C   UNL     1     -26.832   1.777  34.064  0.00  0.00    +0.035 A 
ATOM     32  C   UNL     1     -27.534   2.203  35.229  0.00  0.00    +0.024 A 
ATOM     33  C   UNL     1     -27.687   1.335  36.370  0.00  0.00    +0.007 A 
ATOM     34  C   UNL     1     -27.133   0.012  36.363  0.00  0.00    -0.029 A 
ATOM     35  C   UNL     1     -27.334  -0.878  37.612  0.00  0.00    +0.045 C 
ENDROOT
BRANCH  10   9
ATOM      4  C   UNL     1     -26.694  -5.145  34.321  0.00  0.00    +0.077 A 
ATOM      5  C   UNL     1     -28.092  -5.064  34.010  0.00  0.00    +0.048 A 
ATOM      6  C   UNL     1     -28.701  -3.792  34.087  0.00  0.00    +0.116 A 
ATOM      7  N   UNL     1     -27.958  -2.689  34.448  0.00  0.00    -0.223 NA
ATOM      8  C   UNL     1     -26.612  -2.802  34.743  0.00  0.00    +0.220 A 
ATOM      9  N   UNL     1     -25.843  -1.705  35.101  0.00  0.00    -0.283 N 
ATOM     36  H   UNL     1     -24.854  -1.831  35.318  0.00  0.00    +0.155 HD
ATOM     37  N   UNL     1     -26.007  -4.007  34.679  0.00  0.00    -0.214 NA
BRANCH   4   3
ATOM      1  C   UNL     1     -25.584  -8.863  34.814  0.00  0.00    +0.020 A 
ATOM      2  C   UNL     1     -26.382  -7.661  34.880  0.00  0.00    +0.013 A 
ATOM      3  C   UNL     1     -25.908  -6.419  34.282  0.00  0.00    +0.019 A 
ATOM     38  C   UNL     1     -24.612  -6.427  33.620  0.00  0.00    +0.120 A 
ATOM     39  N   UNL     1     -23.865  -7.600  33.574  0.00  0.00    -0.263 NA
ATOM     40  C   UNL     1     -24.310  -8.801  34.146  0.00  0.00    +0.111 A 
ENDBRANCH   4   3
ENDBRANCH  10   9
BRANCH  12  13
ATOM     13  N   UNL     1     -26.728   2.698  32.960  0.00  0.00    -0.281 N 
ATOM     14  C   UNL     1     -25.849   3.760  32.816  0.00  0.00    +0.248 C 
ATOM     30  O   UNL     1     -25.158   4.211  33.717  0.00  0.00    -0.270 OA
ATOM     31  H   UNL     1     -27.381   2.549  32.190  0.00  0.00    +0.155 HD
BRANCH  14  15
ATOM     15  C   UNL     1     -25.733   4.425  31.483  0.00  0.00    +0.037 A 
ATOM     16  C   UNL     1     -26.900   5.013  30.822  0.00  0.00    +0.013 A 
ATOM     17  C   UNL     1     -26.763   5.634  29.528  0.00  0.00    +0.005 A 
ATOM     18  C   UNL     1     -25.451   5.670  28.887  0.00  0.00    -0.033 A 
ATOM     28  C   UNL     1     -24.309   5.083  29.567  0.00  0.00    +0.005 A 
ATOM     29  C   UNL     1     -24.439   4.473  30.834  0.00  0.00    +0.013 A 
BRANCH  18  19
ATOM     19  C   UNL     1     -25.216   6.293  27.498  0.00  0.00    +0.119 C 
BRANCH  19  20
ATOM     20  N   UNL     1     -25.782   5.570  26.320  0.00  0.00    -0.302 NA
ATOM     21  C   UNL     1     -24.709   4.792  25.554  0.00  0.00    +0.066 C 
ATOM     22  C   UNL     1     -25.322   4.024  24.338  0.00  0.00    -0.064 C 
ATOM     23  N   UNL     1     -26.033   5.017  23.416  0.00  0.00    +0.379 N 
ATOM     24  C   UNL     1     -26.560   4.306  22.243  0.00  0.00    -0.096 C 
ATOM     25  H   UNL     1     -25.272   5.747  23.056  0.00  0.00    -0.082 HD
ATOM     26  C   UNL     1     -27.100   5.797  24.171  0.00  0.00    -0.064 C 
ATOM     27  C   UNL     1     -26.485   6.533  25.394  0.00  0.00    +0.066 C 
ENDBRANCH  19  20
ENDBRANCH  18  19
ENDBRANCH  14  15
ENDBRANCH  12  13
TORSDOF 6
ENDMDL
MODEL 3
REMARK VINA RESULT:      -9.6      1.544      2.299
REMARK  Name = C:\Users\Docking\Desktop\test protocol\1iep_ligandH.pdb
REMARK  8 active torsions:
REMARK  status: ('A' for Active; 'I' for Inactive)
REMARK    1  A    between atoms: _5  and  _11
REMARK    2  A    between atoms: _19  and  _21
REMARK    3  A    between atoms: _22  and  _66
REMARK    4  A    between atoms: _27  and  _30
REMARK    5  A    between atoms: _32  and  _33
REMARK    6  A    between atoms: _38  and  _43
REMARK    7  A    between atoms: _43  and  _46
REMARK    8  A    between atoms: _53  and  _55
REMARK                            x       y       z     vdW  Elec       q    Type
REMARK                         _______ _______ _______ _____ _____    ______ ____
ROOT
ATOM     10  C   UNL     1     -29.468  -1.687  33.891  0.00  0.00    +0.038 A 
ATOM     11  C   UNL     1     -28.935  -0.545  33.241  0.00  0.00    +0.047 A 
ATOM     12  C   UNL     1     -29.584   0.753  33.347  0.00  0.00    +0.035 A 
ATOM     32  C   UNL     1     -30.772   0.852  34.128  0.00  0.00    +0.024 A 
ATOM     33  C   UNL     1     -31.328  -0.299  34.795  0.00  0.00    +0.007 A 
ATOM     34  C   UNL     1     -30.694  -1.582  34.691  0.00  0.00    -0.029 A 
ATOM     35  C   UNL     1     -31.338  -2.783  35.422  0.00  0.00    +0.045 C 
ENDROOT
BRANCH  10   9
ATOM      4  C   UNL     1     -25.897  -4.708  34.969  0.00  0.00    +0.077 A 
ATOM      5  C   UNL     1     -25.288  -3.763  35.860  0.00  0.00    +0.048 A 
ATOM      6  C   UNL     1     -25.921  -2.508  36.007  0.00  0.00    +0.116 A 
ATOM      7  N   UNL     1     -27.077  -2.230  35.311  0.00  0.00    -0.223 NA
ATOM      8  C   UNL     1     -27.638  -3.164  34.459  0.00  0.00    +0.220 A 
ATOM      9  N   UNL     1     -28.804  -2.908  33.754  0.00  0.00    -0.283 N 
ATOM     36  H   UNL     1     -29.182  -3.620  33.130  0.00  0.00    +0.155 HD
ATOM     37  N   UNL     1     -27.052  -4.368  34.300  0.00  0.00    -0.214 NA
BRANCH   4   3
ATOM      1  C   UNL     1     -24.400  -7.856  33.195  0.00  0.00    +0.020 A 
ATOM      2  C   UNL     1     -24.923  -6.523  33.391  0.00  0.00    +0.013 A 
ATOM      3  C   UNL     1     -25.350  -6.077  34.711  0.00  0.00    +0.019 A 
ATOM     38  C   UNL     1     -25.233  -7.011  35.821  0.00  0.00    +0.120 A 
ATOM     39  N   UNL     1     -24.727  -8.289  35.602  0.00  0.00    -0.263 NA
ATOM     40  C   UNL     1     -24.315  -8.730  34.335  0.00  0.00    +0.111 A 
ENDBRANCH   4   3
ENDBRANCH  10   9
BRANCH  12  13
ATOM     13  N   UNL     1     -29.093   1.946  32.703  0.00  0.00    -0.281 N 
ATOM     14  C   UNL     1     -27.866   2.564  32.875  0.00  0.00    +0.248 C 
ATOM     30  O   UNL     1     -27.081   2.303  33.775  0.00  0.00    -0.270 OA
ATOM     31  H   UNL     1     -29.729   2.389  32.039  0.00  0.00    +0.155 HD
BRANCH  14  15
ATOM     15  C   UNL     1     -27.457   3.638  31.919  0.00  0.00    +0.037 A 
ATOM     16  C   UNL     1     -28.367   4.110  30.873  0.00  0.00    +0.013 A 
ATOM     17  C   UNL     1     -27.942   5.135  29.953  0.00  0.00    +0.005 A 
ATOM     18  C   UNL     1     -26.599   5.696  30.077  0.00  0.00    -0.033 A 
ATOM     28  C   UNL     1     -25.718   5.213  31.128  0.00  0.00    +0.005 A 
ATOM     29  C   UNL     1     -26.132   4.208  32.030  0.00  0.00    +0.013 A 
BRANCH  18  19
ATOM     19  C   UNL     1     -26.054   6.778  29.126  0.00  0.00    +0.119 C 
BRANCH  19  20
ATOM     20  N   UNL     1     -25.724   6.359  27.731  0.00  0.00    -0.302 NA
ATOM     21  C   UNL     1     -26.961   6.343  26.828  0.00  0.00    +0.066 C 
ATOM     22  C   UNL     1     -26.594   5.925  25.367  0.00  0.00    -0.064 C 
ATOM     23  N   UNL     1     -25.920   4.552  25.387  0.00  0.00    +0.379 N 
ATOM     24  C   UNL     1     -25.626   4.130  24.010  0.00  0.00    -0.096 C 
ATOM     25  H   UNL     1     -26.648   3.824  25.816  0.00  0.00    -0.082 HD
ATOM     26  C   UNL     1     -24.691   4.558  26.284  0.00  0.00    -0.064 C 
ATOM     27  C   UNL     1     -25.061   5.004  27.727  0.00  0.00    +0.066 C 
ENDBRANCH  19  20
ENDBRANCH  18  19
ENDBRANCH  14  15
ENDBRANCH  12  13
TORSDOF 6
ENDMDL
MODEL 4
REMARK VINA RESULT:      -9.5      7.867     16.402
REMARK  Name = C:\Users\Docking\Desktop\test protocol\1iep_ligandH.pdb
REMARK  8 active torsions:
REMARK  status: ('A' for Active; 'I' for Inactive)
REMARK    1  A    between atoms: _5  and  _11
REMARK    2  A    between atoms: _19  and  _21
REMARK    3  A    between atoms: _22  and  _66
REMARK    4  A    between atoms: _27  and  _30
REMARK    5  A    between atoms: _32  and  _33
REMARK    6  A    between atoms: _38  and  _43
REMARK    7  A    between atoms: _43  and  _46
REMARK    8  A    between atoms: _53  and  _55
REMARK                            x       y       z     vdW  Elec       q    Type
REMARK                         _______ _______ _______ _____ _____    ______ ____
ROOT
ATOM     10  C   UNL     1     -32.413  10.215  21.384  0.00  0.00    +0.038 A 
ATOM     11  C   UNL     1     -31.679   9.250  22.119  0.00  0.00    +0.047 A 
ATOM     12  C   UNL     1     -30.224   9.259  22.130  0.00  0.00    +0.035 A 
ATOM     32  C   UNL     1     -29.550  10.268  21.383  0.00  0.00    +0.024 A 
ATOM     33  C   UNL     1     -30.280  11.256  20.629  0.00  0.00    +0.007 A 
ATOM     34  C   UNL     1     -31.715  11.250  20.612  0.00  0.00    -0.029 A 
ATOM     35  C   UNL     1     -32.447  12.330  19.781  0.00  0.00    +0.045 C 
ENDROOT
BRANCH  10   9
ATOM      4  C   UNL     1     -36.600   8.346  19.963  0.00  0.00    +0.077 A 
ATOM      5  C   UNL     1     -35.954   7.421  19.077  0.00  0.00    +0.048 A 
ATOM      6  C   UNL     1     -34.543   7.464  19.011  0.00  0.00    +0.116 A 
ATOM      7  N   UNL     1     -33.841   8.368  19.778  0.00  0.00    -0.223 NA
ATOM      8  C   UNL     1     -34.495   9.247  20.621  0.00  0.00    +0.220 A 
ATOM      9  N   UNL     1     -33.809  10.159  21.408  0.00  0.00    -0.283 N 
ATOM     36  H   UNL     1     -34.328  10.796  22.012  0.00  0.00    +0.155 HD
ATOM     37  N   UNL     1     -35.842   9.227  20.702  0.00  0.00    -0.214 NA
BRANCH   4   3
ATOM      1  C   UNL     1     -40.354   7.368  20.463  0.00  0.00    +0.020 A 
ATOM      2  C   UNL     1     -38.926   7.240  20.288  0.00  0.00    +0.013 A 
ATOM      3  C   UNL     1     -38.084   8.422  20.146  0.00  0.00    +0.019 A 
ATOM     38  C   UNL     1     -38.724   9.728  20.187  0.00  0.00    +0.120 A 
ATOM     39  N   UNL     1     -40.102   9.820  20.355  0.00  0.00    -0.263 NA
ATOM     40  C   UNL     1     -40.922   8.690  20.491  0.00  0.00    +0.111 A 
ENDBRANCH   4   3
ENDBRANCH  10   9
BRANCH  12  13
ATOM     13  N   UNL     1     -29.425   8.301  22.852  0.00  0.00    -0.281 N 
ATOM     14  C   UNL     1     -28.470   7.434  22.345  0.00  0.00    +0.248 C 
ATOM     30  O   UNL     1     -28.309   7.202  21.156  0.00  0.00    -0.270 OA
ATOM     31  H   UNL     1     -29.582   8.255  23.859  0.00  0.00    +0.155 HD
BRANCH  14  15
ATOM     15  C   UNL     1     -27.573   6.711  23.297  0.00  0.00    +0.037 A 
ATOM     16  C   UNL     1     -27.943   6.533  24.703  0.00  0.00    +0.013 A 
ATOM     17  C   UNL     1     -27.052   5.846  25.604  0.00  0.00    +0.005 A 
ATOM     18  C   UNL     1     -25.782   5.330  25.100  0.00  0.00    -0.033 A 
ATOM     28  C   UNL     1     -25.442   5.516  23.699  0.00  0.00    +0.005 A 
ATOM     29  C   UNL     1     -26.313   6.190  22.813  0.00  0.00    +0.013 A 
BRANCH  18  19
ATOM     19  C   UNL     1     -24.760   4.603  25.995  0.00  0.00    +0.119 C 
BRANCH  19  20
ATOM     20  N   UNL     1     -24.591   5.109  27.390  0.00  0.00    -0.302 NA
ATOM     21  C   UNL     1     -25.285   4.208  28.415  0.00  0.00    +0.066 C 
ATOM     22  C   UNL     1     -25.078   4.739  29.871  0.00  0.00    -0.064 C 
ATOM     23  N   UNL     1     -25.603   6.173  29.967  0.00  0.00    +0.379 N 
ATOM     24  C   UNL     1     -25.463   6.655  31.349  0.00  0.00    -0.096 C 
ATOM     25  H   UNL     1     -26.691   6.152  29.724  0.00  0.00    -0.082 HD
ATOM     26  C   UNL     1     -24.920   7.075  28.948  0.00  0.00    -0.064 C 
ATOM     27  C   UNL     1     -25.106   6.522  27.508  0.00  0.00    +0.066 C 
ENDBRANCH  19  20
ENDBRANCH  18  19
ENDBRANCH  14  15
ENDBRANCH  12  13
TORSDOF 6
ENDMDL
MODEL 5
REMARK VINA RESULT:      -9.4      2.304      4.935
REMARK  Name = C:\Users\Docking\Desktop\test protocol\1iep_ligandH.pdb
REMARK  8 active torsions:
REMARK  status: ('A' for Active; 'I' for Inactive)
REMARK    1  A    between atoms: _5  and  _11
REMARK    2  A    between atoms: _19  and  _21
REMARK    3  A    between atoms: _22  and  _66
REMARK    4  A    between atoms: _27  and  _30
REMARK    5  A    between atoms: _32  and  _33
REMARK    6  A    between atoms: _38  and  _43
REMARK    7  A    between atoms: _43  and  _46
REMARK    8  A    between atoms: _53  and  _55
REMARK                            x       y       z     vdW  Elec       q    Type
REMARK                         _______ _______ _______ _____ _____    ______ ____
ROOT
ATOM     10  C   UNL     1     -25.340  -3.834  35.544  0.00  0.00    +0.038 A 
ATOM     11  C   UNL     1     -25.843  -2.796  34.719  0.00  0.00    +0.047 A 
ATOM     12  C   UNL     1     -25.290  -1.452  34.779  0.00  0.00    +0.035 A 
ATOM     32  C   UNL     1     -24.222  -1.202  35.690  0.00  0.00    +0.024 A 
ATOM     33  C   UNL     1     -23.699  -2.245  36.536  0.00  0.00    +0.007 A 
ATOM     34  C   UNL     1     -24.243  -3.572  36.483  0.00  0.00    -0.029 A 
ATOM     35  C   UNL     1     -23.647  -4.650  37.418  0.00  0.00    +0.045 C 
ENDROOT
BRANCH  10   9
ATOM      4  C   UNL     1     -25.316  -8.371  33.977  0.00  0.00    +0.077 A 
ATOM      5  C   UNL     1     -24.080  -8.184  33.274  0.00  0.00    +0.048 A 
ATOM      6  C   UNL     1     -23.486  -6.904  33.335  0.00  0.00    +0.116 A 
ATOM      7  N   UNL     1     -24.092  -5.893  34.049  0.00  0.00    -0.223 NA
ATOM      8  C   UNL     1     -25.285  -6.106  34.714  0.00  0.00    +0.220 A 
ATOM      9  N   UNL     1     -25.909  -5.106  35.445  0.00  0.00    -0.283 N 
ATOM     36  H   UNL     1     -26.792  -5.302  35.915  0.00  0.00    +0.155 HD
ATOM     37  N   UNL     1     -25.873  -7.320  34.670  0.00  0.00    -0.214 NA
BRANCH   4   3
ATOM      1  C   UNL     1     -26.673 -11.871  35.077  0.00  0.00    +0.020 A 
ATOM      2  C   UNL     1     -25.927 -10.634  35.093  0.00  0.00    +0.013 A 
ATOM      3  C   UNL     1     -26.064  -9.668  34.010  0.00  0.00    +0.019 A 
ATOM     38  C   UNL     1     -26.971  -9.987  32.918  0.00  0.00    +0.120 A 
ATOM     39  N   UNL     1     -27.675 -11.187  32.929  0.00  0.00    -0.263 NA
ATOM     40  C   UNL     1     -27.550 -12.125  33.965  0.00  0.00    +0.111 A 
ENDBRANCH   4   3
ENDBRANCH  10   9
BRANCH  12  13
ATOM     13  N   UNL     1     -25.765  -0.356  33.972  0.00  0.00    -0.281 N 
ATOM     14  C   UNL     1     -26.739   0.577  34.291  0.00  0.00    +0.248 C 
ATOM     30  O   UNL     1     -27.503   0.481  35.239  0.00  0.00    -0.270 OA
ATOM     31  H   UNL     1     -25.332  -0.256  33.054  0.00  0.00    +0.155 HD
BRANCH  14  15
ATOM     15  C   UNL     1     -26.895   1.783  33.422  0.00  0.00    +0.037 A 
ATOM     16  C   UNL     1     -25.888   2.847  33.412  0.00  0.00    +0.013 A 
ATOM     17  C   UNL     1     -26.071   4.008  32.578  0.00  0.00    +0.005 A 
ATOM     18  C   UNL     1     -27.267   4.110  31.745  0.00  0.00    -0.033 A 
ATOM     28  C   UNL     1     -28.248   3.037  31.771  0.00  0.00    +0.005 A 
ATOM     29  C   UNL     1     -28.072   1.898  32.588  0.00  0.00    +0.013 A 
BRANCH  18  19
ATOM     19  C   UNL     1     -27.556   5.323  30.840  0.00  0.00    +0.119 C 
BRANCH  19  20
ATOM     20  N   UNL     1     -26.627   5.557  29.694  0.00  0.00    -0.302 NA
ATOM     21  C   UNL     1     -27.335   6.212  28.505  0.00  0.00    +0.066 C 
ATOM     22  C   UNL     1     -26.344   6.471  27.324  0.00  0.00    -0.064 C 
ATOM     23  N   UNL     1     -25.696   5.149  26.908  0.00  0.00    +0.379 N 
ATOM     24  C   UNL     1     -24.807   5.379  25.759  0.00  0.00    -0.096 C 
ATOM     25  H   UNL     1     -26.510   4.464  26.574  0.00  0.00    -0.082 HD
ATOM     26  C   UNL     1     -24.992   4.489  28.085  0.00  0.00    -0.064 C 
ATOM     27  C   UNL     1     -25.979   4.264  29.264  0.00  0.00    +0.066 C 
ENDBRANCH  19  20
ENDBRANCH  18  19
ENDBRANCH  14  15
ENDBRANCH  12  13
TORSDOF 6
ENDMDL
