MODEL 1
REMARK VINA RESULT:     -11.0      0.000      0.000
REMARK  Name = C:\Users\Docking\Desktop\test protocol\1iep_ligandH.pdb
REMARK  8 active torsions:
REMARK  status: ('A' for Active; 'I' for Inactive)
REMARK    1  A    between atoms: _5  and  _11
REMARK    2  A    between atoms: _19  and  _21
REMARK    3  A    between atoms: _22  and  _66
REMARK    4  A    between atoms: _27  and  _30
REMARK    5  A    between atoms: _32  and  _33
REMARK    6  A    between atoms: _38  and  _43
REMARK    7  A    between atoms: _43  and  _46
REMARK    8  A    between atoms: _53  and  _55
REMARK                            x       y       z     vdW  Elec       q    Type
REMARK                         _______ _______ _______ _____ _____    ______ ____
ROOT
ATOM     10  C   UNL     1     -50.816 -30.347 -35.718  0.00  0.00    +0.038 A 
ATOM     11  C   UNL     1     -50.268 -30.534 -37.013  0.00  0.00    +0.047 A 
ATOM     12  C   UNL     1     -49.834 -31.847 -37.463  0.00  0.00    +0.035 A 
ATOM     32  C   UNL     1     -49.975 -32.949 -36.570  0.00  0.00    +0.024 A 
ATOM     33  C   UNL     1     -50.529 -32.776 -35.250  0.00  0.00    +0.007 A 
ATOM     34  C   UNL     1     -50.957 -31.483 -34.799  0.00  0.00    -0.029 A 
ATOM     35  C   UNL     1     -51.537 -31.355 -33.372  0.00  0.00    +0.045 C 
ENDROOT
BRANCH  10   9
ATOM      4  C   UNL     1     -54.073 -26.830 -35.466  0.00  0.00    +0.077 A 
ATOM      5  C   UNL     1     -55.051 -27.604 -36.176  0.00  0.00    +0.048 A 
ATOM      6  C   UNL     1     -54.673 -28.900 -36.595  0.00  0.00    +0.116 A 
ATOM      7  N   UNL     1     -53.409 -29.376 -36.318  0.00  0.00    -0.223 NA
ATOM      8  C   UNL     1     -52.490 -28.603 -35.633  0.00  0.00    +0.220 A 
ATOM      9  N   UNL     1     -51.217 -29.064 -35.338  0.00  0.00    -0.283 N 
ATOM     36  H   UNL     1     -50.565 -28.460 -34.837  0.00  0.00    +0.155 HD
ATOM     37  N   UNL     1     -52.826 -27.362 -35.224  0.00  0.00    -0.214 NA
BRANCH   4   3
ATOM      1  C   UNL     1     -55.362 -23.812 -33.337  0.00  0.00    +0.020 A 
ATOM      2  C   UNL     1     -55.153 -25.168 -33.790  0.00  0.00    +0.013 A 
ATOM      3  C   UNL     1     -54.323 -25.445 -34.955  0.00  0.00    +0.019 A 
ATOM     38  C   UNL     1     -53.713 -24.319 -35.645  0.00  0.00    +0.120 A 
ATOM     39  N   UNL     1     -53.934 -23.023 -35.188  0.00  0.00    -0.263 NA
ATOM     40  C   UNL     1     -54.732 -22.745 -34.068  0.00  0.00    +0.111 A 
ENDBRANCH   4   3
ENDBRANCH  10   9
BRANCH  12  13
ATOM     13  N   UNL     1     -49.263 -32.097 -38.763  0.00  0.00    -0.281 N 
ATOM     14  C   UNL     1     -48.620 -31.197 -39.598  0.00  0.00    +0.248 C 
ATOM     30  O   UNL     1     -48.627 -29.985 -39.444  0.00  0.00    -0.270 OA
ATOM     31  H   UNL     1     -49.342 -33.053 -39.111  0.00  0.00    +0.155 HD
BRANCH  14  15
ATOM     15  C   UNL     1     -47.873 -31.719 -40.783  0.00  0.00    +0.037 A 
ATOM     16  C   UNL     1     -46.536 -31.221 -41.118  0.00  0.00    +0.013 A 
ATOM     17  C   UNL     1     -45.845 -31.729 -42.276  0.00  0.00    +0.005 A 
ATOM     18  C   UNL     1     -46.489 -32.742 -43.108  0.00  0.00    -0.033 A 
ATOM     28  C   UNL     1     -47.814 -33.221 -42.750  0.00  0.00    +0.005 A 
ATOM     29  C   UNL     1     -48.495 -32.725 -41.616  0.00  0.00    +0.013 A 
BRANCH  18  19
ATOM     19  C   UNL     1     -45.835 -33.325 -44.375  0.00  0.00    +0.119 C 
BRANCH  19  20
ATOM     20  N   UNL     1     -44.742 -34.324 -44.182  0.00  0.00    -0.302 NA
ATOM     21  C   UNL     1     -43.790 -34.374 -45.381  0.00  0.00    +0.066 C 
ATOM     22  C   UNL     1     -42.640 -35.408 -45.152  0.00  0.00    -0.064 C 
ATOM     23  N   UNL     1     -43.244 -36.787 -44.882  0.00  0.00    +0.379 N 
ATOM     24  C   UNL     1     -42.165 -37.773 -44.724  0.00  0.00    -0.096 C 
ATOM     25  H   UNL     1     -43.839 -37.077 -45.779  0.00  0.00    -0.082 HD
ATOM     26  C   UNL     1     -44.194 -36.745 -43.693  0.00  0.00    -0.064 C 
ATOM     27  C   UNL     1     -45.316 -35.694 -43.918  0.00  0.00    +0.066 C 
ENDBRANCH  19  20
ENDBRANCH  18  19
ENDBRANCH  14  15
ENDBRANCH  12  13
TORSDOF 6
ENDMDL
MODEL 2
REMARK VINA RESULT:     -10.9      1.809      2.190
REMARK  Name = C:\Users\Docking\Desktop\test protocol\1iep_ligandH.pdb
REMARK  8 active torsions:
REMARK  status: ('A' for Active; 'I' for Inactive)
REMARK    1  A    between atoms: _5  and  _11
REMARK    2  A    between atoms: _19  and  _21
REMARK    3  A    between atoms: _22  and  _66
REMARK    4  A    between atoms: _27  and  _30
REMARK    5  A    between atoms: _32  and  _33
REMARK    6  A    between atoms: _38  and  _43
REMARK    7  A    between atoms: _43  and  _46
REMARK    8  A    between atoms: _53  and  _55
REMARK                            x       y       z     vdW  Elec       q    Type
REMARK                         _______ _______ _______ _____ _____    ______ ____
ROOT
ATOM     10  C   UNL     1     -50.604 -29.383 -36.638  0.00  0.00    +0.038 A 
ATOM     11  C   UNL     1     -49.936 -29.942 -37.757  0.00  0.00    +0.047 A 
ATOM     12  C   UNL     1     -49.735 -31.378 -37.873  0.00  0.00    +0.035 A 
ATOM     32  C   UNL     1     -50.228 -32.216 -36.831  0.00  0.00    +0.024 A 
ATOM     33  C   UNL     1     -50.908 -31.664 -35.685  0.00  0.00    +0.007 A 
ATOM     34  C   UNL     1     -51.107 -30.248 -35.564  0.00  0.00    -0.029 A 
ATOM     35  C   UNL     1     -51.837 -29.711 -34.311  0.00  0.00    +0.045 C 
ENDROOT
BRANCH  10   9
ATOM      4  C   UNL     1     -53.135 -25.385 -37.441  0.00  0.00    +0.077 A 
ATOM      5  C   UNL     1     -54.206 -26.116 -38.056  0.00  0.00    +0.048 A 
ATOM      6  C   UNL     1     -54.063 -27.518 -38.152  0.00  0.00    +0.116 A 
ATOM      7  N   UNL     1     -52.929 -28.133 -37.666  0.00  0.00    -0.223 NA
ATOM      8  C   UNL     1     -51.915 -27.399 -37.081  0.00  0.00    +0.220 A 
ATOM      9  N   UNL     1     -50.770 -27.997 -36.578  0.00  0.00    -0.283 N 
ATOM     36  H   UNL     1     -50.041 -27.419 -36.161  0.00  0.00    +0.155 HD
ATOM     37  N   UNL     1     -52.027 -26.058 -36.978  0.00  0.00    -0.214 NA
BRANCH   4   3
ATOM      1  C   UNL     1     -51.987 -21.690 -36.867  0.00  0.00    +0.020 A 
ATOM      2  C   UNL     1     -51.928 -23.124 -37.032  0.00  0.00    +0.013 A 
ATOM      3  C   UNL     1     -53.140 -23.898 -37.263  0.00  0.00    +0.019 A 
ATOM     38  C   UNL     1     -54.408 -23.185 -37.324  0.00  0.00    +0.120 A 
ATOM     39  N   UNL     1     -54.434 -21.804 -37.160  0.00  0.00    -0.263 NA
ATOM     40  C   UNL     1     -53.274 -21.048 -36.935  0.00  0.00    +0.111 A 
ENDBRANCH   4   3
ENDBRANCH  10   9
BRANCH  12  13
ATOM     13  N   UNL     1     -49.058 -32.003 -38.982  0.00  0.00    -0.281 N 
ATOM     14  C   UNL     1     -49.375 -31.923 -40.328  0.00  0.00    +0.248 C 
ATOM     30  O   UNL     1     -50.424 -31.472 -40.765  0.00  0.00    -0.270 OA
ATOM     31  H   UNL     1     -48.245 -32.573 -38.747  0.00  0.00    +0.155 HD
BRANCH  14  15
ATOM     15  C   UNL     1     -48.392 -32.430 -41.333  0.00  0.00    +0.037 A 
ATOM     16  C   UNL     1     -48.677 -33.619 -42.142  0.00  0.00    +0.013 A 
ATOM     17  C   UNL     1     -47.705 -34.097 -43.092  0.00  0.00    +0.005 A 
ATOM     18  C   UNL     1     -46.438 -33.384 -43.240  0.00  0.00    -0.033 A 
ATOM     28  C   UNL     1     -46.183 -32.205 -42.429  0.00  0.00    +0.005 A 
ATOM     29  C   UNL     1     -47.134 -31.734 -41.496  0.00  0.00    +0.013 A 
BRANCH  18  19
ATOM     19  C   UNL     1     -45.333 -33.836 -44.214  0.00  0.00    +0.119 C 
BRANCH  19  20
ATOM     20  N   UNL     1     -44.487 -34.994 -43.799  0.00  0.00    -0.302 NA
ATOM     21  C   UNL     1     -43.204 -35.094 -44.629  0.00  0.00    +0.066 C 
ATOM     22  C   UNL     1     -42.319 -36.298 -44.166  0.00  0.00    -0.064 C 
ATOM     23  N   UNL     1     -43.131 -37.591 -44.266  0.00  0.00    +0.379 N 
ATOM     24  C   UNL     1     -42.284 -38.731 -43.887  0.00  0.00    -0.096 C 
ATOM     25  H   UNL     1     -43.422 -37.725 -45.333  0.00  0.00    -0.082 HD
ATOM     26  C   UNL     1     -44.410 -37.499 -43.446  0.00  0.00    -0.064 C 
ATOM     27  C   UNL     1     -45.267 -36.282 -43.894  0.00  0.00    +0.066 C 
ENDBRANCH  19  20
ENDBRANCH  18  19
ENDBRANCH  14  15
ENDBRANCH  12  13
TORSDOF 6
ENDMDL
MODEL 3
REMARK VINA RESULT:     -10.5      2.590     12.648
REMARK  Name = C:\Users\Docking\Desktop\test protocol\1iep_ligandH.pdb
REMARK  8 active torsions:
REMARK  status: ('A' for Active; 'I' for Inactive)
REMARK    1  A    between atoms: _5  and  _11
REMARK    2  A    between atoms: _19  and  _21
REMARK    3  A    between atoms: _22  and  _66
REMARK    4  A    between atoms: _27  and  _30
REMARK    5  A    between atoms: _32  and  _33
REMARK    6  A    between atoms: _38  and  _43
REMARK    7  A    between atoms: _43  and  _46
REMARK    8  A    between atoms: _53  and  _55
REMARK                            x       y       z     vdW  Elec       q    Type
REMARK                         _______ _______ _______ _____ _____    ______ ____
ROOT
ATOM     10  C   UNL     1     -50.787 -31.403 -36.142  0.00  0.00    +0.038 A 
ATOM     11  C   UNL     1     -51.171 -30.043 -36.262  0.00  0.00    +0.047 A 
ATOM     12  C   UNL     1     -51.605 -29.278 -35.103  0.00  0.00    +0.035 A 
ATOM     32  C   UNL     1     -51.632 -29.930 -33.835  0.00  0.00    +0.024 A 
ATOM     33  C   UNL     1     -51.247 -31.312 -33.695  0.00  0.00    +0.007 A 
ATOM     34  C   UNL     1     -50.820 -32.072 -34.836  0.00  0.00    -0.029 A 
ATOM     35  C   UNL     1     -50.424 -33.552 -34.628  0.00  0.00    +0.045 C 
ENDROOT
BRANCH  10   9
ATOM      4  C   UNL     1     -48.561 -31.601 -40.390  0.00  0.00    +0.077 A 
ATOM      5  C   UNL     1     -48.204 -30.213 -40.334  0.00  0.00    +0.048 A 
ATOM      6  C   UNL     1     -48.618 -29.481 -39.198  0.00  0.00    +0.116 A 
ATOM      7  N   UNL     1     -49.336 -30.102 -38.199  0.00  0.00    -0.223 NA
ATOM      8  C   UNL     1     -49.665 -31.442 -38.285  0.00  0.00    +0.220 A 
ATOM      9  N   UNL     1     -50.379 -32.089 -37.288  0.00  0.00    -0.283 N 
ATOM     36  H   UNL     1     -50.609 -33.077 -37.392  0.00  0.00    +0.155 HD
ATOM     37  N   UNL     1     -49.283 -32.162 -39.360  0.00  0.00    -0.214 NA
BRANCH   4   3
ATOM      1  C   UNL     1     -48.591 -34.511 -43.004  0.00  0.00    +0.020 A 
ATOM      2  C   UNL     1     -48.991 -33.668 -41.900  0.00  0.00    +0.013 A 
ATOM      3  C   UNL     1     -48.193 -32.507 -41.523  0.00  0.00    +0.019 A 
ATOM     38  C   UNL     1     -46.989 -32.225 -42.289  0.00  0.00    +0.120 A 
ATOM     39  N   UNL     1     -46.628 -33.056 -43.345  0.00  0.00    -0.263 NA
ATOM     40  C   UNL     1     -47.386 -34.176 -43.716  0.00  0.00    +0.111 A 
ENDBRANCH   4   3
ENDBRANCH  10   9
BRANCH  12  13
ATOM     13  N   UNL     1     -52.014 -27.897 -35.165  0.00  0.00    -0.281 N 
ATOM     14  C   UNL     1     -53.302 -27.392 -35.227  0.00  0.00    +0.248 C 
ATOM     30  O   UNL     1     -54.297 -28.064 -35.455  0.00  0.00    -0.270 OA
ATOM     31  H   UNL     1     -51.262 -27.207 -35.163  0.00  0.00    +0.155 HD
BRANCH  14  15
ATOM     15  C   UNL     1     -53.515 -25.927 -35.020  0.00  0.00    +0.037 A 
ATOM     16  C   UNL     1     -53.596 -25.004 -36.155  0.00  0.00    +0.013 A 
ATOM     17  C   UNL     1     -53.785 -23.593 -35.926  0.00  0.00    +0.005 A 
ATOM     18  C   UNL     1     -53.895 -23.097 -34.556  0.00  0.00    -0.033 A 
ATOM     28  C   UNL     1     -53.816 -24.036 -33.450  0.00  0.00    +0.005 A 
ATOM     29  C   UNL     1     -53.630 -25.420 -33.670  0.00  0.00    +0.013 A 
BRANCH  18  19
ATOM     19  C   UNL     1     -54.076 -21.606 -34.219  0.00  0.00    +0.119 C 
BRANCH  19  20
ATOM     20  N   UNL     1     -52.847 -20.828 -33.877  0.00  0.00    -0.302 NA
ATOM     21  C   UNL     1     -51.617 -21.336 -34.633  0.00  0.00    +0.066 C 
ATOM     22  C   UNL     1     -50.345 -20.497 -34.281  0.00  0.00    -0.064 C 
ATOM     23  N   UNL     1     -50.110 -20.543 -32.770  0.00  0.00    +0.379 N 
ATOM     24  C   UNL     1     -48.883 -19.803 -32.442  0.00  0.00    -0.096 C 
ATOM     25  H   UNL     1     -49.949 -21.609 -32.485  0.00  0.00    -0.082 HD
ATOM     26  C   UNL     1     -51.330 -20.042 -32.010  0.00  0.00    -0.064 C 
ATOM     27  C   UNL     1     -52.594 -20.863 -32.390  0.00  0.00    +0.066 C 
ENDBRANCH  19  20
ENDBRANCH  18  19
ENDBRANCH  14  15
ENDBRANCH  12  13
TORSDOF 6
ENDMDL
MODEL 4
REMARK VINA RESULT:     -10.4      1.990      2.859
REMARK  Name = C:\Users\Docking\Desktop\test protocol\1iep_ligandH.pdb
REMARK  8 active torsions:
REMARK  status: ('A' for Active; 'I' for Inactive)
REMARK    1  A    between atoms: _5  and  _11
REMARK    2  A    between atoms: _19  and  _21
REMARK    3  A    between atoms: _22  and  _66
REMARK    4  A    between atoms: _27  and  _30
REMARK    5  A    between atoms: _32  and  _33
REMARK    6  A    between atoms: _38  and  _43
REMARK    7  A    between atoms: _43  and  _46
REMARK    8  A    between atoms: _53  and  _55
REMARK                            x       y       z     vdW  Elec       q    Type
REMARK                         _______ _______ _______ _____ _____    ______ ____
ROOT
ATOM     10  C   UNL     1     -50.498 -30.239 -35.486  0.00  0.00    +0.038 A 
ATOM     11  C   UNL     1     -49.983 -30.488 -36.783  0.00  0.00    +0.047 A 
ATOM     12  C   UNL     1     -49.476 -31.800 -37.153  0.00  0.00    +0.035 A 
ATOM     32  C   UNL     1     -49.511 -32.838 -36.176  0.00  0.00    +0.024 A 
ATOM     33  C   UNL     1     -50.030 -32.602 -34.852  0.00  0.00    +0.007 A 
ATOM     34  C   UNL     1     -50.529 -31.309 -34.481  0.00  0.00    -0.029 A 
ATOM     35  C   UNL     1     -51.068 -31.111 -33.045  0.00  0.00    +0.045 C 
ENDROOT
BRANCH  10   9
ATOM      4  C   UNL     1     -53.955 -26.910 -35.436  0.00  0.00    +0.077 A 
ATOM      5  C   UNL     1     -54.887 -27.783 -36.088  0.00  0.00    +0.048 A 
ATOM      6  C   UNL     1     -54.435 -29.079 -36.426  0.00  0.00    +0.116 A 
ATOM      7  N   UNL     1     -53.145 -29.461 -36.129  0.00  0.00    -0.223 NA
ATOM      8  C   UNL     1     -52.271 -28.594 -35.501  0.00  0.00    +0.220 A 
ATOM      9  N   UNL     1     -50.972 -28.960 -35.185  0.00  0.00    -0.283 N 
ATOM     36  H   UNL     1     -50.355 -28.289 -34.728  0.00  0.00    +0.155 HD
ATOM     37  N   UNL     1     -52.678 -27.351 -35.169  0.00  0.00    -0.214 NA
BRANCH   4   3
ATOM      1  C   UNL     1     -55.378 -23.841 -33.472  0.00  0.00    +0.020 A 
ATOM      2  C   UNL     1     -55.090 -25.209 -33.837  0.00  0.00    +0.013 A 
ATOM      3  C   UNL     1     -54.284 -25.512 -35.013  0.00  0.00    +0.019 A 
ATOM     38  C   UNL     1     -53.780 -24.399 -35.804  0.00  0.00    +0.120 A 
ATOM     39  N   UNL     1     -54.075 -23.092 -35.429  0.00  0.00    -0.263 NA
ATOM     40  C   UNL     1     -54.851 -22.788 -34.300  0.00  0.00    +0.111 A 
ENDBRANCH   4   3
ENDBRANCH  10   9
BRANCH  12  13
ATOM     13  N   UNL     1     -48.933 -32.110 -38.453  0.00  0.00    -0.281 N 
ATOM     14  C   UNL     1     -49.240 -31.517 -39.667  0.00  0.00    +0.248 C 
ATOM     30  O   UNL     1     -50.190 -30.771 -39.851  0.00  0.00    -0.270 OA
ATOM     31  H   UNL     1     -48.239 -32.857 -38.481  0.00  0.00    +0.155 HD
BRANCH  14  15
ATOM     15  C   UNL     1     -48.375 -31.807 -40.850  0.00  0.00    +0.037 A 
ATOM     16  C   UNL     1     -48.601 -32.990 -41.685  0.00  0.00    +0.013 A 
ATOM     17  C   UNL     1     -47.741 -33.255 -42.811  0.00  0.00    +0.005 A 
ATOM     18  C   UNL     1     -46.647 -32.334 -43.110  0.00  0.00    -0.033 A 
ATOM     28  C   UNL     1     -46.449 -31.165 -42.269  0.00  0.00    +0.005 A 
ATOM     29  C   UNL     1     -47.289 -30.903 -41.163  0.00  0.00    +0.013 A 
BRANCH  18  19
ATOM     19  C   UNL     1     -45.668 -32.549 -44.279  0.00  0.00    +0.119 C 
BRANCH  19  20
ATOM     20  N   UNL     1     -46.022 -31.930 -45.591  0.00  0.00    -0.302 NA
ATOM     21  C   UNL     1     -47.029 -32.777 -46.373  0.00  0.00    +0.066 C 
ATOM     22  C   UNL     1     -47.405 -32.103 -47.733  0.00  0.00    -0.064 C 
ATOM     23  N   UNL     1     -46.135 -31.874 -48.555  0.00  0.00    +0.379 N 
ATOM     24  C   UNL     1     -46.492 -31.294 -49.857  0.00  0.00    -0.096 C 
ATOM     25  H   UNL     1     -45.672 -32.871 -48.743  0.00  0.00    -0.082 HD
ATOM     26  C   UNL     1     -45.127 -31.035 -47.783  0.00  0.00    -0.064 C 
ATOM     27  C   UNL     1     -44.783 -31.699 -46.420  0.00  0.00    +0.066 C 
ENDBRANCH  19  20
ENDBRANCH  18  19
ENDBRANCH  14  15
ENDBRANCH  12  13
TORSDOF 6
ENDMDL
MODEL 5
REMARK VINA RESULT:      -9.9      8.218     13.072
REMARK  Name = C:\Users\Docking\Desktop\test protocol\1iep_ligandH.pdb
REMARK  8 active torsions:
REMARK  status: ('A' for Active; 'I' for Inactive)
REMARK    1  A    between atoms: _5  and  _11
REMARK    2  A    between atoms: _19  and  _21
REMARK    3  A    between atoms: _22  and  _66
REMARK    4  A    between atoms: _27  and  _30
REMARK    5  A    between atoms: _32  and  _33
REMARK    6  A    between atoms: _38  and  _43
REMARK    7  A    between atoms: _43  and  _46
REMARK    8  A    between atoms: _53  and  _55
REMARK                            x       y       z     vdW  Elec       q    Type
REMARK                         _______ _______ _______ _____ _____    ______ ____
ROOT
ATOM     10  C   UNL     1     -52.555 -36.031 -48.765  0.00  0.00    +0.038 A 
ATOM     11  C   UNL     1     -51.901 -35.531 -47.610  0.00  0.00    +0.047 A 
ATOM     12  C   UNL     1     -50.455 -35.376 -47.572  0.00  0.00    +0.035 A 
ATOM     32  C   UNL     1     -49.706 -35.736 -48.730  0.00  0.00    +0.024 A 
ATOM     33  C   UNL     1     -50.355 -36.246 -49.912  0.00  0.00    +0.007 A 
ATOM     34  C   UNL     1     -51.781 -36.404 -49.954  0.00  0.00    -0.029 A 
ATOM     35  C   UNL     1     -52.422 -36.962 -51.246  0.00  0.00    +0.045 C 
ENDROOT
BRANCH  10   9
ATOM      4  C   UNL     1     -56.602 -37.992 -47.088  0.00  0.00    +0.077 A 
ATOM      5  C   UNL     1     -55.884 -38.852 -46.192  0.00  0.00    +0.048 A 
ATOM      6  C   UNL     1     -54.474 -38.764 -46.198  0.00  0.00    +0.116 A 
ATOM      7  N   UNL     1     -53.840 -37.877 -47.042  0.00  0.00    -0.223 NA
ATOM      8  C   UNL     1     -54.562 -37.063 -47.895  0.00  0.00    +0.220 A 
ATOM      9  N   UNL     1     -53.946 -36.159 -48.746  0.00  0.00    -0.283 N 
ATOM     36  H   UNL     1     -54.514 -35.582 -49.365  0.00  0.00    +0.155 HD
ATOM     37  N   UNL     1     -55.910 -37.130 -47.908  0.00  0.00    -0.214 NA
BRANCH   4   3
ATOM      1  C   UNL     1     -60.403 -37.695 -46.212  0.00  0.00    +0.020 A 
ATOM      2  C   UNL     1     -58.967 -37.710 -46.055  0.00  0.00    +0.013 A 
ATOM      3  C   UNL     1     -58.095 -37.966 -47.194  0.00  0.00    +0.019 A 
ATOM     38  C   UNL     1     -58.714 -38.205 -48.490  0.00  0.00    +0.120 A 
ATOM     39  N   UNL     1     -60.100 -38.186 -48.610  0.00  0.00    -0.263 NA
ATOM     40  C   UNL     1     -60.948 -37.943 -47.520  0.00  0.00    +0.111 A 
ENDBRANCH   4   3
ENDBRANCH  10   9
BRANCH  12  13
ATOM     13  N   UNL     1     -49.735 -34.882 -46.424  0.00  0.00    -0.281 N 
ATOM     14  C   UNL     1     -48.530 -34.198 -46.405  0.00  0.00    +0.248 C 
ATOM     30  O   UNL     1     -47.778 -34.095 -47.363  0.00  0.00    -0.270 OA
ATOM     31  H   UNL     1     -50.166 -35.057 -45.517  0.00  0.00    +0.155 HD
BRANCH  14  15
ATOM     15  C   UNL     1     -48.089 -33.548 -45.133  0.00  0.00    +0.037 A 
ATOM     16  C   UNL     1     -48.092 -34.281 -43.864  0.00  0.00    +0.013 A 
ATOM     17  C   UNL     1     -47.678 -33.625 -42.649  0.00  0.00    +0.005 A 
ATOM     18  C   UNL     1     -47.256 -32.227 -42.698  0.00  0.00    -0.033 A 
ATOM     28  C   UNL     1     -47.258 -31.526 -43.971  0.00  0.00    +0.005 A 
ATOM     29  C   UNL     1     -47.664 -32.165 -45.164  0.00  0.00    +0.013 A 
BRANCH  18  19
ATOM     19  C   UNL     1     -46.819 -31.441 -41.448  0.00  0.00    +0.119 C 
BRANCH  19  20
ATOM     20  N   UNL     1     -47.877 -30.692 -40.707  0.00  0.00    -0.302 NA
ATOM     21  C   UNL     1     -47.508 -29.218 -40.514  0.00  0.00    +0.066 C 
ATOM     22  C   UNL     1     -48.636 -28.444 -39.756  0.00  0.00    -0.064 C 
ATOM     23  N   UNL     1     -48.896 -29.118 -38.408  0.00  0.00    +0.379 N 
ATOM     24  C   UNL     1     -49.915 -28.359 -37.669  0.00  0.00    -0.096 C 
ATOM     25  H   UNL     1     -47.950 -29.076 -37.820  0.00  0.00    -0.082 HD
ATOM     26  C   UNL     1     -49.261 -30.585 -38.591  0.00  0.00    -0.064 C 
ATOM     27  C   UNL     1     -48.147 -31.338 -39.370  0.00  0.00    +0.066 C 
ENDBRANCH  19  20
ENDBRANCH  18  19
ENDBRANCH  14  15
ENDBRANCH  12  13
TORSDOF 6
ENDMDL
