MODEL 1
REMARK VINA RESULT:      -7.9      0.000      0.000
REMARK  Name = C:\Users\Docking\Desktop\test protocol\1iep_ligandH.pdb
REMARK  8 active torsions:
REMARK  status: ('A' for Active; 'I' for Inactive)
REMARK    1  A    between atoms: _5  and  _11
REMARK    2  A    between atoms: _19  and  _21
REMARK    3  A    between atoms: _22  and  _66
REMARK    4  A    between atoms: _27  and  _30
REMARK    5  A    between atoms: _32  and  _33
REMARK    6  A    between atoms: _38  and  _43
REMARK    7  A    between atoms: _43  and  _46
REMARK    8  A    between atoms: _53  and  _55
REMARK                            x       y       z     vdW  Elec       q    Type
REMARK                         _______ _______ _______ _____ _____    ______ ____
ROOT
ATOM     10  C   UNL     1     -48.045  86.255  26.880  0.00  0.00    +0.038 A 
ATOM     11  C   UNL     1     -47.481  84.993  26.561  0.00  0.00    +0.047 A 
ATOM     12  C   UNL     1     -46.268  84.524  27.213  0.00  0.00    +0.035 A 
ATOM     32  C   UNL     1     -45.657  85.365  28.189  0.00  0.00    +0.024 A 
ATOM     33  C   UNL     1     -46.216  86.651  28.525  0.00  0.00    +0.007 A 
ATOM     34  C   UNL     1     -47.411  87.120  27.883  0.00  0.00    -0.029 A 
ATOM     35  C   UNL     1     -47.962  88.509  28.278  0.00  0.00    +0.045 C 
ENDROOT
BRANCH  10   9
ATOM      4  C   UNL     1     -50.335  88.276  23.179  0.00  0.00    +0.077 A 
ATOM      5  C   UNL     1     -49.104  88.585  22.509  0.00  0.00    +0.048 A 
ATOM      6  C   UNL     1     -47.903  88.213  23.155  0.00  0.00    +0.116 A 
ATOM      7  N   UNL     1     -47.943  87.580  24.378  0.00  0.00    -0.223 NA
ATOM      8  C   UNL     1     -49.147  87.298  24.997  0.00  0.00    +0.220 A 
ATOM      9  N   UNL     1     -49.210  86.655  26.223  0.00  0.00    -0.283 N 
ATOM     36  H   UNL     1     -50.118  86.472  26.650  0.00  0.00    +0.155 HD
ATOM     37  N   UNL     1     -50.307  87.645  24.402  0.00  0.00    -0.214 NA
BRANCH   4   3
ATOM      1  C   UNL     1     -54.206  88.483  22.655  0.00  0.00    +0.020 A 
ATOM      2  C   UNL     1     -52.926  88.139  23.231  0.00  0.00    +0.013 A 
ATOM      3  C   UNL     1     -51.686  88.603  22.623  0.00  0.00    +0.019 A 
ATOM     38  C   UNL     1     -51.776  89.420  21.422  0.00  0.00    +0.120 A 
ATOM     39  N   UNL     1     -53.022  89.734  20.888  0.00  0.00    -0.263 NA
ATOM     40  C   UNL     1     -54.222  89.292  21.464  0.00  0.00    +0.111 A 
ENDBRANCH   4   3
ENDBRANCH  10   9
BRANCH  12  13
ATOM     13  N   UNL     1     -45.645  83.256  26.925  0.00  0.00    -0.281 N 
ATOM     14  C   UNL     1     -45.523  82.157  27.759  0.00  0.00    +0.248 C 
ATOM     30  O   UNL     1     -45.744  82.175  28.961  0.00  0.00    -0.270 OA
ATOM     31  H   UNL     1     -45.246  83.156  25.991  0.00  0.00    +0.155 HD
BRANCH  14  15
ATOM     15  C   UNL     1     -45.076  80.855  27.178  0.00  0.00    +0.037 A 
ATOM     16  C   UNL     1     -43.758  80.295  27.489  0.00  0.00    +0.013 A 
ATOM     17  C   UNL     1     -43.346  79.046  26.901  0.00  0.00    +0.005 A 
ATOM     18  C   UNL     1     -44.254  78.346  25.996  0.00  0.00    -0.033 A 
ATOM     28  C   UNL     1     -45.558  78.921  25.709  0.00  0.00    +0.005 A 
ATOM     29  C   UNL     1     -45.965  80.146  26.282  0.00  0.00    +0.013 A 
BRANCH  18  19
ATOM     19  C   UNL     1     -43.889  77.017  25.307  0.00  0.00    +0.119 C 
BRANCH  19  20
ATOM     20  N   UNL     1     -42.880  77.072  24.208  0.00  0.00    -0.302 NA
ATOM     21  C   UNL     1     -41.446  77.067  24.744  0.00  0.00    +0.066 C 
ATOM     22  C   UNL     1     -40.403  77.102  23.580  0.00  0.00    -0.064 C 
ATOM     23  N   UNL     1     -40.652  78.337  22.713  0.00  0.00    +0.379 N 
ATOM     24  C   UNL     1     -39.637  78.404  21.652  0.00  0.00    -0.096 C 
ATOM     25  H   UNL     1     -40.525  79.236  23.360  0.00  0.00    -0.082 HD
ATOM     26  C   UNL     1     -42.077  78.352  22.178  0.00  0.00    -0.064 C 
ATOM     27  C   UNL     1     -43.105  78.287  23.341  0.00  0.00    +0.066 C 
ENDBRANCH  19  20
ENDBRANCH  18  19
ENDBRANCH  14  15
ENDBRANCH  12  13
TORSDOF 6
ENDMDL
MODEL 2
REMARK VINA RESULT:      -7.8     16.481     19.488
REMARK  Name = C:\Users\Docking\Desktop\test protocol\1iep_ligandH.pdb
REMARK  8 active torsions:
REMARK  status: ('A' for Active; 'I' for Inactive)
REMARK    1  A    between atoms: _5  and  _11
REMARK    2  A    between atoms: _19  and  _21
REMARK    3  A    between atoms: _22  and  _66
REMARK    4  A    between atoms: _27  and  _30
REMARK    5  A    between atoms: _32  and  _33
REMARK    6  A    between atoms: _38  and  _43
REMARK    7  A    between atoms: _43  and  _46
REMARK    8  A    between atoms: _53  and  _55
REMARK                            x       y       z     vdW  Elec       q    Type
REMARK                         _______ _______ _______ _____ _____    ______ ____
ROOT
ATOM     10  C   UNL     1     -36.311  70.020  26.927  0.00  0.00    +0.038 A 
ATOM     11  C   UNL     1     -35.589  71.239  26.852  0.00  0.00    +0.047 A 
ATOM     12  C   UNL     1     -34.577  71.452  25.829  0.00  0.00    +0.035 A 
ATOM     32  C   UNL     1     -34.327  70.403  24.897  0.00  0.00    +0.024 A 
ATOM     33  C   UNL     1     -35.050  69.157  24.960  0.00  0.00    +0.007 A 
ATOM     34  C   UNL     1     -36.048  68.940  25.968  0.00  0.00    -0.029 A 
ATOM     35  C   UNL     1     -36.789  67.583  25.991  0.00  0.00    +0.045 C 
ENDROOT
BRANCH  10   9
ATOM      4  C   UNL     1     -37.612  68.902  31.410  0.00  0.00    +0.077 A 
ATOM      5  C   UNL     1     -36.268  68.564  31.779  0.00  0.00    +0.048 A 
ATOM      6  C   UNL     1     -35.272  68.684  30.784  0.00  0.00    +0.116 A 
ATOM      7  N   UNL     1     -35.607  69.113  29.517  0.00  0.00    -0.223 NA
ATOM      8  C   UNL     1     -36.913  69.429  29.194  0.00  0.00    +0.220 A 
ATOM      9  N   UNL     1     -37.272  69.869  27.929  0.00  0.00    -0.283 N 
ATOM     36  H   UNL     1     -38.248  70.086  27.729  0.00  0.00    +0.155 HD
ATOM     37  N   UNL     1     -37.883  69.321  30.126  0.00  0.00    -0.214 NA
BRANCH   4   3
ATOM      1  C   UNL     1     -39.778  68.791  34.665  0.00  0.00    +0.020 A 
ATOM      2  C   UNL     1     -38.623  68.864  33.800  0.00  0.00    +0.013 A 
ATOM      3  C   UNL     1     -38.774  68.829  32.351  0.00  0.00    +0.019 A 
ATOM     38  C   UNL     1     -40.118  68.720  31.805  0.00  0.00    +0.120 A 
ATOM     39  N   UNL     1     -41.212  68.650  32.662  0.00  0.00    -0.263 NA
ATOM     40  C   UNL     1     -41.079  68.681  34.058  0.00  0.00    +0.111 A 
ENDBRANCH   4   3
ENDBRANCH  10   9
BRANCH  12  13
ATOM     13  N   UNL     1     -33.806  72.665  25.709  0.00  0.00    -0.281 N 
ATOM     14  C   UNL     1     -34.146  73.826  25.034  0.00  0.00    +0.248 C 
ATOM     30  O   UNL     1     -35.077  73.921  24.248  0.00  0.00    -0.270 OA
ATOM     31  H   UNL     1     -32.900  72.668  26.178  0.00  0.00    +0.155 HD
BRANCH  14  15
ATOM     15  C   UNL     1     -33.324  75.055  25.253  0.00  0.00    +0.037 A 
ATOM     16  C   UNL     1     -31.861  75.013  25.180  0.00  0.00    +0.013 A 
ATOM     17  C   UNL     1     -31.092  76.210  25.412  0.00  0.00    +0.005 A 
ATOM     18  C   UNL     1     -31.785  77.459  25.717  0.00  0.00    -0.033 A 
ATOM     28  C   UNL     1     -33.237  77.473  25.777  0.00  0.00    +0.005 A 
ATOM     29  C   UNL     1     -33.994  76.302  25.552  0.00  0.00    +0.013 A 
BRANCH  18  19
ATOM     19  C   UNL     1     -31.043  78.780  25.999  0.00  0.00    +0.119 C 
BRANCH  19  20
ATOM     20  N   UNL     1     -30.049  78.781  27.114  0.00  0.00    -0.302 NA
ATOM     21  C   UNL     1     -30.721  78.642  28.483  0.00  0.00    +0.066 C 
ATOM     22  C   UNL     1     -29.665  78.623  29.636  0.00  0.00    -0.064 C 
ATOM     23  N   UNL     1     -28.822  79.898  29.573  0.00  0.00    +0.379 N 
ATOM     24  C   UNL     1     -27.866  79.910  30.690  0.00  0.00    -0.096 C 
ATOM     25  H   UNL     1     -29.510  80.765  29.706  0.00  0.00    -0.082 HD
ATOM     26  C   UNL     1     -28.152  80.045  28.213  0.00  0.00    -0.064 C 
ATOM     27  C   UNL     1     -29.208  80.033  27.073  0.00  0.00    +0.066 C 
ENDBRANCH  19  20
ENDBRANCH  18  19
ENDBRANCH  14  15
ENDBRANCH  12  13
TORSDOF 6
ENDMDL
MODEL 3
REMARK VINA RESULT:      -7.7      4.420     10.726
REMARK  Name = C:\Users\Docking\Desktop\test protocol\1iep_ligandH.pdb
REMARK  8 active torsions:
REMARK  status: ('A' for Active; 'I' for Inactive)
REMARK    1  A    between atoms: _5  and  _11
REMARK    2  A    between atoms: _19  and  _21
REMARK    3  A    between atoms: _22  and  _66
REMARK    4  A    between atoms: _27  and  _30
REMARK    5  A    between atoms: _32  and  _33
REMARK    6  A    between atoms: _38  and  _43
REMARK    7  A    between atoms: _43  and  _46
REMARK    8  A    between atoms: _53  and  _55
REMARK                            x       y       z     vdW  Elec       q    Type
REMARK                         _______ _______ _______ _____ _____    ______ ____
ROOT
ATOM     10  C   UNL     1     -44.751  84.196  28.508  0.00  0.00    +0.038 A 
ATOM     11  C   UNL     1     -45.486  84.879  27.505  0.00  0.00    +0.047 A 
ATOM     12  C   UNL     1     -46.218  84.151  26.480  0.00  0.00    +0.035 A 
ATOM     32  C   UNL     1     -46.182  82.726  26.509  0.00  0.00    +0.024 A 
ATOM     33  C   UNL     1     -45.440  82.015  27.520  0.00  0.00    +0.007 A 
ATOM     34  C   UNL     1     -44.714  82.729  28.532  0.00  0.00    -0.029 A 
ATOM     35  C   UNL     1     -43.930  81.915  29.588  0.00  0.00    +0.045 C 
ENDROOT
BRANCH  10   9
ATOM      4  C   UNL     1     -44.610  87.494  31.992  0.00  0.00    +0.077 A 
ATOM      5  C   UNL     1     -46.013  87.766  31.872  0.00  0.00    +0.048 A 
ATOM      6  C   UNL     1     -46.734  87.041  30.897  0.00  0.00    +0.116 A 
ATOM      7  N   UNL     1     -46.089  86.115  30.106  0.00  0.00    -0.223 NA
ATOM      8  C   UNL     1     -44.734  85.878  30.246  0.00  0.00    +0.220 A 
ATOM      9  N   UNL     1     -44.067  84.945  29.467  0.00  0.00    -0.283 N 
ATOM     36  H   UNL     1     -43.065  84.805  29.596  0.00  0.00    +0.155 HD
ATOM     37  N   UNL     1     -44.023  86.558  31.169  0.00  0.00    -0.214 NA
BRANCH   4   3
ATOM      1  C   UNL     1     -41.477  89.087  33.709  0.00  0.00    +0.020 A 
ATOM      2  C   UNL     1     -42.299  88.424  32.724  0.00  0.00    +0.013 A 
ATOM      3  C   UNL     1     -43.713  88.176  32.978  0.00  0.00    +0.019 A 
ATOM     38  C   UNL     1     -44.269  88.617  34.248  0.00  0.00    +0.120 A 
ATOM     39  N   UNL     1     -43.452  89.253  35.179  0.00  0.00    -0.263 NA
ATOM     40  C   UNL     1     -42.090  89.495  34.946  0.00  0.00    +0.111 A 
ENDBRANCH   4   3
ENDBRANCH  10   9
BRANCH  12  13
ATOM     13  N   UNL     1     -46.974  84.790  25.432  0.00  0.00    -0.281 N 
ATOM     14  C   UNL     1     -48.091  85.600  25.561  0.00  0.00    +0.248 C 
ATOM     30  O   UNL     1     -48.739  85.724  26.589  0.00  0.00    -0.270 OA
ATOM     31  H   UNL     1     -46.646  84.626  24.480  0.00  0.00    +0.155 HD
BRANCH  14  15
ATOM     15  C   UNL     1     -48.563  86.371  24.371  0.00  0.00    +0.037 A 
ATOM     16  C   UNL     1     -49.343  87.602  24.525  0.00  0.00    +0.013 A 
ATOM     17  C   UNL     1     -49.802  88.318  23.361  0.00  0.00    +0.005 A 
ATOM     18  C   UNL     1     -49.479  87.805  22.031  0.00  0.00    -0.033 A 
ATOM     28  C   UNL     1     -48.699  86.584  21.908  0.00  0.00    +0.005 A 
ATOM     29  C   UNL     1     -48.249  85.879  23.047  0.00  0.00    +0.013 A 
BRANCH  18  19
ATOM     19  C   UNL     1     -49.945  88.492  20.734  0.00  0.00    +0.119 C 
BRANCH  19  20
ATOM     20  N   UNL     1     -48.914  89.225  19.941  0.00  0.00    -0.302 NA
ATOM     21  C   UNL     1     -48.347  88.369  18.805  0.00  0.00    +0.066 C 
ATOM     22  C   UNL     1     -47.286  89.159  17.971  0.00  0.00    -0.064 C 
ATOM     23  N   UNL     1     -46.168  89.639  18.898  0.00  0.00    +0.379 N 
ATOM     24  C   UNL     1     -45.140  90.333  18.108  0.00  0.00    -0.096 C 
ATOM     25  H   UNL     1     -45.695  88.737  19.352  0.00  0.00    -0.082 HD
ATOM     26  C   UNL     1     -46.723  90.489  20.032  0.00  0.00    -0.064 C 
ATOM     27  C   UNL     1     -47.798  89.704  20.836  0.00  0.00    +0.066 C 
ENDBRANCH  19  20
ENDBRANCH  18  19
ENDBRANCH  14  15
ENDBRANCH  12  13
TORSDOF 6
ENDMDL
MODEL 4
REMARK VINA RESULT:      -7.6      7.504     12.334
REMARK  Name = C:\Users\Docking\Desktop\test protocol\1iep_ligandH.pdb
REMARK  8 active torsions:
REMARK  status: ('A' for Active; 'I' for Inactive)
REMARK    1  A    between atoms: _5  and  _11
REMARK    2  A    between atoms: _19  and  _21
REMARK    3  A    between atoms: _22  and  _66
REMARK    4  A    between atoms: _27  and  _30
REMARK    5  A    between atoms: _32  and  _33
REMARK    6  A    between atoms: _38  and  _43
REMARK    7  A    between atoms: _43  and  _46
REMARK    8  A    between atoms: _53  and  _55
REMARK                            x       y       z     vdW  Elec       q    Type
REMARK                         _______ _______ _______ _____ _____    ______ ____
ROOT
ATOM     10  C   UNL     1     -40.977  76.843  25.660  0.00  0.00    +0.038 A 
ATOM     11  C   UNL     1     -40.686  75.738  26.499  0.00  0.00    +0.047 A 
ATOM     12  C   UNL     1     -40.199  74.483  25.948  0.00  0.00    +0.035 A 
ATOM     32  C   UNL     1     -40.017  74.390  24.537  0.00  0.00    +0.024 A 
ATOM     33  C   UNL     1     -40.309  75.504  23.670  0.00  0.00    +0.007 A 
ATOM     34  C   UNL     1     -40.792  76.743  24.207  0.00  0.00    -0.029 A 
ATOM     35  C   UNL     1     -41.095  77.902  23.229  0.00  0.00    +0.045 C 
ENDROOT
BRANCH  10   9
ATOM      4  C   UNL     1     -44.494  79.912  26.779  0.00  0.00    +0.077 A 
ATOM      5  C   UNL     1     -45.485  79.107  26.124  0.00  0.00    +0.048 A 
ATOM      6  C   UNL     1     -45.047  77.915  25.505  0.00  0.00    +0.116 A 
ATOM      7  N   UNL     1     -43.715  77.563  25.545  0.00  0.00    -0.223 NA
ATOM      8  C   UNL     1     -42.785  78.363  26.184  0.00  0.00    +0.220 A 
ATOM      9  N   UNL     1     -41.442  78.024  26.243  0.00  0.00    -0.283 N 
ATOM     36  H   UNL     1     -40.786  78.645  26.717  0.00  0.00    +0.155 HD
ATOM     37  N   UNL     1     -43.178  79.507  26.781  0.00  0.00    -0.214 NA
BRANCH   4   3
ATOM      1  C   UNL     1     -45.858  83.486  27.595  0.00  0.00    +0.020 A 
ATOM      2  C   UNL     1     -45.590  82.263  26.874  0.00  0.00    +0.013 A 
ATOM      3  C   UNL     1     -44.801  81.198  27.481  0.00  0.00    +0.019 A 
ATOM     38  C   UNL     1     -44.296  81.403  28.830  0.00  0.00    +0.120 A 
ATOM     39  N   UNL     1     -44.569  82.592  29.500  0.00  0.00    -0.263 NA
ATOM     40  C   UNL     1     -45.326  83.624  28.925  0.00  0.00    +0.111 A 
ENDBRANCH   4   3
ENDBRANCH  10   9
BRANCH  12  13
ATOM     13  N   UNL     1     -39.894  73.323  26.749  0.00  0.00    -0.281 N 
ATOM     14  C   UNL     1     -40.630  72.156  26.873  0.00  0.00    +0.248 C 
ATOM     30  O   UNL     1     -41.777  72.017  26.475  0.00  0.00    -0.270 OA
ATOM     31  H   UNL     1     -39.032  73.369  27.292  0.00  0.00    +0.155 HD
BRANCH  14  15
ATOM     15  C   UNL     1     -40.006  70.977  27.548  0.00  0.00    +0.037 A 
ATOM     16  C   UNL     1     -40.725  69.707  27.677  0.00  0.00    +0.013 A 
ATOM     17  C   UNL     1     -40.107  68.591  28.348  0.00  0.00    +0.005 A 
ATOM     18  C   UNL     1     -38.760  68.741  28.895  0.00  0.00    -0.033 A 
ATOM     28  C   UNL     1     -38.068  70.011  28.749  0.00  0.00    +0.005 A 
ATOM     29  C   UNL     1     -38.671  71.107  28.092  0.00  0.00    +0.013 A 
BRANCH  18  19
ATOM     19  C   UNL     1     -38.032  67.610  29.645  0.00  0.00    +0.119 C 
BRANCH  19  20
ATOM     20  N   UNL     1     -36.539  67.634  29.635  0.00  0.00    -0.302 NA
ATOM     21  C   UNL     1     -35.949  66.399  28.948  0.00  0.00    +0.066 C 
ATOM     22  C   UNL     1     -34.387  66.452  28.926  0.00  0.00    -0.064 C 
ATOM     23  N   UNL     1     -33.864  66.576  30.358  0.00  0.00    +0.379 N 
ATOM     24  C   UNL     1     -32.393  66.567  30.346  0.00  0.00    -0.096 C 
ATOM     25  H   UNL     1     -34.203  65.676  30.922  0.00  0.00    -0.082 HD
ATOM     26  C   UNL     1     -34.447  67.800  31.050  0.00  0.00    -0.064 C 
ATOM     27  C   UNL     1     -36.001  67.752  31.040  0.00  0.00    +0.066 C 
ENDBRANCH  19  20
ENDBRANCH  18  19
ENDBRANCH  14  15
ENDBRANCH  12  13
TORSDOF 6
ENDMDL
MODEL 5
REMARK VINA RESULT:      -7.6     17.584     21.695
REMARK  Name = C:\Users\Docking\Desktop\test protocol\1iep_ligandH.pdb
REMARK  8 active torsions:
REMARK  status: ('A' for Active; 'I' for Inactive)
REMARK    1  A    between atoms: _5  and  _11
REMARK    2  A    between atoms: _19  and  _21
REMARK    3  A    between atoms: _22  and  _66
REMARK    4  A    between atoms: _27  and  _30
REMARK    5  A    between atoms: _32  and  _33
REMARK    6  A    between atoms: _38  and  _43
REMARK    7  A    between atoms: _43  and  _46
REMARK    8  A    between atoms: _53  and  _55
REMARK                            x       y       z     vdW  Elec       q    Type
REMARK                         _______ _______ _______ _____ _____    ______ ____
ROOT
ATOM     10  C   UNL     1     -38.495  68.128  32.563  0.00  0.00    +0.038 A 
ATOM     11  C   UNL     1     -37.583  67.166  32.060  0.00  0.00    +0.047 A 
ATOM     12  C   UNL     1     -36.146  67.385  32.123  0.00  0.00    +0.035 A 
ATOM     32  C   UNL     1     -35.673  68.596  32.708  0.00  0.00    +0.024 A 
ATOM     33  C   UNL     1     -36.586  69.585  33.224  0.00  0.00    +0.007 A 
ATOM     34  C   UNL     1     -38.004  69.375  33.162  0.00  0.00    -0.029 A 
ATOM     35  C   UNL     1     -38.936  70.474  33.724  0.00  0.00    +0.045 C 
ENDROOT
BRANCH  10   9
ATOM      4  C   UNL     1     -42.673  68.178  30.201  0.00  0.00    +0.077 A 
ATOM      5  C   UNL     1     -42.084  68.804  29.053  0.00  0.00    +0.048 A 
ATOM      6  C   UNL     1     -40.705  69.104  29.113  0.00  0.00    +0.116 A 
ATOM      7  N   UNL     1     -39.978  68.795  30.242  0.00  0.00    -0.223 NA
ATOM      8  C   UNL     1     -40.577  68.193  31.333  0.00  0.00    +0.220 A 
ATOM      9  N   UNL     1     -39.864  67.866  32.476  0.00  0.00    -0.283 N 
ATOM     36  H   UNL     1     -40.344  67.429  33.263  0.00  0.00    +0.155 HD
ATOM     37  N   UNL     1     -41.893  67.898  31.301  0.00  0.00    -0.214 NA
BRANCH   4   3
ATOM      1  C   UNL     1     -46.397  67.422  29.274  0.00  0.00    +0.020 A 
ATOM      2  C   UNL     1     -45.009  67.799  29.136  0.00  0.00    +0.013 A 
ATOM      3  C   UNL     1     -44.118  67.797  30.289  0.00  0.00    +0.019 A 
ATOM     38  C   UNL     1     -44.667  67.404  31.578  0.00  0.00    +0.120 A 
ATOM     39  N   UNL     1     -46.008  67.047  31.681  0.00  0.00    -0.263 NA
ATOM     40  C   UNL     1     -46.875  67.047  30.579  0.00  0.00    +0.111 A 
ENDBRANCH   4   3
ENDBRANCH  10   9
BRANCH  12  13
ATOM     13  N   UNL     1     -35.172  66.448  31.621  0.00  0.00    -0.281 N 
ATOM     14  C   UNL     1     -34.375  66.569  30.494  0.00  0.00    +0.248 C 
ATOM     30  O   UNL     1     -34.533  67.412  29.624  0.00  0.00    -0.270 OA
ATOM     31  H   UNL     1     -35.056  65.591  32.162  0.00  0.00    +0.155 HD
BRANCH  14  15
ATOM     15  C   UNL     1     -33.250  65.606  30.299  0.00  0.00    +0.037 A 
ATOM     16  C   UNL     1     -33.445  64.345  29.579  0.00  0.00    +0.013 A 
ATOM     17  C   UNL     1     -32.346  63.425  29.419  0.00  0.00    +0.005 A 
ATOM     18  C   UNL     1     -31.041  63.765  29.981  0.00  0.00    -0.033 A 
ATOM     28  C   UNL     1     -30.874  65.025  30.686  0.00  0.00    +0.005 A 
ATOM     29  C   UNL     1     -31.949  65.928  30.845  0.00  0.00    +0.013 A 
BRANCH  18  19
ATOM     19  C   UNL     1     -29.818  62.835  29.877  0.00  0.00    +0.119 C 
BRANCH  19  20
ATOM     20  N   UNL     1     -29.811  61.616  30.740  0.00  0.00    -0.302 NA
ATOM     21  C   UNL     1     -30.696  60.504  30.170  0.00  0.00    +0.066 C 
ATOM     22  C   UNL     1     -30.660  59.228  31.074  0.00  0.00    -0.064 C 
ATOM     23  N   UNL     1     -31.099  59.598  32.491  0.00  0.00    +0.379 N 
ATOM     24  C   UNL     1     -31.121  58.389  33.329  0.00  0.00    -0.096 C 
ATOM     25  H   UNL     1     -32.142  59.987  32.431  0.00  0.00    -0.082 HD
ATOM     26  C   UNL     1     -30.225  60.705  33.064  0.00  0.00    -0.064 C 
ATOM     27  C   UNL     1     -30.246  61.957  32.144  0.00  0.00    +0.066 C 
ENDBRANCH  19  20
ENDBRANCH  18  19
ENDBRANCH  14  15
ENDBRANCH  12  13
TORSDOF 6
ENDMDL
