MODEL 1
REMARK VINA RESULT:      -8.1      0.000      0.000
REMARK  Name = C:\Users\Docking\Desktop\test protocol\1iep_ligandH.pdb
REMARK  8 active torsions:
REMARK  status: ('A' for Active; 'I' for Inactive)
REMARK    1  A    between atoms: _5  and  _11
REMARK    2  A    between atoms: _19  and  _21
REMARK    3  A    between atoms: _22  and  _66
REMARK    4  A    between atoms: _27  and  _30
REMARK    5  A    between atoms: _32  and  _33
REMARK    6  A    between atoms: _38  and  _43
REMARK    7  A    between atoms: _43  and  _46
REMARK    8  A    between atoms: _53  and  _55
REMARK                            x       y       z     vdW  Elec       q    Type
REMARK                         _______ _______ _______ _____ _____    ______ ____
ROOT
ATOM     10  C   UNL     1     -18.370  33.070 -10.051  0.00  0.00    +0.038 A 
ATOM     11  C   UNL     1     -18.742  32.061 -10.975  0.00  0.00    +0.047 A 
ATOM     12  C   UNL     1     -18.745  30.657 -10.596  0.00  0.00    +0.035 A 
ATOM     32  C   UNL     1     -18.365  30.316  -9.265  0.00  0.00    +0.024 A 
ATOM     33  C   UNL     1     -17.983  31.329  -8.313  0.00  0.00    +0.007 A 
ATOM     34  C   UNL     1     -17.976  32.716  -8.682  0.00  0.00    -0.029 A 
ATOM     35  C   UNL     1     -17.551  33.758  -7.622  0.00  0.00    +0.045 C 
ENDROOT
BRANCH  10   9
ATOM      4  C   UNL     1     -20.624  37.234 -10.838  0.00  0.00    +0.077 A 
ATOM      5  C   UNL     1     -21.884  36.701 -10.405  0.00  0.00    +0.048 A 
ATOM      6  C   UNL     1     -21.911  35.350  -9.994  0.00  0.00    +0.116 A 
ATOM      7  N   UNL     1     -20.757  34.596 -10.019  0.00  0.00    -0.223 NA
ATOM      8  C   UNL     1     -19.559  35.140 -10.444  0.00  0.00    +0.220 A 
ATOM      9  N   UNL     1     -18.385  34.403 -10.469  0.00  0.00    -0.283 N 
ATOM     36  H   UNL     1     -17.523  34.839 -10.796  0.00  0.00    +0.155 HD
ATOM     37  N   UNL     1     -19.508  36.428 -10.842  0.00  0.00    -0.214 NA
BRANCH   4   3
ATOM      1  C   UNL     1     -19.448  40.381 -12.841  0.00  0.00    +0.020 A 
ATOM      2  C   UNL     1     -19.597  39.002 -12.437  0.00  0.00    +0.013 A 
ATOM      3  C   UNL     1     -20.435  38.646 -11.298  0.00  0.00    +0.019 A 
ATOM     38  C   UNL     1     -21.113  39.717 -10.585  0.00  0.00    +0.120 A 
ATOM     39  N   UNL     1     -20.949  41.036 -10.996  0.00  0.00    -0.263 NA
ATOM     40  C   UNL     1     -20.145  41.391 -12.089  0.00  0.00    +0.111 A 
ENDBRANCH   4   3
ENDBRANCH  10   9
BRANCH  12  13
ATOM     13  N   UNL     1     -19.106  29.588 -11.494  0.00  0.00    -0.281 N 
ATOM     14  C   UNL     1     -20.301  29.412 -12.172  0.00  0.00    +0.248 C 
ATOM     30  O   UNL     1     -21.324  30.039 -11.942  0.00  0.00    -0.270 OA
ATOM     31  H   UNL     1     -18.394  28.874 -11.648  0.00  0.00    +0.155 HD
BRANCH  14  15
ATOM     15  C   UNL     1     -20.373  28.382 -13.252  0.00  0.00    +0.037 A 
ATOM     16  C   UNL     1     -19.501  27.204 -13.239  0.00  0.00    +0.013 A 
ATOM     17  C   UNL     1     -19.579  26.234 -14.302  0.00  0.00    +0.005 A 
ATOM     18  C   UNL     1     -20.536  26.437 -15.388  0.00  0.00    -0.033 A 
ATOM     28  C   UNL     1     -21.392  27.612 -15.373  0.00  0.00    +0.005 A 
ATOM     29  C   UNL     1     -21.317  28.565 -14.334  0.00  0.00    +0.013 A 
BRANCH  18  19
ATOM     19  C   UNL     1     -20.673  25.465 -16.574  0.00  0.00    +0.119 C 
BRANCH  19  20
ATOM     20  N   UNL     1     -21.360  24.164 -16.316  0.00  0.00    -0.302 NA
ATOM     21  C   UNL     1     -22.453  24.294 -15.251  0.00  0.00    +0.066 C 
ATOM     22  C   UNL     1     -23.177  22.929 -15.010  0.00  0.00    -0.064 C 
ATOM     23  N   UNL     1     -22.147  21.873 -14.604  0.00  0.00    +0.379 N 
ATOM     24  C   UNL     1     -22.832  20.604 -14.321  0.00  0.00    -0.096 C 
ATOM     25  H   UNL     1     -21.666  22.216 -13.659  0.00  0.00    -0.082 HD
ATOM     26  C   UNL     1     -21.056  21.740 -15.657  0.00  0.00    -0.064 C 
ATOM     27  C   UNL     1     -20.363  23.108 -15.910  0.00  0.00    +0.066 C 
ENDBRANCH  19  20
ENDBRANCH  18  19
ENDBRANCH  14  15
ENDBRANCH  12  13
TORSDOF 6
ENDMDL
MODEL 2
REMARK VINA RESULT:      -8.1      3.404     11.925
REMARK  Name = C:\Users\Docking\Desktop\test protocol\1iep_ligandH.pdb
REMARK  8 active torsions:
REMARK  status: ('A' for Active; 'I' for Inactive)
REMARK    1  A    between atoms: _5  and  _11
REMARK    2  A    between atoms: _19  and  _21
REMARK    3  A    between atoms: _22  and  _66
REMARK    4  A    between atoms: _27  and  _30
REMARK    5  A    between atoms: _32  and  _33
REMARK    6  A    between atoms: _38  and  _43
REMARK    7  A    between atoms: _43  and  _46
REMARK    8  A    between atoms: _53  and  _55
REMARK                            x       y       z     vdW  Elec       q    Type
REMARK                         _______ _______ _______ _____ _____    ______ ____
ROOT
ATOM     10  C   UNL     1     -21.325  27.776 -14.683  0.00  0.00    +0.038 A 
ATOM     11  C   UNL     1     -20.933  28.934 -13.964  0.00  0.00    +0.047 A 
ATOM     12  C   UNL     1     -21.299  29.112 -12.567  0.00  0.00    +0.035 A 
ATOM     32  C   UNL     1     -22.064  28.090 -11.933  0.00  0.00    +0.024 A 
ATOM     33  C   UNL     1     -22.471  26.907 -12.650  0.00  0.00    +0.007 A 
ATOM     34  C   UNL     1     -22.115  26.726 -14.028  0.00  0.00    -0.029 A 
ATOM     35  C   UNL     1     -22.585  25.441 -14.748  0.00  0.00    +0.045 C 
ENDROOT
BRANCH  10   9
ATOM      4  C   UNL     1     -21.795  28.881 -19.330  0.00  0.00    +0.077 A 
ATOM      5  C   UNL     1     -22.907  29.750 -19.072  0.00  0.00    +0.048 A 
ATOM      6  C   UNL     1     -23.331  29.880 -17.730  0.00  0.00    +0.116 A 
ATOM      7  N   UNL     1     -22.685  29.187 -16.730  0.00  0.00    -0.223 NA
ATOM      8  C   UNL     1     -21.616  28.356 -17.013  0.00  0.00    +0.220 A 
ATOM      9  N   UNL     1     -20.946  27.656 -16.022  0.00  0.00    -0.283 N 
ATOM     36  H   UNL     1     -20.168  27.047 -16.273  0.00  0.00    +0.155 HD
ATOM     37  N   UNL     1     -21.193  28.214 -18.287  0.00  0.00    -0.214 NA
BRANCH   4   3
ATOM      1  C   UNL     1     -19.623  27.519 -22.285  0.00  0.00    +0.020 A 
ATOM      2  C   UNL     1     -20.134  27.713 -20.947  0.00  0.00    +0.013 A 
ATOM      3  C   UNL     1     -21.227  28.643 -20.695  0.00  0.00    +0.019 A 
ATOM     38  C   UNL     1     -21.786  29.367 -21.827  0.00  0.00    +0.120 A 
ATOM     39  N   UNL     1     -21.272  29.161 -23.103  0.00  0.00    -0.263 NA
ATOM     40  C   UNL     1     -20.220  28.270 -23.358  0.00  0.00    +0.111 A 
ENDBRANCH   4   3
ENDBRANCH  10   9
BRANCH  12  13
ATOM     13  N   UNL     1     -20.937  30.270 -11.789  0.00  0.00    -0.281 N 
ATOM     14  C   UNL     1     -19.670  30.785 -11.568  0.00  0.00    +0.248 C 
ATOM     30  O   UNL     1     -18.630  30.201 -11.833  0.00  0.00    -0.270 OA
ATOM     31  H   UNL     1     -21.708  30.771 -11.346  0.00  0.00    +0.155 HD
BRANCH  14  15
ATOM     15  C   UNL     1     -19.539  32.140 -10.949  0.00  0.00    +0.037 A 
ATOM     16  C   UNL     1     -18.519  32.416  -9.934  0.00  0.00    +0.013 A 
ATOM     17  C   UNL     1     -18.426  33.727  -9.341  0.00  0.00    +0.005 A 
ATOM     18  C   UNL     1     -19.355  34.772  -9.764  0.00  0.00    -0.033 A 
ATOM     28  C   UNL     1     -20.353  34.472 -10.777  0.00  0.00    +0.005 A 
ATOM     29  C   UNL     1     -20.448  33.188 -11.360  0.00  0.00    +0.013 A 
BRANCH  18  19
ATOM     19  C   UNL     1     -19.341  36.193  -9.170  0.00  0.00    +0.119 C 
BRANCH  19  20
ATOM     20  N   UNL     1     -19.913  37.289 -10.007  0.00  0.00    -0.302 NA
ATOM     21  C   UNL     1     -18.890  37.849 -11.000  0.00  0.00    +0.066 C 
ATOM     22  C   UNL     1     -19.512  38.979 -11.883  0.00  0.00    -0.064 C 
ATOM     23  N   UNL     1     -20.053  40.089 -10.979  0.00  0.00    +0.379 N 
ATOM     24  C   UNL     1     -20.586  41.180 -11.808  0.00  0.00    -0.096 C 
ATOM     25  H   UNL     1     -19.195  40.496 -10.395  0.00  0.00    -0.082 HD
ATOM     26  C   UNL     1     -21.069  39.541  -9.988  0.00  0.00    -0.064 C 
ATOM     27  C   UNL     1     -20.450  38.398  -9.135  0.00  0.00    +0.066 C 
ENDBRANCH  19  20
ENDBRANCH  18  19
ENDBRANCH  14  15
ENDBRANCH  12  13
TORSDOF 6
ENDMDL
MODEL 3
REMARK VINA RESULT:      -8.0      9.038     11.539
REMARK  Name = C:\Users\Docking\Desktop\test protocol\1iep_ligandH.pdb
REMARK  8 active torsions:
REMARK  status: ('A' for Active; 'I' for Inactive)
REMARK    1  A    between atoms: _5  and  _11
REMARK    2  A    between atoms: _19  and  _21
REMARK    3  A    between atoms: _22  and  _66
REMARK    4  A    between atoms: _27  and  _30
REMARK    5  A    between atoms: _32  and  _33
REMARK    6  A    between atoms: _38  and  _43
REMARK    7  A    between atoms: _43  and  _46
REMARK    8  A    between atoms: _53  and  _55
REMARK                            x       y       z     vdW  Elec       q    Type
REMARK                         _______ _______ _______ _____ _____    ______ ____
ROOT
ATOM     10  C   UNL     1     -17.010  40.986 -21.350  0.00  0.00    +0.038 A 
ATOM     11  C   UNL     1     -17.379  39.618 -21.419  0.00  0.00    +0.047 A 
ATOM     12  C   UNL     1     -17.920  39.046 -22.642  0.00  0.00    +0.035 A 
ATOM     32  C   UNL     1     -18.070  39.895 -23.777  0.00  0.00    +0.024 A 
ATOM     33  C   UNL     1     -17.701  41.287 -23.724  0.00  0.00    +0.007 A 
ATOM     34  C   UNL     1     -17.169  41.858 -22.519  0.00  0.00    -0.029 A 
ATOM     35  C   UNL     1     -16.796  43.359 -22.518  0.00  0.00    +0.045 C 
ENDROOT
BRANCH  10   9
ATOM      4  C   UNL     1     -17.551  42.937 -16.998  0.00  0.00    +0.077 A 
ATOM      5  C   UNL     1     -18.978  42.995 -17.137  0.00  0.00    +0.048 A 
ATOM      6  C   UNL     1     -19.532  42.520 -18.346  0.00  0.00    +0.116 A 
ATOM      7  N   UNL     1     -18.712  42.025 -19.336  0.00  0.00    -0.223 NA
ATOM      8  C   UNL     1     -17.339  41.984 -19.171  0.00  0.00    +0.220 A 
ATOM      9  N   UNL     1     -16.496  41.483 -20.150  0.00  0.00    -0.283 N 
ATOM     36  H   UNL     1     -15.488  41.477 -19.993  0.00  0.00    +0.155 HD
ATOM     37  N   UNL     1     -16.785  42.433 -18.026  0.00  0.00    -0.214 NA
BRANCH   4   3
ATOM      1  C   UNL     1     -14.889  43.290 -14.154  0.00  0.00    +0.020 A 
ATOM      2  C   UNL     1     -15.558  42.807 -15.340  0.00  0.00    +0.013 A 
ATOM      3  C   UNL     1     -16.816  43.398 -15.778  0.00  0.00    +0.019 A 
ATOM     38  C   UNL     1     -17.375  44.485 -14.988  0.00  0.00    +0.120 A 
ATOM     39  N   UNL     1     -16.708  44.928 -13.849  0.00  0.00    -0.263 NA
ATOM     40  C   UNL     1     -15.498  44.366 -13.417  0.00  0.00    +0.111 A 
ENDBRANCH   4   3
ENDBRANCH  10   9
BRANCH  12  13
ATOM     13  N   UNL     1     -18.320  37.666 -22.769  0.00  0.00    -0.281 N 
ATOM     14  C   UNL     1     -19.537  37.097 -22.429  0.00  0.00    +0.248 C 
ATOM     30  O   UNL     1     -20.397  37.652 -21.762  0.00  0.00    -0.270 OA
ATOM     31  H   UNL     1     -17.621  37.032 -23.156  0.00  0.00    +0.155 HD
BRANCH  14  15
ATOM     15  C   UNL     1     -19.835  35.705 -22.884  0.00  0.00    +0.037 A 
ATOM     16  C   UNL     1     -21.161  35.337 -23.385  0.00  0.00    +0.013 A 
ATOM     17  C   UNL     1     -21.427  33.983 -23.802  0.00  0.00    +0.005 A 
ATOM     18  C   UNL     1     -20.362  32.986 -23.720  0.00  0.00    -0.033 A 
ATOM     28  C   UNL     1     -19.054  33.380 -23.224  0.00  0.00    +0.005 A 
ATOM     29  C   UNL     1     -18.790  34.706 -22.814  0.00  0.00    +0.013 A 
BRANCH  18  19
ATOM     19  C   UNL     1     -20.562  31.513 -24.123  0.00  0.00    +0.119 C 
BRANCH  19  20
ATOM     20  N   UNL     1     -20.314  30.478 -23.075  0.00  0.00    -0.302 NA
ATOM     21  C   UNL     1     -19.682  29.211 -23.658  0.00  0.00    +0.066 C 
ATOM     22  C   UNL     1     -19.408  28.148 -22.545  0.00  0.00    -0.064 C 
ATOM     23  N   UNL     1     -20.717  27.818 -21.825  0.00  0.00    +0.379 N 
ATOM     24  C   UNL     1     -20.474  26.776 -20.817  0.00  0.00    -0.096 C 
ATOM     25  H   UNL     1     -21.422  27.400 -22.581  0.00  0.00    -0.082 HD
ATOM     26  C   UNL     1     -21.354  29.073 -21.245  0.00  0.00    -0.064 C 
ATOM     27  C   UNL     1     -21.594  30.135 -22.354  0.00  0.00    +0.066 C 
ENDBRANCH  19  20
ENDBRANCH  18  19
ENDBRANCH  14  15
ENDBRANCH  12  13
TORSDOF 6
ENDMDL
MODEL 4
REMARK VINA RESULT:      -7.9     11.413     16.078
REMARK  Name = C:\Users\Docking\Desktop\test protocol\1iep_ligandH.pdb
REMARK  8 active torsions:
REMARK  status: ('A' for Active; 'I' for Inactive)
REMARK    1  A    between atoms: _5  and  _11
REMARK    2  A    between atoms: _19  and  _21
REMARK    3  A    between atoms: _22  and  _66
REMARK    4  A    between atoms: _27  and  _30
REMARK    5  A    between atoms: _32  and  _33
REMARK    6  A    between atoms: _38  and  _43
REMARK    7  A    between atoms: _43  and  _46
REMARK    8  A    between atoms: _53  and  _55
REMARK                            x       y       z     vdW  Elec       q    Type
REMARK                         _______ _______ _______ _____ _____    ______ ____
ROOT
ATOM     10  C   UNL     1      -9.434  30.967  -0.028  0.00  0.00    +0.038 A 
ATOM     11  C   UNL     1     -10.337  30.911  -1.120  0.00  0.00    +0.047 A 
ATOM     12  C   UNL     1     -11.557  31.703  -1.130  0.00  0.00    +0.035 A 
ATOM     32  C   UNL     1     -11.824  32.546  -0.012  0.00  0.00    +0.024 A 
ATOM     33  C   UNL     1     -10.917  32.614   1.107  0.00  0.00    +0.007 A 
ATOM     34  C   UNL     1      -9.714  31.833   1.124  0.00  0.00    -0.029 A 
ATOM     35  C   UNL     1      -8.782  31.941   2.353  0.00  0.00    +0.045 C 
ENDROOT
BRANCH  10   9
ATOM      4  C   UNL     1      -6.955  27.013   1.093  0.00  0.00    +0.077 A 
ATOM      5  C   UNL     1      -8.046  26.473   1.852  0.00  0.00    +0.048 A 
ATOM      6  C   UNL     1      -9.225  27.247   1.935  0.00  0.00    +0.116 A 
ATOM      7  N   UNL     1      -9.297  28.469   1.302  0.00  0.00    -0.223 NA
ATOM      8  C   UNL     1      -8.225  28.962   0.580  0.00  0.00    +0.220 A 
ATOM      9  N   UNL     1      -8.278  30.184  -0.072  0.00  0.00    -0.283 N 
ATOM     36  H   UNL     1      -7.464  30.516  -0.588  0.00  0.00    +0.155 HD
ATOM     37  N   UNL     1      -7.088  28.242   0.486  0.00  0.00    -0.214 NA
BRANCH   4   3
ATOM      1  C   UNL     1      -3.785  25.387  -0.521  0.00  0.00    +0.020 A 
ATOM      2  C   UNL     1      -5.054  26.067  -0.399  0.00  0.00    +0.013 A 
ATOM      3  C   UNL     1      -5.645  26.313   0.910  0.00  0.00    +0.019 A 
ATOM     38  C   UNL     1      -4.920  25.853   2.086  0.00  0.00    +0.120 A 
ATOM     39  N   UNL     1      -3.701  25.199   1.937  0.00  0.00    -0.263 NA
ATOM     40  C   UNL     1      -3.124  24.956   0.682  0.00  0.00    +0.111 A 
ENDBRANCH   4   3
ENDBRANCH  10   9
BRANCH  12  13
ATOM     13  N   UNL     1     -12.515  31.681  -2.207  0.00  0.00    -0.281 N 
ATOM     14  C   UNL     1     -13.803  31.171  -2.191  0.00  0.00    +0.248 C 
ATOM     30  O   UNL     1     -14.253  30.460  -1.305  0.00  0.00    -0.270 OA
ATOM     31  H   UNL     1     -12.207  32.092  -3.089  0.00  0.00    +0.155 HD
BRANCH  14  15
ATOM     15  C   UNL     1     -14.718  31.483  -3.331  0.00  0.00    +0.037 A 
ATOM     16  C   UNL     1     -14.922  30.531  -4.425  0.00  0.00    +0.013 A 
ATOM     17  C   UNL     1     -15.797  30.865  -5.521  0.00  0.00    +0.005 A 
ATOM     18  C   UNL     1     -16.476  32.158  -5.526  0.00  0.00    -0.033 A 
ATOM     28  C   UNL     1     -16.260  33.082  -4.425  0.00  0.00    +0.005 A 
ATOM     29  C   UNL     1     -15.402  32.759  -3.350  0.00  0.00    +0.013 A 
BRANCH  18  19
ATOM     19  C   UNL     1     -17.411  32.607  -6.665  0.00  0.00    +0.119 C 
BRANCH  19  20
ATOM     20  N   UNL     1     -17.529  31.704  -7.849  0.00  0.00    -0.302 NA
ATOM     21  C   UNL     1     -17.498  32.480  -9.169  0.00  0.00    +0.066 C 
ATOM     22  C   UNL     1     -17.599  31.519 -10.397  0.00  0.00    -0.064 C 
ATOM     23  N   UNL     1     -18.879  30.688 -10.287  0.00  0.00    +0.379 N 
ATOM     24  C   UNL     1     -19.007  29.825 -11.470  0.00  0.00    -0.096 C 
ATOM     25  H   UNL     1     -19.741  31.395 -10.289  0.00  0.00    -0.082 HD
ATOM     26  C   UNL     1     -18.919  29.915  -8.977  0.00  0.00    -0.064 C 
ATOM     27  C   UNL     1     -18.788  30.877  -7.763  0.00  0.00    +0.066 C 
ENDBRANCH  19  20
ENDBRANCH  18  19
ENDBRANCH  14  15
ENDBRANCH  12  13
TORSDOF 6
ENDMDL
MODEL 5
REMARK VINA RESULT:      -7.9      4.482     11.605
REMARK  Name = C:\Users\Docking\Desktop\test protocol\1iep_ligandH.pdb
REMARK  8 active torsions:
REMARK  status: ('A' for Active; 'I' for Inactive)
REMARK    1  A    between atoms: _5  and  _11
REMARK    2  A    between atoms: _19  and  _21
REMARK    3  A    between atoms: _22  and  _66
REMARK    4  A    between atoms: _27  and  _30
REMARK    5  A    between atoms: _32  and  _33
REMARK    6  A    between atoms: _38  and  _43
REMARK    7  A    between atoms: _43  and  _46
REMARK    8  A    between atoms: _53  and  _55
REMARK                            x       y       z     vdW  Elec       q    Type
REMARK                         _______ _______ _______ _____ _____    ______ ____
ROOT
ATOM     10  C   UNL     1     -21.351  27.269 -15.303  0.00  0.00    +0.038 A 
ATOM     11  C   UNL     1     -20.720  28.127 -14.366  0.00  0.00    +0.047 A 
ATOM     12  C   UNL     1     -21.120  28.137 -12.967  0.00  0.00    +0.035 A 
ATOM     32  C   UNL     1     -22.164  27.258 -12.557  0.00  0.00    +0.024 A 
ATOM     33  C   UNL     1     -22.817  26.380 -13.496  0.00  0.00    +0.007 A 
ATOM     34  C   UNL     1     -22.428  26.367 -14.878  0.00  0.00    -0.029 A 
ATOM     35  C   UNL     1     -23.167  25.410 -15.842  0.00  0.00    +0.045 C 
ENDROOT
BRANCH  10   9
ATOM      4  C   UNL     1     -21.536  29.032 -19.764  0.00  0.00    +0.077 A 
ATOM      5  C   UNL     1     -22.584  29.950 -19.421  0.00  0.00    +0.048 A 
ATOM      6  C   UNL     1     -23.052  29.931 -18.088  0.00  0.00    +0.116 A 
ATOM      7  N   UNL     1     -22.505  29.056 -17.174  0.00  0.00    -0.223 NA
ATOM      8  C   UNL     1     -21.497  28.183 -17.538  0.00  0.00    +0.220 A 
ATOM      9  N   UNL     1     -20.927  27.300 -16.634  0.00  0.00    -0.283 N 
ATOM     36  H   UNL     1     -20.190  26.667 -16.943  0.00  0.00    +0.155 HD
ATOM     37  N   UNL     1     -21.033  28.180 -18.805  0.00  0.00    -0.214 NA
BRANCH   4   3
ATOM      1  C   UNL     1     -19.392  27.875 -22.824  0.00  0.00    +0.020 A 
ATOM      2  C   UNL     1     -19.943  27.926 -21.489  0.00  0.00    +0.013 A 
ATOM      3  C   UNL     1     -20.933  28.934 -21.130  0.00  0.00    +0.019 A 
ATOM     38  C   UNL     1     -21.348  29.881 -22.154  0.00  0.00    +0.120 A 
ATOM     39  N   UNL     1     -20.800  29.808 -23.430  0.00  0.00    -0.263 NA
ATOM     40  C   UNL     1     -19.845  28.844 -23.787  0.00  0.00    +0.111 A 
ENDBRANCH   4   3
ENDBRANCH  10   9
BRANCH  12  13
ATOM     13  N   UNL     1     -20.522  28.992 -11.972  0.00  0.00    -0.281 N 
ATOM     14  C   UNL     1     -19.484  28.693 -11.105  0.00  0.00    +0.248 C 
ATOM     30  O   UNL     1     -19.052  27.567 -10.907  0.00  0.00    -0.270 OA
ATOM     31  H   UNL     1     -20.911  29.932 -11.898  0.00  0.00    +0.155 HD
BRANCH  14  15
ATOM     15  C   UNL     1     -18.843  29.802 -10.336  0.00  0.00    +0.037 A 
ATOM     16  C   UNL     1     -18.198  30.926 -11.019  0.00  0.00    +0.013 A 
ATOM     17  C   UNL     1     -17.572  31.975 -10.253  0.00  0.00    +0.005 A 
ATOM     18  C   UNL     1     -17.590  31.905  -8.794  0.00  0.00    -0.033 A 
ATOM     28  C   UNL     1     -18.242  30.781  -8.142  0.00  0.00    +0.005 A 
ATOM     29  C   UNL     1     -18.856  29.751  -8.890  0.00  0.00    +0.013 A 
BRANCH  18  19
ATOM     19  C   UNL     1     -16.929  32.968  -7.897  0.00  0.00    +0.119 C 
BRANCH  19  20
ATOM     20  N   UNL     1     -17.504  33.167  -6.534  0.00  0.00    -0.302 NA
ATOM     21  C   UNL     1     -18.630  34.204  -6.531  0.00  0.00    +0.066 C 
ATOM     22  C   UNL     1     -19.236  34.383  -5.101  0.00  0.00    -0.064 C 
ATOM     23  N   UNL     1     -18.127  34.784  -4.126  0.00  0.00    +0.379 N 
ATOM     24  C   UNL     1     -18.704  35.009  -2.793  0.00  0.00    -0.096 C 
ATOM     25  H   UNL     1     -17.702  35.752  -4.479  0.00  0.00    -0.082 HD
ATOM     26  C   UNL     1     -17.002  33.759  -4.125  0.00  0.00    -0.064 C 
ATOM     27  C   UNL     1     -16.427  33.567  -5.556  0.00  0.00    +0.066 C 
ENDBRANCH  19  20
ENDBRANCH  18  19
ENDBRANCH  14  15
ENDBRANCH  12  13
TORSDOF 6
ENDMDL
