MODEL 1
REMARK VINA RESULT:      -9.5      0.000      0.000
REMARK  Name = C:\Users\Docking\Desktop\test protocol\1iep_ligandH.pdb
REMARK  8 active torsions:
REMARK  status: ('A' for Active; 'I' for Inactive)
REMARK    1  A    between atoms: _5  and  _11
REMARK    2  A    between atoms: _19  and  _21
REMARK    3  A    between atoms: _22  and  _66
REMARK    4  A    between atoms: _27  and  _30
REMARK    5  A    between atoms: _32  and  _33
REMARK    6  A    between atoms: _38  and  _43
REMARK    7  A    between atoms: _43  and  _46
REMARK    8  A    between atoms: _53  and  _55
REMARK                            x       y       z     vdW  Elec       q    Type
REMARK                         _______ _______ _______ _____ _____    ______ ____
ROOT
ATOM     10  C   UNL     1      -5.735 -19.521   1.539  0.00  0.00    +0.038 A 
ATOM     11  C   UNL     1      -4.910 -20.408   0.801  0.00  0.00    +0.047 A 
ATOM     12  C   UNL     1      -4.398 -21.632   1.398  0.00  0.00    +0.035 A 
ATOM     32  C   UNL     1      -4.748 -21.923   2.749  0.00  0.00    +0.024 A 
ATOM     33  C   UNL     1      -5.584 -21.032   3.514  0.00  0.00    +0.007 A 
ATOM     34  C   UNL     1      -6.090 -19.822   2.931  0.00  0.00    -0.029 A 
ATOM     35  C   UNL     1      -6.977 -18.901   3.801  0.00  0.00    +0.045 C 
ENDROOT
BRANCH  10   9
ATOM      4  C   UNL     1      -5.352 -14.864   0.442  0.00  0.00    +0.077 A 
ATOM      5  C   UNL     1      -4.139 -14.726   1.196  0.00  0.00    +0.048 A 
ATOM      6  C   UNL     1      -3.651 -15.875   1.857  0.00  0.00    +0.116 A 
ATOM      7  N   UNL     1      -4.333 -17.069   1.764  0.00  0.00    -0.223 NA
ATOM      8  C   UNL     1      -5.501 -17.168   1.030  0.00  0.00    +0.220 A 
ATOM      9  N   UNL     1      -6.199 -18.360   0.916  0.00  0.00    -0.283 N 
ATOM     36  H   UNL     1      -7.060 -18.390   0.372  0.00  0.00    +0.155 HD
ATOM     37  N   UNL     1      -5.988 -16.084   0.391  0.00  0.00    -0.214 NA
BRANCH   4   3
ATOM      1  C   UNL     1      -6.120 -12.147  -2.265  0.00  0.00    +0.020 A 
ATOM      2  C   UNL     1      -5.464 -13.233  -1.574  0.00  0.00    +0.013 A 
ATOM      3  C   UNL     1      -5.992 -13.742  -0.314  0.00  0.00    +0.019 A 
ATOM     38  C   UNL     1      -7.195 -13.125   0.224  0.00  0.00    +0.120 A 
ATOM     39  N   UNL     1      -7.804 -12.079  -0.463  0.00  0.00    -0.263 NA
ATOM     40  C   UNL     1      -7.305 -11.581  -1.675  0.00  0.00    +0.111 A 
ENDBRANCH   4   3
ENDBRANCH  10   9
BRANCH  12  13
ATOM     13  N   UNL     1      -3.550 -22.567   0.700  0.00  0.00    -0.281 N 
ATOM     14  C   UNL     1      -2.363 -23.131   1.139  0.00  0.00    +0.248 C 
ATOM     30  O   UNL     1      -1.737 -22.751   2.117  0.00  0.00    -0.270 OA
ATOM     31  H   UNL     1      -3.863 -22.846  -0.229  0.00  0.00    +0.155 HD
BRANCH  14  15
ATOM     15  C   UNL     1      -1.780 -24.273   0.371  0.00  0.00    +0.037 A 
ATOM     16  C   UNL     1      -1.594 -24.197  -1.080  0.00  0.00    +0.013 A 
ATOM     17  C   UNL     1      -1.045 -25.319  -1.799  0.00  0.00    +0.005 A 
ATOM     18  C   UNL     1      -0.676 -26.528  -1.066  0.00  0.00    -0.033 A 
ATOM     28  C   UNL     1      -0.866 -26.574   0.374  0.00  0.00    +0.005 A 
ATOM     29  C   UNL     1      -1.405 -25.476   1.082  0.00  0.00    +0.013 A 
BRANCH  18  19
ATOM     19  C   UNL     1      -0.103 -27.781  -1.754  0.00  0.00    +0.119 C 
BRANCH  19  20
ATOM     20  N   UNL     1      -1.080 -28.747  -2.339  0.00  0.00    -0.302 NA
ATOM     21  C   UNL     1      -1.654 -28.250  -3.669  0.00  0.00    +0.066 C 
ATOM     22  C   UNL     1      -2.657 -29.283  -4.278  0.00  0.00    -0.064 C 
ATOM     23  N   UNL     1      -3.777 -29.555  -3.272  0.00  0.00    +0.379 N 
ATOM     24  C   UNL     1      -4.753 -30.482  -3.865  0.00  0.00    -0.096 C 
ATOM     25  H   UNL     1      -4.300 -28.590  -3.080  0.00  0.00    -0.082 HD
ATOM     26  C   UNL     1      -3.215 -30.047  -1.946  0.00  0.00    -0.064 C 
ATOM     27  C   UNL     1      -2.197 -29.027  -1.364  0.00  0.00    +0.066 C 
ENDBRANCH  19  20
ENDBRANCH  18  19
ENDBRANCH  14  15
ENDBRANCH  12  13
TORSDOF 6
ENDMDL
MODEL 2
REMARK VINA RESULT:      -9.4     14.763     20.792
REMARK  Name = C:\Users\Docking\Desktop\test protocol\1iep_ligandH.pdb
REMARK  8 active torsions:
REMARK  status: ('A' for Active; 'I' for Inactive)
REMARK    1  A    between atoms: _5  and  _11
REMARK    2  A    between atoms: _19  and  _21
REMARK    3  A    between atoms: _22  and  _66
REMARK    4  A    between atoms: _27  and  _30
REMARK    5  A    between atoms: _32  and  _33
REMARK    6  A    between atoms: _38  and  _43
REMARK    7  A    between atoms: _43  and  _46
REMARK    8  A    between atoms: _53  and  _55
REMARK                            x       y       z     vdW  Elec       q    Type
REMARK                         _______ _______ _______ _____ _____    ______ ____
ROOT
ATOM     10  C   UNL     1     -23.531 -12.393  -2.922  0.00  0.00    +0.038 A 
ATOM     11  C   UNL     1     -22.117 -12.472  -2.844  0.00  0.00    +0.047 A 
ATOM     12  C   UNL     1     -21.271 -11.475  -3.482  0.00  0.00    +0.035 A 
ATOM     32  C   UNL     1     -21.900 -10.410  -4.191  0.00  0.00    +0.024 A 
ATOM     33  C   UNL     1     -23.335 -10.315  -4.281  0.00  0.00    +0.007 A 
ATOM     34  C   UNL     1     -24.175 -11.297  -3.656  0.00  0.00    -0.029 A 
ATOM     35  C   UNL     1     -25.708 -11.149  -3.791  0.00  0.00    +0.045 C 
ENDROOT
BRANCH  10   9
ATOM      4  C   UNL     1     -26.124 -14.012   0.778  0.00  0.00    +0.077 A 
ATOM      5  C   UNL     1     -25.918 -12.806   1.527  0.00  0.00    +0.048 A 
ATOM      6  C   UNL     1     -25.132 -11.796   0.927  0.00  0.00    +0.116 A 
ATOM      7  N   UNL     1     -24.598 -11.989  -0.329  0.00  0.00    -0.223 NA
ATOM      8  C   UNL     1     -24.815 -13.165  -1.023  0.00  0.00    +0.220 A 
ATOM      9  N   UNL     1     -24.294 -13.377  -2.290  0.00  0.00    -0.283 N 
ATOM     36  H   UNL     1     -24.471 -14.262  -2.766  0.00  0.00    +0.155 HD
ATOM     37  N   UNL     1     -25.560 -14.145  -0.471  0.00  0.00    -0.214 NA
BRANCH   4   3
ATOM      1  C   UNL     1     -27.159 -17.500   2.215  0.00  0.00    +0.020 A 
ATOM      2  C   UNL     1     -26.333 -16.413   1.744  0.00  0.00    +0.013 A 
ATOM      3  C   UNL     1     -26.933 -15.170   1.276  0.00  0.00    +0.019 A 
ATOM     38  C   UNL     1     -28.383 -15.058   1.298  0.00  0.00    +0.120 A 
ATOM     39  N   UNL     1     -29.154 -16.122   1.756  0.00  0.00    -0.263 NA
ATOM     40  C   UNL     1     -28.588 -17.324   2.207  0.00  0.00    +0.111 A 
ENDBRANCH   4   3
ENDBRANCH  10   9
BRANCH  12  13
ATOM     13  N   UNL     1     -19.830 -11.508  -3.444  0.00  0.00    -0.281 N 
ATOM     14  C   UNL     1     -18.958 -11.838  -4.468  0.00  0.00    +0.248 C 
ATOM     30  O   UNL     1     -19.293 -12.366  -5.518  0.00  0.00    -0.270 OA
ATOM     31  H   UNL     1     -19.401 -11.256  -2.553  0.00  0.00    +0.155 HD
BRANCH  14  15
ATOM     15  C   UNL     1     -17.501 -11.555  -4.295  0.00  0.00    +0.037 A 
ATOM     16  C   UNL     1     -16.491 -12.249  -5.099  0.00  0.00    +0.013 A 
ATOM     17  C   UNL     1     -15.091 -11.969  -4.900  0.00  0.00    +0.005 A 
ATOM     18  C   UNL     1     -14.693 -10.989  -3.892  0.00  0.00    -0.033 A 
ATOM     28  C   UNL     1     -15.715 -10.311  -3.113  0.00  0.00    +0.005 A 
ATOM     29  C   UNL     1     -17.088 -10.584  -3.304  0.00  0.00    +0.013 A 
BRANCH  18  19
ATOM     19  C   UNL     1     -13.221 -10.643  -3.598  0.00  0.00    +0.119 C 
BRANCH  19  20
ATOM     20  N   UNL     1     -12.653 -11.118  -2.301  0.00  0.00    -0.302 NA
ATOM     21  C   UNL     1     -11.458 -10.273  -1.853  0.00  0.00    +0.066 C 
ATOM     22  C   UNL     1     -10.890 -10.769  -0.483  0.00  0.00    -0.064 C 
ATOM     23  N   UNL     1     -10.498 -12.243  -0.601  0.00  0.00    +0.379 N 
ATOM     24  C   UNL     1      -9.911 -12.698   0.668  0.00  0.00    -0.096 C 
ATOM     25  H   UNL     1      -9.710 -12.322  -1.386  0.00  0.00    -0.082 HD
ATOM     26  C   UNL     1     -11.681 -13.091  -1.048  0.00  0.00    -0.064 C 
ATOM     27  C   UNL     1     -12.255 -12.570  -2.396  0.00  0.00    +0.066 C 
ENDBRANCH  19  20
ENDBRANCH  18  19
ENDBRANCH  14  15
ENDBRANCH  12  13
TORSDOF 6
ENDMDL
MODEL 3
REMARK VINA RESULT:      -9.4     20.625     22.655
REMARK  Name = C:\Users\Docking\Desktop\test protocol\1iep_ligandH.pdb
REMARK  8 active torsions:
REMARK  status: ('A' for Active; 'I' for Inactive)
REMARK    1  A    between atoms: _5  and  _11
REMARK    2  A    between atoms: _19  and  _21
REMARK    3  A    between atoms: _22  and  _66
REMARK    4  A    between atoms: _27  and  _30
REMARK    5  A    between atoms: _32  and  _33
REMARK    6  A    between atoms: _38  and  _43
REMARK    7  A    between atoms: _43  and  _46
REMARK    8  A    between atoms: _53  and  _55
REMARK                            x       y       z     vdW  Elec       q    Type
REMARK                         _______ _______ _______ _____ _____    ______ ____
ROOT
ATOM     10  C   UNL     1      -8.654  -0.455   6.139  0.00  0.00    +0.038 A 
ATOM     11  C   UNL     1      -7.470  -0.834   6.822  0.00  0.00    +0.047 A 
ATOM     12  C   UNL     1      -6.250  -1.150   6.095  0.00  0.00    +0.035 A 
ATOM     32  C   UNL     1      -6.271  -1.066   4.673  0.00  0.00    +0.024 A 
ATOM     33  C   UNL     1      -7.466  -0.682   3.962  0.00  0.00    +0.007 A 
ATOM     34  C   UNL     1      -8.673  -0.373   4.674  0.00  0.00    -0.029 A 
ATOM     35  C   UNL     1      -9.926   0.026   3.860  0.00  0.00    +0.045 C 
ENDROOT
BRANCH  10   9
ATOM      4  C   UNL     1     -12.090  -1.664   9.264  0.00  0.00    +0.077 A 
ATOM      5  C   UNL     1     -11.582  -2.999   9.398  0.00  0.00    +0.048 A 
ATOM      6  C   UNL     1     -10.438  -3.336   8.639  0.00  0.00    +0.116 A 
ATOM      7  N   UNL     1      -9.855  -2.401   7.813  0.00  0.00    -0.223 NA
ATOM      8  C   UNL     1     -10.372  -1.122   7.706  0.00  0.00    +0.220 A 
ATOM      9  N   UNL     1      -9.797  -0.163   6.887  0.00  0.00    -0.283 N 
ATOM     36  H   UNL     1     -10.213   0.766   6.831  0.00  0.00    +0.155 HD
ATOM     37  N   UNL     1     -11.464  -0.776   8.419  0.00  0.00    -0.214 NA
BRANCH   4   3
ATOM      1  C   UNL     1     -14.394  -0.064  11.990  0.00  0.00    +0.020 A 
ATOM      2  C   UNL     1     -13.206  -0.539  11.320  0.00  0.00    +0.013 A 
ATOM      3  C   UNL     1     -13.290  -1.156  10.003  0.00  0.00    +0.019 A 
ATOM     38  C   UNL     1     -14.602  -1.278   9.385  0.00  0.00    +0.120 A 
ATOM     39  N   UNL     1     -15.729  -0.812  10.055  0.00  0.00    -0.263 NA
ATOM     40  C   UNL     1     -15.661  -0.218  11.324  0.00  0.00    +0.111 A 
ENDBRANCH   4   3
ENDBRANCH  10   9
BRANCH  12  13
ATOM     13  N   UNL     1      -5.021  -1.549   6.734  0.00  0.00    -0.281 N 
ATOM     14  C   UNL     1      -4.100  -0.745   7.386  0.00  0.00    +0.248 C 
ATOM     30  O   UNL     1      -4.088   0.476   7.333  0.00  0.00    -0.270 OA
ATOM     31  H   UNL     1      -4.803  -2.545   6.702  0.00  0.00    +0.155 HD
BRANCH  14  15
ATOM     15  C   UNL     1      -3.028  -1.391   8.203  0.00  0.00    +0.037 A 
ATOM     16  C   UNL     1      -2.188  -2.456   7.649  0.00  0.00    +0.013 A 
ATOM     17  C   UNL     1      -1.173  -3.074   8.465  0.00  0.00    +0.005 A 
ATOM     18  C   UNL     1      -0.991  -2.627   9.844  0.00  0.00    -0.033 A 
ATOM     28  C   UNL     1      -1.835  -1.564  10.366  0.00  0.00    +0.005 A 
ATOM     29  C   UNL     1      -2.832  -0.957   9.570  0.00  0.00    +0.013 A 
BRANCH  18  19
ATOM     19  C   UNL     1       0.053  -3.244  10.792  0.00  0.00    +0.119 C 
BRANCH  19  20
ATOM     20  N   UNL     1      -0.454  -4.116  11.894  0.00  0.00    -0.302 NA
ATOM     21  C   UNL     1      -0.149  -5.595  11.643  0.00  0.00    +0.066 C 
ATOM     22  C   UNL     1      -0.667  -6.490  12.816  0.00  0.00    -0.064 C 
ATOM     23  N   UNL     1      -2.170  -6.270  12.996  0.00  0.00    +0.379 N 
ATOM     24  C   UNL     1      -2.670  -7.153  14.059  0.00  0.00    -0.096 C 
ATOM     25  H   UNL     1      -2.671  -6.567  12.045  0.00  0.00    -0.082 HD
ATOM     26  C   UNL     1      -2.482  -4.801  13.243  0.00  0.00    -0.064 C 
ATOM     27  C   UNL     1      -1.938  -3.918  12.086  0.00  0.00    +0.066 C 
ENDBRANCH  19  20
ENDBRANCH  18  19
ENDBRANCH  14  15
ENDBRANCH  12  13
TORSDOF 6
ENDMDL
MODEL 4
REMARK VINA RESULT:      -9.4     12.195     18.535
REMARK  Name = C:\Users\Docking\Desktop\test protocol\1iep_ligandH.pdb
REMARK  8 active torsions:
REMARK  status: ('A' for Active; 'I' for Inactive)
REMARK    1  A    between atoms: _5  and  _11
REMARK    2  A    between atoms: _19  and  _21
REMARK    3  A    between atoms: _22  and  _66
REMARK    4  A    between atoms: _27  and  _30
REMARK    5  A    between atoms: _32  and  _33
REMARK    6  A    between atoms: _38  and  _43
REMARK    7  A    between atoms: _43  and  _46
REMARK    8  A    between atoms: _53  and  _55
REMARK                            x       y       z     vdW  Elec       q    Type
REMARK                         _______ _______ _______ _____ _____    ______ ____
ROOT
ATOM     10  C   UNL     1     -19.641 -12.624  -4.316  0.00  0.00    +0.038 A 
ATOM     11  C   UNL     1     -18.365 -12.343  -3.764  0.00  0.00    +0.047 A 
ATOM     12  C   UNL     1     -17.303 -11.770  -4.576  0.00  0.00    +0.035 A 
ATOM     32  C   UNL     1     -17.576 -11.492  -5.947  0.00  0.00    +0.024 A 
ATOM     33  C   UNL     1     -18.867 -11.772  -6.525  0.00  0.00    +0.007 A 
ATOM     34  C   UNL     1     -19.917 -12.340  -5.730  0.00  0.00    -0.029 A 
ATOM     35  C   UNL     1     -21.279 -12.625  -6.404  0.00  0.00    +0.045 C 
ENDROOT
BRANCH  10   9
ATOM      4  C   UNL     1     -23.661 -12.287  -1.716  0.00  0.00    +0.077 A 
ATOM      5  C   UNL     1     -23.800 -10.888  -2.004  0.00  0.00    +0.048 A 
ATOM      6  C   UNL     1     -22.812 -10.292  -2.820  0.00  0.00    +0.116 A 
ATOM      7  N   UNL     1     -21.767 -11.048  -3.305  0.00  0.00    -0.223 NA
ATOM      8  C   UNL     1     -21.662 -12.394  -3.007  0.00  0.00    +0.220 A 
ATOM      9  N   UNL     1     -20.624 -13.175  -3.491  0.00  0.00    -0.283 N 
ATOM     36  H   UNL     1     -20.577 -14.163  -3.242  0.00  0.00    +0.155 HD
ATOM     37  N   UNL     1     -22.592 -12.986  -2.229  0.00  0.00    -0.214 NA
BRANCH   4   3
ATOM      1  C   UNL     1     -26.027 -13.377   1.202  0.00  0.00    +0.020 A 
ATOM      2  C   UNL     1     -25.095 -12.592   0.426  0.00  0.00    +0.013 A 
ATOM      3  C   UNL     1     -24.626 -13.060  -0.872  0.00  0.00    +0.019 A 
ATOM     38  C   UNL     1     -25.125 -14.336  -1.361  0.00  0.00    +0.120 A 
ATOM     39  N   UNL     1     -26.021 -15.071  -0.592  0.00  0.00    -0.263 NA
ATOM     40  C   UNL     1     -26.478 -14.632   0.660  0.00  0.00    +0.111 A 
ENDBRANCH   4   3
ENDBRANCH  10   9
BRANCH  12  13
ATOM     13  N   UNL     1     -15.986 -11.471  -4.072  0.00  0.00    -0.281 N 
ATOM     14  C   UNL     1     -15.586 -10.370  -3.332  0.00  0.00    +0.248 C 
ATOM     30  O   UNL     1     -16.260  -9.363  -3.172  0.00  0.00    -0.270 OA
ATOM     31  H   UNL     1     -15.259 -12.154  -4.287  0.00  0.00    +0.155 HD
BRANCH  14  15
ATOM     15  C   UNL     1     -14.237 -10.383  -2.688  0.00  0.00    +0.037 A 
ATOM     16  C   UNL     1     -13.031 -10.700  -3.457  0.00  0.00    +0.013 A 
ATOM     17  C   UNL     1     -11.745 -10.722  -2.808  0.00  0.00    +0.005 A 
ATOM     18  C   UNL     1     -11.657 -10.425  -1.381  0.00  0.00    -0.033 A 
ATOM     28  C   UNL     1     -12.869 -10.109  -0.643  0.00  0.00    +0.005 A 
ATOM     29  C   UNL     1     -14.132 -10.087  -1.275  0.00  0.00    +0.013 A 
BRANCH  18  19
ATOM     19  C   UNL     1     -10.329 -10.447  -0.601  0.00  0.00    +0.119 C 
BRANCH  19  20
ATOM     20  N   UNL     1      -9.573 -11.734  -0.575  0.00  0.00    -0.302 NA
ATOM     21  C   UNL     1      -9.684 -12.438   0.781  0.00  0.00    +0.066 C 
ATOM     22  C   UNL     1      -8.906 -13.794   0.784  0.00  0.00    -0.064 C 
ATOM     23  N   UNL     1      -7.441 -13.539   0.425  0.00  0.00    +0.379 N 
ATOM     24  C   UNL     1      -6.694 -14.804   0.484  0.00  0.00    -0.096 C 
ATOM     25  H   UNL     1      -7.017 -12.859   1.200  0.00  0.00    -0.082 HD
ATOM     26  C   UNL     1      -7.321 -12.837  -0.920  0.00  0.00    -0.064 C 
ATOM     27  C   UNL     1      -8.122 -11.505  -0.922  0.00  0.00    +0.066 C 
ENDBRANCH  19  20
ENDBRANCH  18  19
ENDBRANCH  14  15
ENDBRANCH  12  13
TORSDOF 6
ENDMDL
MODEL 5
REMARK VINA RESULT:      -9.4      5.963     14.361
REMARK  Name = C:\Users\Docking\Desktop\test protocol\1iep_ligandH.pdb
REMARK  8 active torsions:
REMARK  status: ('A' for Active; 'I' for Inactive)
REMARK    1  A    between atoms: _5  and  _11
REMARK    2  A    between atoms: _19  and  _21
REMARK    3  A    between atoms: _22  and  _66
REMARK    4  A    between atoms: _27  and  _30
REMARK    5  A    between atoms: _32  and  _33
REMARK    6  A    between atoms: _38  and  _43
REMARK    7  A    between atoms: _43  and  _46
REMARK    8  A    between atoms: _53  and  _55
REMARK                            x       y       z     vdW  Elec       q    Type
REMARK                         _______ _______ _______ _____ _____    ______ ____
ROOT
ATOM     10  C   UNL     1      -6.071 -18.000  -0.846  0.00  0.00    +0.038 A 
ATOM     11  C   UNL     1      -6.843 -16.848  -0.549  0.00  0.00    +0.047 A 
ATOM     12  C   UNL     1      -8.088 -16.575  -1.249  0.00  0.00    +0.035 A 
ATOM     32  C   UNL     1      -8.518 -17.499  -2.246  0.00  0.00    +0.024 A 
ATOM     33  C   UNL     1      -7.745 -18.674  -2.562  0.00  0.00    +0.007 A 
ATOM     34  C   UNL     1      -6.515 -18.947  -1.875  0.00  0.00    -0.029 A 
ATOM     35  C   UNL     1      -5.724 -20.219  -2.259  0.00  0.00    +0.045 C 
ENDROOT
BRANCH  10   9
ATOM      4  C   UNL     1      -3.663 -19.253   3.113  0.00  0.00    +0.077 A 
ATOM      5  C   UNL     1      -4.874 -19.477   3.850  0.00  0.00    +0.048 A 
ATOM      6  C   UNL     1      -6.095 -19.251   3.175  0.00  0.00    +0.116 A 
ATOM      7  N   UNL     1      -6.094 -18.833   1.862  0.00  0.00    -0.223 NA
ATOM      8  C   UNL     1      -4.908 -18.625   1.181  0.00  0.00    +0.220 A 
ATOM      9  N   UNL     1      -4.883 -18.213  -0.142  0.00  0.00    -0.283 N 
ATOM     36  H   UNL     1      -3.988 -18.063  -0.607  0.00  0.00    +0.155 HD
ATOM     37  N   UNL     1      -3.729 -18.832   1.804  0.00  0.00    -0.214 NA
BRANCH   4   3
ATOM      1  C   UNL     1      -0.366 -18.761   5.159  0.00  0.00    +0.020 A 
ATOM      2  C   UNL     1      -1.691 -18.524   4.635  0.00  0.00    +0.013 A 
ATOM      3  C   UNL     1      -2.295 -19.451   3.686  0.00  0.00    +0.019 A 
ATOM     38  C   UNL     1      -1.525 -20.619   3.286  0.00  0.00    +0.120 A 
ATOM     39  N   UNL     1      -0.251 -20.822   3.806  0.00  0.00    -0.263 NA
ATOM     40  C   UNL     1       0.341 -19.935   4.718  0.00  0.00    +0.111 A 
ENDBRANCH   4   3
ENDBRANCH  10   9
BRANCH  12  13
ATOM     13  N   UNL     1      -8.910 -15.418  -0.996  0.00  0.00    -0.281 N 
ATOM     14  C   UNL     1      -8.691 -14.112  -1.404  0.00  0.00    +0.248 C 
ATOM     30  O   UNL     1      -7.639 -13.701  -1.870  0.00  0.00    -0.270 OA
ATOM     31  H   UNL     1      -9.756 -15.581  -0.450  0.00  0.00    +0.155 HD
BRANCH  14  15
ATOM     15  C   UNL     1      -9.796 -13.116  -1.260  0.00  0.00    +0.037 A 
ATOM     16  C   UNL     1      -9.595 -11.857  -0.537  0.00  0.00    +0.013 A 
ATOM     17  C   UNL     1     -10.682 -10.921  -0.398  0.00  0.00    +0.005 A 
ATOM     18  C   UNL     1     -11.981 -11.241  -0.985  0.00  0.00    -0.033 A 
ATOM     28  C   UNL     1     -12.152 -12.495  -1.701  0.00  0.00    +0.005 A 
ATOM     29  C   UNL     1     -11.088 -13.415  -1.838  0.00  0.00    +0.013 A 
BRANCH  18  19
ATOM     19  C   UNL     1     -13.204 -10.311  -0.868  0.00  0.00    +0.119 C 
BRANCH  19  20
ATOM     20  N   UNL     1     -13.603  -9.549  -2.089  0.00  0.00    -0.302 NA
ATOM     21  C   UNL     1     -13.134  -8.092  -2.035  0.00  0.00    +0.066 C 
ATOM     22  C   UNL     1     -13.541  -7.316  -3.330  0.00  0.00    -0.064 C 
ATOM     23  N   UNL     1     -15.058  -7.391  -3.511  0.00  0.00    +0.379 N 
ATOM     24  C   UNL     1     -15.450  -6.613  -4.696  0.00  0.00    -0.096 C 
ATOM     25  H   UNL     1     -15.529  -6.912  -2.621  0.00  0.00    -0.082 HD
ATOM     26  C   UNL     1     -15.533  -8.836  -3.562  0.00  0.00    -0.064 C 
ATOM     27  C   UNL     1     -15.098  -9.607  -2.284  0.00  0.00    +0.066 C 
ENDBRANCH  19  20
ENDBRANCH  18  19
ENDBRANCH  14  15
ENDBRANCH  12  13
TORSDOF 6
ENDMDL
