MODEL 1
REMARK VINA RESULT:      -8.0      0.000      0.000
REMARK  Name = C:\Users\Docking\Desktop\test protocol\1iep_ligandH.pdb
REMARK  8 active torsions:
REMARK  status: ('A' for Active; 'I' for Inactive)
REMARK    1  A    between atoms: _5  and  _11
REMARK    2  A    between atoms: _19  and  _21
REMARK    3  A    between atoms: _22  and  _66
REMARK    4  A    between atoms: _27  and  _30
REMARK    5  A    between atoms: _32  and  _33
REMARK    6  A    between atoms: _38  and  _43
REMARK    7  A    between atoms: _43  and  _46
REMARK    8  A    between atoms: _53  and  _55
REMARK                            x       y       z     vdW  Elec       q    Type
REMARK                         _______ _______ _______ _____ _____    ______ ____
ROOT
ATOM     10  C   UNL     1      -6.709   0.963 -23.060  0.00  0.00    +0.038 A 
ATOM     11  C   UNL     1      -7.873   0.476 -22.411  0.00  0.00    +0.047 A 
ATOM     12  C   UNL     1      -8.935   1.378 -21.994  0.00  0.00    +0.035 A 
ATOM     32  C   UNL     1      -8.780   2.771 -22.254  0.00  0.00    +0.024 A 
ATOM     33  C   UNL     1      -7.603   3.283 -22.911  0.00  0.00    +0.007 A 
ATOM     34  C   UNL     1      -6.551   2.398 -23.323  0.00  0.00    -0.029 A 
ATOM     35  C   UNL     1      -5.309   3.003 -24.018  0.00  0.00    +0.045 C 
ENDROOT
BRANCH  10   9
ATOM      4  C   UNL     1      -4.446  -1.700 -26.350  0.00  0.00    +0.077 A 
ATOM      5  C   UNL     1      -5.323  -1.259 -27.396  0.00  0.00    +0.048 A 
ATOM      6  C   UNL     1      -6.348  -0.352 -27.044  0.00  0.00    +0.116 A 
ATOM      7  N   UNL     1      -6.477   0.075 -25.741  0.00  0.00    -0.223 NA
ATOM      8  C   UNL     1      -5.615  -0.371 -24.756  0.00  0.00    +0.220 A 
ATOM      9  N   UNL     1      -5.721   0.051 -23.439  0.00  0.00    -0.283 N 
ATOM     36  H   UNL     1      -5.071  -0.307 -22.741  0.00  0.00    +0.155 HD
ATOM     37  N   UNL     1      -4.629  -1.238 -25.066  0.00  0.00    -0.214 NA
BRANCH   4   3
ATOM      1  C   UNL     1      -1.775  -4.506 -25.809  0.00  0.00    +0.020 A 
ATOM      2  C   UNL     1      -2.875  -3.605 -25.551  0.00  0.00    +0.013 A 
ATOM      3  C   UNL     1      -3.313  -2.654 -26.565  0.00  0.00    +0.019 A 
ATOM     38  C   UNL     1      -2.611  -2.641 -27.840  0.00  0.00    +0.120 A 
ATOM     39  N   UNL     1      -1.555  -3.519 -28.059  0.00  0.00    -0.263 NA
ATOM     40  C   UNL     1      -1.124  -4.437 -27.091  0.00  0.00    +0.111 A 
ENDBRANCH   4   3
ENDBRANCH  10   9
BRANCH  12  13
ATOM     13  N   UNL     1     -10.136   0.943 -21.324  0.00  0.00    -0.281 N 
ATOM     14  C   UNL     1     -11.260   0.360 -21.886  0.00  0.00    +0.248 C 
ATOM     30  O   UNL     1     -11.492   0.321 -23.085  0.00  0.00    -0.270 OA
ATOM     31  H   UNL     1     -10.159   1.080 -20.314  0.00  0.00    +0.155 HD
BRANCH  14  15
ATOM     15  C   UNL     1     -12.282  -0.254 -20.984  0.00  0.00    +0.037 A 
ATOM     16  C   UNL     1     -11.995  -1.478 -20.233  0.00  0.00    +0.013 A 
ATOM     17  C   UNL     1     -13.004  -2.059 -19.384  0.00  0.00    +0.005 A 
ATOM     18  C   UNL     1     -14.311  -1.414 -19.280  0.00  0.00    -0.033 A 
ATOM     28  C   UNL     1     -14.567  -0.197 -20.032  0.00  0.00    +0.005 A 
ATOM     29  C   UNL     1     -13.580   0.375 -20.866  0.00  0.00    +0.013 A 
BRANCH  18  19
ATOM     19  C   UNL     1     -15.454  -1.976 -18.414  0.00  0.00    +0.119 C 
BRANCH  19  20
ATOM     20  N   UNL     1     -15.244  -3.316 -17.789  0.00  0.00    -0.302 NA
ATOM     21  C   UNL     1     -16.380  -4.288 -18.121  0.00  0.00    +0.066 C 
ATOM     22  C   UNL     1     -16.133  -5.692 -17.478  0.00  0.00    -0.064 C 
ATOM     23  N   UNL     1     -15.977  -5.537 -15.964  0.00  0.00    +0.379 N 
ATOM     24  C   UNL     1     -15.803  -6.861 -15.351  0.00  0.00    -0.096 C 
ATOM     25  H   UNL     1     -16.926  -5.103 -15.570  0.00  0.00    -0.082 HD
ATOM     26  C   UNL     1     -14.852  -4.569 -15.626  0.00  0.00    -0.064 C 
ATOM     27  C   UNL     1     -15.092  -3.186 -16.294  0.00  0.00    +0.066 C 
ENDBRANCH  19  20
ENDBRANCH  18  19
ENDBRANCH  14  15
ENDBRANCH  12  13
TORSDOF 6
ENDMDL
MODEL 2
REMARK VINA RESULT:      -7.9     14.367     17.679
REMARK  Name = C:\Users\Docking\Desktop\test protocol\1iep_ligandH.pdb
REMARK  8 active torsions:
REMARK  status: ('A' for Active; 'I' for Inactive)
REMARK    1  A    between atoms: _5  and  _11
REMARK    2  A    between atoms: _19  and  _21
REMARK    3  A    between atoms: _22  and  _66
REMARK    4  A    between atoms: _27  and  _30
REMARK    5  A    between atoms: _32  and  _33
REMARK    6  A    between atoms: _38  and  _43
REMARK    7  A    between atoms: _43  and  _46
REMARK    8  A    between atoms: _53  and  _55
REMARK                            x       y       z     vdW  Elec       q    Type
REMARK                         _______ _______ _______ _____ _____    ______ ____
ROOT
ATOM     10  C   UNL     1     -16.383 -17.412 -15.718  0.00  0.00    +0.038 A 
ATOM     11  C   UNL     1     -16.271 -15.999 -15.754  0.00  0.00    +0.047 A 
ATOM     12  C   UNL     1     -17.241 -15.150 -15.078  0.00  0.00    +0.035 A 
ATOM     32  C   UNL     1     -18.310 -15.775 -14.373  0.00  0.00    +0.024 A 
ATOM     33  C   UNL     1     -18.439 -17.210 -14.327  0.00  0.00    +0.007 A 
ATOM     34  C   UNL     1     -17.487 -18.052 -14.993  0.00  0.00    -0.029 A 
ATOM     35  C   UNL     1     -17.679 -19.585 -14.916  0.00  0.00    +0.045 C 
ENDROOT
BRANCH  10   9
ATOM      4  C   UNL     1     -14.551 -19.375 -19.696  0.00  0.00    +0.077 A 
ATOM      5  C   UNL     1     -15.608 -18.852 -20.512  0.00  0.00    +0.048 A 
ATOM      6  C   UNL     1     -16.608 -18.088 -19.869  0.00  0.00    +0.116 A 
ATOM      7  N   UNL     1     -16.544 -17.871 -18.509  0.00  0.00    -0.223 NA
ATOM      8  C   UNL     1     -15.512 -18.392 -17.751  0.00  0.00    +0.220 A 
ATOM      9  N   UNL     1     -15.424 -18.179 -16.384  0.00  0.00    -0.283 N 
ATOM     36  H   UNL     1     -14.651 -18.586 -15.859  0.00  0.00    +0.155 HD
ATOM     37  N   UNL     1     -14.546 -19.125 -18.342  0.00  0.00    -0.214 NA
BRANCH   4   3
ATOM      1  C   UNL     1     -10.969 -20.751 -20.457  0.00  0.00    +0.020 A 
ATOM      2  C   UNL     1     -12.024 -19.926 -19.915  0.00  0.00    +0.013 A 
ATOM      3  C   UNL     1     -13.420 -20.198 -20.231  0.00  0.00    +0.019 A 
ATOM     38  C   UNL     1     -13.718 -21.324 -21.104  0.00  0.00    +0.120 A 
ATOM     39  N   UNL     1     -12.682 -22.100 -21.612  0.00  0.00    -0.263 NA
ATOM     40  C   UNL     1     -11.334 -21.847 -21.317  0.00  0.00    +0.111 A 
ENDBRANCH   4   3
ENDBRANCH  10   9
BRANCH  12  13
ATOM     13  N   UNL     1     -17.183 -13.709 -15.087  0.00  0.00    -0.281 N 
ATOM     14  C   UNL     1     -17.677 -12.843 -16.049  0.00  0.00    +0.248 C 
ATOM     30  O   UNL     1     -18.057 -13.187 -17.158  0.00  0.00    -0.270 OA
ATOM     31  H   UNL     1     -16.723 -13.275 -14.287  0.00  0.00    +0.155 HD
BRANCH  14  15
ATOM     15  C   UNL     1     -17.745 -11.383 -15.738  0.00  0.00    +0.037 A 
ATOM     16  C   UNL     1     -16.686 -10.465 -16.165  0.00  0.00    +0.013 A 
ATOM     17  C   UNL     1     -16.769  -9.063 -15.838  0.00  0.00    +0.005 A 
ATOM     18  C   UNL     1     -17.917  -8.571 -15.080  0.00  0.00    -0.033 A 
ATOM     28  C   UNL     1     -18.956  -9.503 -14.674  0.00  0.00    +0.005 A 
ATOM     29  C   UNL     1     -18.878 -10.877 -14.992  0.00  0.00    +0.013 A 
BRANCH  18  19
ATOM     19  C   UNL     1     -18.077  -7.096 -14.668  0.00  0.00    +0.119 C 
BRANCH  19  20
ATOM     20  N   UNL     1     -17.973  -6.777 -13.213  0.00  0.00    -0.302 NA
ATOM     21  C   UNL     1     -19.001  -5.728 -12.780  0.00  0.00    +0.066 C 
ATOM     22  C   UNL     1     -18.894  -5.423 -11.250  0.00  0.00    -0.064 C 
ATOM     23  N   UNL     1     -17.474  -4.955 -10.926  0.00  0.00    +0.379 N 
ATOM     24  C   UNL     1     -17.385  -4.612  -9.499  0.00  0.00    -0.096 C 
ATOM     25  H   UNL     1     -17.283  -4.025 -11.510  0.00  0.00    -0.082 HD
ATOM     26  C   UNL     1     -16.444  -5.991 -11.356  0.00  0.00    -0.064 C 
ATOM     27  C   UNL     1     -16.580  -6.308 -12.871  0.00  0.00    +0.066 C 
ENDBRANCH  19  20
ENDBRANCH  18  19
ENDBRANCH  14  15
ENDBRANCH  12  13
TORSDOF 6
ENDMDL
MODEL 3
REMARK VINA RESULT:      -7.8     11.774     13.234
REMARK  Name = C:\Users\Docking\Desktop\test protocol\1iep_ligandH.pdb
REMARK  8 active torsions:
REMARK  status: ('A' for Active; 'I' for Inactive)
REMARK    1  A    between atoms: _5  and  _11
REMARK    2  A    between atoms: _19  and  _21
REMARK    3  A    between atoms: _22  and  _66
REMARK    4  A    between atoms: _27  and  _30
REMARK    5  A    between atoms: _32  and  _33
REMARK    6  A    between atoms: _38  and  _43
REMARK    7  A    between atoms: _43  and  _46
REMARK    8  A    between atoms: _53  and  _55
REMARK                            x       y       z     vdW  Elec       q    Type
REMARK                         _______ _______ _______ _____ _____    ______ ____
ROOT
ATOM     10  C   UNL     1     -14.997  -9.916 -25.926  0.00  0.00    +0.038 A 
ATOM     11  C   UNL     1     -15.287 -10.284 -24.588  0.00  0.00    +0.047 A 
ATOM     12  C   UNL     1     -16.402  -9.690 -23.868  0.00  0.00    +0.035 A 
ATOM     32  C   UNL     1     -17.205  -8.725 -24.544  0.00  0.00    +0.024 A 
ATOM     33  C   UNL     1     -16.924  -8.338 -25.904  0.00  0.00    +0.007 A 
ATOM     34  C   UNL     1     -15.823  -8.919 -26.618  0.00  0.00    -0.029 A 
ATOM     35  C   UNL     1     -15.565  -8.462 -28.073  0.00  0.00    +0.045 C 
ENDROOT
BRANCH  10   9
ATOM      4  C   UNL     1     -13.047 -13.453 -28.519  0.00  0.00    +0.077 A 
ATOM      5  C   UNL     1     -14.286 -14.175 -28.575  0.00  0.00    +0.048 A 
ATOM      6  C   UNL     1     -15.399 -13.605 -27.917  0.00  0.00    +0.116 A 
ATOM      7  N   UNL     1     -15.272 -12.402 -27.257  0.00  0.00    -0.223 NA
ATOM      8  C   UNL     1     -14.062 -11.733 -27.221  0.00  0.00    +0.220 A 
ATOM      9  N   UNL     1     -13.913 -10.518 -26.570  0.00  0.00    -0.283 N 
ATOM     36  H   UNL     1     -13.003 -10.060 -26.560  0.00  0.00    +0.155 HD
ATOM     37  N   UNL     1     -12.984 -12.257 -27.840  0.00  0.00    -0.214 NA
BRANCH   4   3
ATOM      1  C   UNL     1      -9.364 -13.635 -29.823  0.00  0.00    +0.020 A 
ATOM      2  C   UNL     1     -10.558 -13.134 -29.183  0.00  0.00    +0.013 A 
ATOM      3  C   UNL     1     -11.783 -13.924 -29.168  0.00  0.00    +0.019 A 
ATOM     38  C   UNL     1     -11.765 -15.228 -29.814  0.00  0.00    +0.120 A 
ATOM     39  N   UNL     1     -10.600 -15.684 -30.423  0.00  0.00    -0.263 NA
ATOM     40  C   UNL     1      -9.416 -14.931 -30.445  0.00  0.00    +0.111 A 
ENDBRANCH   4   3
ENDBRANCH  10   9
BRANCH  12  13
ATOM     13  N   UNL     1     -16.740 -10.018 -22.505  0.00  0.00    -0.281 N 
ATOM     14  C   UNL     1     -17.167 -11.237 -22.004  0.00  0.00    +0.248 C 
ATOM     30  O   UNL     1     -17.531 -12.178 -22.693  0.00  0.00    -0.270 OA
ATOM     31  H   UNL     1     -16.653  -9.261 -21.828  0.00  0.00    +0.155 HD
BRANCH  14  15
ATOM     15  C   UNL     1     -17.210 -11.433 -20.523  0.00  0.00    +0.037 A 
ATOM     16  C   UNL     1     -16.507 -10.524 -19.615  0.00  0.00    +0.013 A 
ATOM     17  C   UNL     1     -16.551 -10.746 -18.191  0.00  0.00    +0.005 A 
ATOM     18  C   UNL     1     -17.304 -11.883 -17.667  0.00  0.00    -0.033 A 
ATOM     28  C   UNL     1     -17.997 -12.766 -18.590  0.00  0.00    +0.005 A 
ATOM     29  C   UNL     1     -17.955 -12.552 -19.986  0.00  0.00    +0.013 A 
BRANCH  18  19
ATOM     19  C   UNL     1     -17.388 -12.208 -16.164  0.00  0.00    +0.119 C 
BRANCH  19  20
ATOM     20  N   UNL     1     -17.243 -13.640 -15.765  0.00  0.00    -0.302 NA
ATOM     21  C   UNL     1     -18.489 -14.165 -15.047  0.00  0.00    +0.066 C 
ATOM     22  C   UNL     1     -18.329 -15.671 -14.657  0.00  0.00    -0.064 C 
ATOM     23  N   UNL     1     -17.087 -15.839 -13.780  0.00  0.00    +0.379 N 
ATOM     24  C   UNL     1     -16.967 -17.244 -13.364  0.00  0.00    -0.096 C 
ATOM     25  H   UNL     1     -17.237 -15.225 -12.861  0.00  0.00    -0.082 HD
ATOM     26  C   UNL     1     -15.844 -15.317 -14.486  0.00  0.00    -0.064 C 
ATOM     27  C   UNL     1     -16.025 -13.828 -14.895  0.00  0.00    +0.066 C 
ENDBRANCH  19  20
ENDBRANCH  18  19
ENDBRANCH  14  15
ENDBRANCH  12  13
TORSDOF 6
ENDMDL
MODEL 4
REMARK VINA RESULT:      -7.7      2.689      6.265
REMARK  Name = C:\Users\Docking\Desktop\test protocol\1iep_ligandH.pdb
REMARK  8 active torsions:
REMARK  status: ('A' for Active; 'I' for Inactive)
REMARK    1  A    between atoms: _5  and  _11
REMARK    2  A    between atoms: _19  and  _21
REMARK    3  A    between atoms: _22  and  _66
REMARK    4  A    between atoms: _27  and  _30
REMARK    5  A    between atoms: _32  and  _33
REMARK    6  A    between atoms: _38  and  _43
REMARK    7  A    between atoms: _43  and  _46
REMARK    8  A    between atoms: _53  and  _55
REMARK                            x       y       z     vdW  Elec       q    Type
REMARK                         _______ _______ _______ _____ _____    ______ ____
ROOT
ATOM     10  C   UNL     1     -12.578  -0.068 -21.422  0.00  0.00    +0.038 A 
ATOM     11  C   UNL     1     -12.843  -1.050 -20.433  0.00  0.00    +0.047 A 
ATOM     12  C   UNL     1     -14.050  -0.996 -19.624  0.00  0.00    +0.035 A 
ATOM     32  C   UNL     1     -14.968   0.070 -19.850  0.00  0.00    +0.024 A 
ATOM     33  C   UNL     1     -14.715   1.077 -20.851  0.00  0.00    +0.007 A 
ATOM     34  C   UNL     1     -13.524   1.031 -21.650  0.00  0.00    -0.029 A 
ATOM     35  C   UNL     1     -13.300   2.141 -22.703  0.00  0.00    +0.045 C 
ENDROOT
BRANCH  10   9
ATOM      4  C   UNL     1      -7.963   0.983 -22.216  0.00  0.00    +0.077 A 
ATOM      5  C   UNL     1      -7.894   1.825 -21.056  0.00  0.00    +0.048 A 
ATOM      6  C   UNL     1      -9.070   1.967 -20.286  0.00  0.00    +0.116 A 
ATOM      7  N   UNL     1     -10.223   1.310 -20.658  0.00  0.00    -0.223 NA
ATOM      8  C   UNL     1     -10.256   0.507 -21.783  0.00  0.00    +0.220 A 
ATOM      9  N   UNL     1     -11.403  -0.169 -22.170  0.00  0.00    -0.283 N 
ATOM     36  H   UNL     1     -11.388  -0.745 -23.011  0.00  0.00    +0.155 HD
ATOM     37  N   UNL     1      -9.146   0.357 -22.535  0.00  0.00    -0.214 NA
BRANCH   4   3
ATOM      1  C   UNL     1      -4.804   1.492 -24.466  0.00  0.00    +0.020 A 
ATOM      2  C   UNL     1      -5.910   1.789 -23.585  0.00  0.00    +0.013 A 
ATOM      3  C   UNL     1      -6.803   0.732 -23.128  0.00  0.00    +0.019 A 
ATOM     38  C   UNL     1      -6.546  -0.626 -23.584  0.00  0.00    +0.120 A 
ATOM     39  N   UNL     1      -5.474  -0.882 -24.433  0.00  0.00    -0.263 NA
ATOM     40  C   UNL     1      -4.609   0.128 -24.880  0.00  0.00    +0.111 A 
ENDBRANCH   4   3
ENDBRANCH  10   9
BRANCH  12  13
ATOM     13  N   UNL     1     -14.369  -1.960 -18.600  0.00  0.00    -0.281 N 
ATOM     14  C   UNL     1     -15.382  -2.905 -18.605  0.00  0.00    +0.248 C 
ATOM     30  O   UNL     1     -16.307  -2.922 -19.404  0.00  0.00    -0.270 OA
ATOM     31  H   UNL     1     -13.775  -1.944 -17.771  0.00  0.00    +0.155 HD
BRANCH  14  15
ATOM     15  C   UNL     1     -15.375  -3.977 -17.563  0.00  0.00    +0.037 A 
ATOM     16  C   UNL     1     -16.111  -5.229 -17.756  0.00  0.00    +0.013 A 
ATOM     17  C   UNL     1     -16.102  -6.239 -16.729  0.00  0.00    +0.005 A 
ATOM     18  C   UNL     1     -15.351  -6.002 -15.498  0.00  0.00    -0.033 A 
ATOM     28  C   UNL     1     -14.625  -4.753 -15.335  0.00  0.00    +0.005 A 
ATOM     29  C   UNL     1     -14.633  -3.760 -16.340  0.00  0.00    +0.013 A 
BRANCH  18  19
ATOM     19  C   UNL     1     -15.302  -7.016 -14.339  0.00  0.00    +0.119 C 
BRANCH  19  20
ATOM     20  N   UNL     1     -16.328  -6.874 -13.264  0.00  0.00    -0.302 NA
ATOM     21  C   UNL     1     -17.583  -6.149 -13.758  0.00  0.00    +0.066 C 
ATOM     22  C   UNL     1     -18.655  -6.030 -12.626  0.00  0.00    -0.064 C 
ATOM     23  N   UNL     1     -18.046  -5.302 -11.426  0.00  0.00    +0.379 N 
ATOM     24  C   UNL     1     -19.069  -5.137 -10.383  0.00  0.00    -0.096 C 
ATOM     25  H   UNL     1     -17.743  -4.285 -11.766  0.00  0.00    -0.082 HD
ATOM     26  C   UNL     1     -16.797  -6.015 -10.930  0.00  0.00    -0.064 C 
ATOM     27  C   UNL     1     -15.750  -6.155 -12.070  0.00  0.00    +0.066 C 
ENDBRANCH  19  20
ENDBRANCH  18  19
ENDBRANCH  14  15
ENDBRANCH  12  13
TORSDOF 6
ENDMDL
MODEL 5
REMARK VINA RESULT:      -7.6      6.838      8.027
REMARK  Name = C:\Users\Docking\Desktop\test protocol\1iep_ligandH.pdb
REMARK  8 active torsions:
REMARK  status: ('A' for Active; 'I' for Inactive)
REMARK    1  A    between atoms: _5  and  _11
REMARK    2  A    between atoms: _19  and  _21
REMARK    3  A    between atoms: _22  and  _66
REMARK    4  A    between atoms: _27  and  _30
REMARK    5  A    between atoms: _32  and  _33
REMARK    6  A    between atoms: _38  and  _43
REMARK    7  A    between atoms: _43  and  _46
REMARK    8  A    between atoms: _53  and  _55
REMARK                            x       y       z     vdW  Elec       q    Type
REMARK                         _______ _______ _______ _____ _____    ______ ____
ROOT
ATOM     10  C   UNL     1      -8.927   0.771 -21.811  0.00  0.00    +0.038 A 
ATOM     11  C   UNL     1      -8.537   1.054 -20.477  0.00  0.00    +0.047 A 
ATOM     12  C   UNL     1      -9.364   1.880 -19.611  0.00  0.00    +0.035 A 
ATOM     32  C   UNL     1     -10.583   2.400 -20.135  0.00  0.00    +0.024 A 
ATOM     33  C   UNL     1     -10.994   2.123 -21.489  0.00  0.00    +0.007 A 
ATOM     34  C   UNL     1     -10.182   1.311 -22.349  0.00  0.00    -0.029 A 
ATOM     35  C   UNL     1     -10.669   1.052 -23.794  0.00  0.00    +0.045 C 
ENDROOT
BRANCH  10   9
ATOM      4  C   UNL     1      -5.120   0.151 -24.668  0.00  0.00    +0.077 A 
ATOM      5  C   UNL     1      -4.774   1.542 -24.607  0.00  0.00    +0.048 A 
ATOM      6  C   UNL     1      -5.606   2.384 -23.836  0.00  0.00    +0.116 A 
ATOM      7  N   UNL     1      -6.699   1.864 -23.178  0.00  0.00    -0.223 NA
ATOM      8  C   UNL     1      -7.006   0.518 -23.259  0.00  0.00    +0.220 A 
ATOM      9  N   UNL     1      -8.096  -0.028 -22.599  0.00  0.00    -0.283 N 
ATOM     36  H   UNL     1      -8.293  -1.025 -22.690  0.00  0.00    +0.155 HD
ATOM     37  N   UNL     1      -6.228  -0.307 -23.990  0.00  0.00    -0.214 NA
BRANCH   4   3
ATOM      1  C   UNL     1      -3.210  -3.110 -25.675  0.00  0.00    +0.020 A 
ATOM      2  C   UNL     1      -3.966  -2.164 -24.888  0.00  0.00    +0.013 A 
ATOM      3  C   UNL     1      -4.338  -0.866 -25.439  0.00  0.00    +0.019 A 
ATOM     38  C   UNL     1      -3.926  -0.555 -26.799  0.00  0.00    +0.120 A 
ATOM     39  N   UNL     1      -3.197  -1.486 -27.533  0.00  0.00    -0.263 NA
ATOM     40  C   UNL     1      -2.832  -2.737 -27.013  0.00  0.00    +0.111 A 
ENDBRANCH   4   3
ENDBRANCH  10   9
BRANCH  12  13
ATOM     13  N   UNL     1      -9.015   2.208 -18.251  0.00  0.00    -0.281 N 
ATOM     14  C   UNL     1      -9.010   3.457 -17.651  0.00  0.00    +0.248 C 
ATOM     30  O   UNL     1      -9.099   4.515 -18.256  0.00  0.00    -0.270 OA
ATOM     31  H   UNL     1      -8.739   1.425 -17.659  0.00  0.00    +0.155 HD
BRANCH  14  15
ATOM     15  C   UNL     1      -8.870   3.543 -16.165  0.00  0.00    +0.037 A 
ATOM     16  C   UNL     1      -9.974   3.173 -15.276  0.00  0.00    +0.013 A 
ATOM     17  C   UNL     1      -9.819   3.282 -13.847  0.00  0.00    +0.005 A 
ATOM     18  C   UNL     1      -8.553   3.762 -13.298  0.00  0.00    -0.033 A 
ATOM     28  C   UNL     1      -7.473   4.117 -14.203  0.00  0.00    +0.005 A 
ATOM     29  C   UNL     1      -7.621   4.013 -15.604  0.00  0.00    +0.013 A 
BRANCH  18  19
ATOM     19  C   UNL     1      -8.306   3.930 -11.787  0.00  0.00    +0.119 C 
BRANCH  19  20
ATOM     20  N   UNL     1      -9.015   5.050 -11.099  0.00  0.00    -0.302 NA
ATOM     21  C   UNL     1      -8.156   6.315 -11.027  0.00  0.00    +0.066 C 
ATOM     22  C   UNL     1      -8.922   7.483 -10.324  0.00  0.00    -0.064 C 
ATOM     23  N   UNL     1      -9.350   7.039  -8.924  0.00  0.00    +0.379 N 
ATOM     24  C   UNL     1     -10.019   8.154  -8.239  0.00  0.00    -0.096 C 
ATOM     25  H   UNL     1      -8.426   6.794  -8.350  0.00  0.00    -0.082 HD
ATOM     26  C   UNL     1     -10.202   5.779  -8.986  0.00  0.00    -0.064 C 
ATOM     27  C   UNL     1      -9.443   4.634  -9.713  0.00  0.00    +0.066 C 
ENDBRANCH  19  20
ENDBRANCH  18  19
ENDBRANCH  14  15
ENDBRANCH  12  13
TORSDOF 6
ENDMDL
