MODEL 1
REMARK VINA RESULT:      -9.0      0.000      0.000
REMARK  Name = C:\Users\Docking\Desktop\test protocol\1iep_ligandH.pdb
REMARK  8 active torsions:
REMARK  status: ('A' for Active; 'I' for Inactive)
REMARK    1  A    between atoms: _5  and  _11
REMARK    2  A    between atoms: _19  and  _21
REMARK    3  A    between atoms: _22  and  _66
REMARK    4  A    between atoms: _27  and  _30
REMARK    5  A    between atoms: _32  and  _33
REMARK    6  A    between atoms: _38  and  _43
REMARK    7  A    between atoms: _43  and  _46
REMARK    8  A    between atoms: _53  and  _55
REMARK                            x       y       z     vdW  Elec       q    Type
REMARK                         _______ _______ _______ _____ _____    ______ ____
ROOT
ATOM     10  C   UNL     1      19.628  23.017  14.566  0.00  0.00    +0.038 A 
ATOM     11  C   UNL     1      18.411  23.097  15.289  0.00  0.00    +0.047 A 
ATOM     12  C   UNL     1      17.262  22.285  14.922  0.00  0.00    +0.035 A 
ATOM     32  C   UNL     1      17.388  21.399  13.813  0.00  0.00    +0.024 A 
ATOM     33  C   UNL     1      18.618  21.305  13.066  0.00  0.00    +0.007 A 
ATOM     34  C   UNL     1      19.754  22.105  13.422  0.00  0.00    -0.029 A 
ATOM     35  C   UNL     1      21.045  21.968  12.581  0.00  0.00    +0.045 C 
ENDROOT
BRANCH  10   9
ATOM      4  C   UNL     1      21.912  27.234  14.761  0.00  0.00    +0.077 A 
ATOM      5  C   UNL     1      20.898  27.886  13.985  0.00  0.00    +0.048 A 
ATOM      6  C   UNL     1      19.808  27.100  13.548  0.00  0.00    +0.116 A 
ATOM      7  N   UNL     1      19.748  25.761  13.871  0.00  0.00    -0.223 NA
ATOM      8  C   UNL     1      20.744  25.162  14.620  0.00  0.00    +0.220 A 
ATOM      9  N   UNL     1      20.700  23.820  14.962  0.00  0.00    -0.283 N 
ATOM     36  H   UNL     1      21.459  23.414  15.510  0.00  0.00    +0.155 HD
ATOM     37  N   UNL     1      21.796  25.892  15.047  0.00  0.00    -0.214 NA
BRANCH   4   3
ATOM      1  C   UNL     1      24.745  29.862  15.365  0.00  0.00    +0.020 A 
ATOM      2  C   UNL     1      23.569  29.232  14.813  0.00  0.00    +0.013 A 
ATOM      3  C   UNL     1      23.124  27.931  15.297  0.00  0.00    +0.019 A 
ATOM     38  C   UNL     1      23.897  27.291  16.351  0.00  0.00    +0.120 A 
ATOM     39  N   UNL     1      25.027  27.922  16.862  0.00  0.00    -0.263 NA
ATOM     40  C   UNL     1      25.466  29.173  16.403  0.00  0.00    +0.111 A 
ENDBRANCH   4   3
ENDBRANCH  10   9
BRANCH  12  13
ATOM     13  N   UNL     1      15.998  22.330  15.614  0.00  0.00    -0.281 N 
ATOM     14  C   UNL     1      15.769  22.225  16.977  0.00  0.00    +0.248 C 
ATOM     30  O   UNL     1      16.604  21.861  17.792  0.00  0.00    -0.270 OA
ATOM     31  H   UNL     1      15.172  22.454  15.029  0.00  0.00    +0.155 HD
BRANCH  14  15
ATOM     15  C   UNL     1      14.413  22.560  17.509  0.00  0.00    +0.037 A 
ATOM     16  C   UNL     1      14.229  23.015  18.889  0.00  0.00    +0.013 A 
ATOM     17  C   UNL     1      12.909  23.314  19.382  0.00  0.00    +0.005 A 
ATOM     18  C   UNL     1      11.760  23.161  18.492  0.00  0.00    -0.033 A 
ATOM     28  C   UNL     1      11.971  22.713  17.126  0.00  0.00    +0.005 A 
ATOM     29  C   UNL     1      13.265  22.417  16.640  0.00  0.00    +0.013 A 
BRANCH  18  19
ATOM     19  C   UNL     1      10.313  23.438  18.940  0.00  0.00    +0.119 C 
BRANCH  19  20
ATOM     20  N   UNL     1      10.071  24.669  19.750  0.00  0.00    -0.302 NA
ATOM     21  C   UNL     1       8.579  24.914  19.992  0.00  0.00    +0.066 C 
ATOM     22  C   UNL     1       8.345  26.193  20.860  0.00  0.00    -0.064 C 
ATOM     23  N   UNL     1       8.988  27.398  20.171  0.00  0.00    +0.379 N 
ATOM     24  C   UNL     1       8.720  28.612  20.956  0.00  0.00    -0.096 C 
ATOM     25  H   UNL     1       8.496  27.521  19.178  0.00  0.00    -0.082 HD
ATOM     26  C   UNL     1      10.471  27.162  19.925  0.00  0.00    -0.064 C 
ATOM     27  C   UNL     1      10.693  25.872  19.086  0.00  0.00    +0.066 C 
ENDBRANCH  19  20
ENDBRANCH  18  19
ENDBRANCH  14  15
ENDBRANCH  12  13
TORSDOF 6
ENDMDL
MODEL 2
REMARK VINA RESULT:      -8.8      6.007     11.714
REMARK  Name = C:\Users\Docking\Desktop\test protocol\1iep_ligandH.pdb
REMARK  8 active torsions:
REMARK  status: ('A' for Active; 'I' for Inactive)
REMARK    1  A    between atoms: _5  and  _11
REMARK    2  A    between atoms: _19  and  _21
REMARK    3  A    between atoms: _22  and  _66
REMARK    4  A    between atoms: _27  and  _30
REMARK    5  A    between atoms: _32  and  _33
REMARK    6  A    between atoms: _38  and  _43
REMARK    7  A    between atoms: _43  and  _46
REMARK    8  A    between atoms: _53  and  _55
REMARK                            x       y       z     vdW  Elec       q    Type
REMARK                         _______ _______ _______ _____ _____    ______ ____
ROOT
ATOM     10  C   UNL     1      18.834  17.920  13.122  0.00  0.00    +0.038 A 
ATOM     11  C   UNL     1      19.121  19.263  13.475  0.00  0.00    +0.047 A 
ATOM     12  C   UNL     1      19.593  20.217  12.485  0.00  0.00    +0.035 A 
ATOM     32  C   UNL     1      19.760  19.770  11.141  0.00  0.00    +0.024 A 
ATOM     33  C   UNL     1      19.473  18.408  10.765  0.00  0.00    +0.007 A 
ATOM     34  C   UNL     1      19.010  17.462  11.738  0.00  0.00    -0.029 A 
ATOM     35  C   UNL     1      18.725  16.013  11.279  0.00  0.00    +0.045 C 
ENDROOT
BRANCH  10   9
ATOM      4  C   UNL     1      15.476  16.346  16.169  0.00  0.00    +0.077 A 
ATOM      5  C   UNL     1      14.551  17.368  15.771  0.00  0.00    +0.048 A 
ATOM      6  C   UNL     1      14.981  18.283  14.784  0.00  0.00    +0.116 A 
ATOM      7  N   UNL     1      16.244  18.175  14.242  0.00  0.00    -0.223 NA
ATOM      8  C   UNL     1      17.111  17.178  14.650  0.00  0.00    +0.220 A 
ATOM      9  N   UNL     1      18.383  17.046  14.113  0.00  0.00    -0.283 N 
ATOM     36  H   UNL     1      18.995  16.301  14.446  0.00  0.00    +0.155 HD
ATOM     37  N   UNL     1      16.725  16.293  15.592  0.00  0.00    -0.214 NA
BRANCH   4   3
ATOM      1  C   UNL     1      14.259  14.567  19.433  0.00  0.00    +0.020 A 
ATOM      2  C   UNL     1      14.535  15.612  18.474  0.00  0.00    +0.013 A 
ATOM      3  C   UNL     1      15.167  15.303  17.198  0.00  0.00    +0.019 A 
ATOM     38  C   UNL     1      15.508  13.916  16.920  0.00  0.00    +0.120 A 
ATOM     39  N   UNL     1      15.231  12.931  17.863  0.00  0.00    -0.263 NA
ATOM     40  C   UNL     1      14.625  13.217  19.095  0.00  0.00    +0.111 A 
ENDBRANCH   4   3
ENDBRANCH  10   9
BRANCH  12  13
ATOM     13  N   UNL     1      19.909  21.592  12.787  0.00  0.00    -0.281 N 
ATOM     14  C   UNL     1      19.046  22.675  12.822  0.00  0.00    +0.248 C 
ATOM     30  O   UNL     1      17.904  22.664  12.388  0.00  0.00    -0.270 OA
ATOM     31  H   UNL     1      20.886  21.789  13.001  0.00  0.00    +0.155 HD
BRANCH  14  15
ATOM     15  C   UNL     1      19.527  23.962  13.412  0.00  0.00    +0.037 A 
ATOM     16  C   UNL     1      18.728  25.186  13.319  0.00  0.00    +0.013 A 
ATOM     17  C   UNL     1      19.223  26.417  13.882  0.00  0.00    +0.005 A 
ATOM     18  C   UNL     1      20.525  26.429  14.544  0.00  0.00    -0.033 A 
ATOM     28  C   UNL     1      21.295  25.199  14.626  0.00  0.00    +0.005 A 
ATOM     29  C   UNL     1      20.814  23.991  14.075  0.00  0.00    +0.013 A 
BRANCH  18  19
ATOM     19  C   UNL     1      21.141  27.702  15.154  0.00  0.00    +0.119 C 
BRANCH  19  20
ATOM     20  N   UNL     1      22.588  27.653  15.522  0.00  0.00    -0.302 NA
ATOM     21  C   UNL     1      22.792  27.517  17.034  0.00  0.00    +0.066 C 
ATOM     22  C   UNL     1      24.310  27.445  17.399  0.00  0.00    -0.064 C 
ATOM     23  N   UNL     1      25.020  28.691  16.866  0.00  0.00    +0.379 N 
ATOM     24  C   UNL     1      26.436  28.654  17.258  0.00  0.00    -0.096 C 
ATOM     25  H   UNL     1      24.556  29.579  17.356  0.00  0.00    -0.082 HD
ATOM     26  C   UNL     1      24.820  28.835  15.365  0.00  0.00    -0.064 C 
ATOM     27  C   UNL     1      23.307  28.877  15.010  0.00  0.00    +0.066 C 
ENDBRANCH  19  20
ENDBRANCH  18  19
ENDBRANCH  14  15
ENDBRANCH  12  13
TORSDOF 6
ENDMDL
MODEL 3
REMARK VINA RESULT:      -8.8      3.185      5.038
REMARK  Name = C:\Users\Docking\Desktop\test protocol\1iep_ligandH.pdb
REMARK  8 active torsions:
REMARK  status: ('A' for Active; 'I' for Inactive)
REMARK    1  A    between atoms: _5  and  _11
REMARK    2  A    between atoms: _19  and  _21
REMARK    3  A    between atoms: _22  and  _66
REMARK    4  A    between atoms: _27  and  _30
REMARK    5  A    between atoms: _32  and  _33
REMARK    6  A    between atoms: _38  and  _43
REMARK    7  A    between atoms: _43  and  _46
REMARK    8  A    between atoms: _53  and  _55
REMARK                            x       y       z     vdW  Elec       q    Type
REMARK                         _______ _______ _______ _____ _____    ______ ____
ROOT
ATOM     10  C   UNL     1      17.017  23.666  19.170  0.00  0.00    +0.038 A 
ATOM     11  C   UNL     1      15.639  24.001  19.126  0.00  0.00    +0.047 A 
ATOM     12  C   UNL     1      14.627  23.093  19.644  0.00  0.00    +0.035 A 
ATOM     32  C   UNL     1      15.054  21.853  20.202  0.00  0.00    +0.024 A 
ATOM     33  C   UNL     1      16.451  21.496  20.254  0.00  0.00    +0.007 A 
ATOM     34  C   UNL     1      17.453  22.387  19.743  0.00  0.00    -0.029 A 
ATOM     35  C   UNL     1      18.934  21.950  19.819  0.00  0.00    +0.045 C 
ENDROOT
BRANCH  10   9
ATOM      4  C   UNL     1      19.448  25.639  15.532  0.00  0.00    +0.077 A 
ATOM      5  C   UNL     1      18.836  24.767  14.572  0.00  0.00    +0.048 A 
ATOM      6  C   UNL     1      17.906  23.819  15.056  0.00  0.00    +0.116 A 
ATOM      7  N   UNL     1      17.617  23.759  16.403  0.00  0.00    -0.223 NA
ATOM      8  C   UNL     1      18.227  24.614  17.302  0.00  0.00    +0.220 A 
ATOM      9  N   UNL     1      17.946  24.575  18.659  0.00  0.00    -0.283 N 
ATOM     36  H   UNL     1      18.422  25.218  19.291  0.00  0.00    +0.155 HD
ATOM     37  N   UNL     1      19.119  25.526  16.865  0.00  0.00    -0.214 NA
BRANCH   4   3
ATOM      1  C   UNL     1      21.493  28.331  13.564  0.00  0.00    +0.020 A 
ATOM      2  C   UNL     1      20.508  27.316  13.858  0.00  0.00    +0.013 A 
ATOM      3  C   UNL     1      20.448  26.695  15.175  0.00  0.00    +0.019 A 
ATOM     38  C   UNL     1      21.406  27.128  16.181  0.00  0.00    +0.120 A 
ATOM     39  N   UNL     1      22.344  28.107  15.870  0.00  0.00    -0.263 NA
ATOM     40  C   UNL     1      22.413  28.710  14.605  0.00  0.00    +0.111 A 
ENDBRANCH   4   3
ENDBRANCH  10   9
BRANCH  12  13
ATOM     13  N   UNL     1      13.214  23.375  19.618  0.00  0.00    -0.281 N 
ATOM     14  C   UNL     1      12.371  23.407  18.519  0.00  0.00    +0.248 C 
ATOM     30  O   UNL     1      12.750  23.406  17.358  0.00  0.00    -0.270 OA
ATOM     31  H   UNL     1      12.782  23.576  20.520  0.00  0.00    +0.155 HD
BRANCH  14  15
ATOM     15  C   UNL     1      10.894  23.460  18.743  0.00  0.00    +0.037 A 
ATOM     16  C   UNL     1      10.168  24.733  18.723  0.00  0.00    +0.013 A 
ATOM     17  C   UNL     1       8.747  24.759  18.958  0.00  0.00    +0.005 A 
ATOM     18  C   UNL     1       8.041  23.506  19.215  0.00  0.00    -0.033 A 
ATOM     28  C   UNL     1       8.784  22.257  19.225  0.00  0.00    +0.005 A 
ATOM     29  C   UNL     1      10.178  22.228  18.995  0.00  0.00    +0.013 A 
BRANCH  18  19
ATOM     19  C   UNL     1       6.528  23.441  19.498  0.00  0.00    +0.119 C 
BRANCH  19  20
ATOM     20  N   UNL     1       6.086  22.629  20.671  0.00  0.00    -0.302 NA
ATOM     21  C   UNL     1       4.608  22.240  20.576  0.00  0.00    +0.066 C 
ATOM     22  C   UNL     1       4.168  21.373  21.800  0.00  0.00    -0.064 C 
ATOM     23  N   UNL     1       4.443  22.142  23.093  0.00  0.00    +0.379 N 
ATOM     24  C   UNL     1       3.977  21.353  24.242  0.00  0.00    -0.096 C 
ATOM     25  H   UNL     1       3.843  23.081  23.061  0.00  0.00    -0.082 HD
ATOM     26  C   UNL     1       5.910  22.535  23.194  0.00  0.00    -0.064 C 
ATOM     27  C   UNL     1       6.345  23.372  21.958  0.00  0.00    +0.066 C 
ENDBRANCH  19  20
ENDBRANCH  18  19
ENDBRANCH  14  15
ENDBRANCH  12  13
TORSDOF 6
ENDMDL
MODEL 4
REMARK VINA RESULT:      -8.7      1.820      2.681
REMARK  Name = C:\Users\Docking\Desktop\test protocol\1iep_ligandH.pdb
REMARK  8 active torsions:
REMARK  status: ('A' for Active; 'I' for Inactive)
REMARK    1  A    between atoms: _5  and  _11
REMARK    2  A    between atoms: _19  and  _21
REMARK    3  A    between atoms: _22  and  _66
REMARK    4  A    between atoms: _27  and  _30
REMARK    5  A    between atoms: _32  and  _33
REMARK    6  A    between atoms: _38  and  _43
REMARK    7  A    between atoms: _43  and  _46
REMARK    8  A    between atoms: _53  and  _55
REMARK                            x       y       z     vdW  Elec       q    Type
REMARK                         _______ _______ _______ _____ _____    ______ ____
ROOT
ATOM     10  C   UNL     1      18.131  23.194  15.312  0.00  0.00    +0.038 A 
ATOM     11  C   UNL     1      17.018  23.498  16.138  0.00  0.00    +0.047 A 
ATOM     12  C   UNL     1      15.743  22.821  15.962  0.00  0.00    +0.035 A 
ATOM     32  C   UNL     1      15.636  21.837  14.936  0.00  0.00    +0.024 A 
ATOM     33  C   UNL     1      16.756  21.517  14.086  0.00  0.00    +0.007 A 
ATOM     34  C   UNL     1      18.016  22.183  14.254  0.00  0.00    -0.029 A 
ATOM     35  C   UNL     1      19.181  21.804  13.310  0.00  0.00    +0.045 C 
ENDROOT
BRANCH  10   9
ATOM      4  C   UNL     1      21.071  26.919  14.590  0.00  0.00    +0.077 A 
ATOM      5  C   UNL     1      20.147  27.549  13.692  0.00  0.00    +0.048 A 
ATOM      6  C   UNL     1      18.930  26.879  13.436  0.00  0.00    +0.116 A 
ATOM      7  N   UNL     1      18.666  25.669  14.040  0.00  0.00    -0.223 NA
ATOM      8  C   UNL     1      19.579  25.087  14.901  0.00  0.00    +0.220 A 
ATOM      9  N   UNL     1      19.331  23.875  15.525  0.00  0.00    -0.283 N 
ATOM     36  H   UNL     1      20.034  23.475  16.147  0.00  0.00    +0.155 HD
ATOM     37  N   UNL     1      20.750  25.707  15.160  0.00  0.00    -0.214 NA
BRANCH   4   3
ATOM      1  C   UNL     1      24.683  27.369  16.021  0.00  0.00    +0.020 A 
ATOM      2  C   UNL     1      23.418  26.757  15.686  0.00  0.00    +0.013 A 
ATOM      3  C   UNL     1      22.397  27.504  14.963  0.00  0.00    +0.019 A 
ATOM     38  C   UNL     1      22.690  28.880  14.590  0.00  0.00    +0.120 A 
ATOM     39  N   UNL     1      23.917  29.444  14.928  0.00  0.00    -0.263 NA
ATOM     40  C   UNL     1      24.906  28.735  15.625  0.00  0.00    +0.111 A 
ENDBRANCH   4   3
ENDBRANCH  10   9
BRANCH  12  13
ATOM     13  N   UNL     1      14.577  23.093  16.765  0.00  0.00    -0.281 N 
ATOM     14  C   UNL     1      14.379  22.802  18.105  0.00  0.00    +0.248 C 
ATOM     30  O   UNL     1      15.097  22.067  18.766  0.00  0.00    -0.270 OA
ATOM     31  H   UNL     1      13.804  23.557  16.288  0.00  0.00    +0.155 HD
BRANCH  14  15
ATOM     15  C   UNL     1      13.205  23.403  18.809  0.00  0.00    +0.037 A 
ATOM     16  C   UNL     1      13.183  23.544  20.267  0.00  0.00    +0.013 A 
ATOM     17  C   UNL     1      12.031  24.111  20.922  0.00  0.00    +0.005 A 
ATOM     18  C   UNL     1      10.891  24.543  20.117  0.00  0.00    -0.033 A 
ATOM     28  C   UNL     1      10.941  24.397  18.672  0.00  0.00    +0.005 A 
ATOM     29  C   UNL     1      12.068  23.840  18.027  0.00  0.00    +0.013 A 
BRANCH  18  19
ATOM     19  C   UNL     1       9.611  25.140  20.733  0.00  0.00    +0.119 C 
BRANCH  19  20
ATOM     20  N   UNL     1       8.319  24.464  20.414  0.00  0.00    -0.302 NA
ATOM     21  C   UNL     1       7.131  25.139  21.105  0.00  0.00    +0.066 C 
ATOM     22  C   UNL     1       5.785  24.432  20.742  0.00  0.00    -0.064 C 
ATOM     23  N   UNL     1       5.867  22.954  21.128  0.00  0.00    +0.379 N 
ATOM     24  C   UNL     1       4.583  22.299  20.841  0.00  0.00    -0.096 C 
ATOM     25  H   UNL     1       6.036  22.901  22.229  0.00  0.00    -0.082 HD
ATOM     26  C   UNL     1       7.048  22.276  20.447  0.00  0.00    -0.064 C 
ATOM     27  C   UNL     1       8.377  23.004  20.791  0.00  0.00    +0.066 C 
ENDBRANCH  19  20
ENDBRANCH  18  19
ENDBRANCH  14  15
ENDBRANCH  12  13
TORSDOF 6
ENDMDL
MODEL 5
REMARK VINA RESULT:      -8.5      1.584      2.444
REMARK  Name = C:\Users\Docking\Desktop\test protocol\1iep_ligandH.pdb
REMARK  8 active torsions:
REMARK  status: ('A' for Active; 'I' for Inactive)
REMARK    1  A    between atoms: _5  and  _11
REMARK    2  A    between atoms: _19  and  _21
REMARK    3  A    between atoms: _22  and  _66
REMARK    4  A    between atoms: _27  and  _30
REMARK    5  A    between atoms: _32  and  _33
REMARK    6  A    between atoms: _38  and  _43
REMARK    7  A    between atoms: _43  and  _46
REMARK    8  A    between atoms: _53  and  _55
REMARK                            x       y       z     vdW  Elec       q    Type
REMARK                         _______ _______ _______ _____ _____    ______ ____
ROOT
ATOM     10  C   UNL     1      18.928  23.013  14.525  0.00  0.00    +0.038 A 
ATOM     11  C   UNL     1      17.780  23.124  15.350  0.00  0.00    +0.047 A 
ATOM     12  C   UNL     1      16.567  22.376  15.057  0.00  0.00    +0.035 A 
ATOM     32  C   UNL     1      16.560  21.521  13.917  0.00  0.00    +0.024 A 
ATOM     33  C   UNL     1      17.718  21.396  13.067  0.00  0.00    +0.007 A 
ATOM     34  C   UNL     1      18.916  22.134  13.350  0.00  0.00    -0.029 A 
ATOM     35  C   UNL     1      20.125  21.966  12.400  0.00  0.00    +0.045 C 
ENDROOT
BRANCH  10   9
ATOM      4  C   UNL     1      21.484  27.075  14.504  0.00  0.00    +0.077 A 
ATOM      5  C   UNL     1      20.481  27.772  13.752  0.00  0.00    +0.048 A 
ATOM      6  C   UNL     1      19.325  27.047  13.384  0.00  0.00    +0.116 A 
ATOM      7  N   UNL     1      19.193  25.724  13.747  0.00  0.00    -0.223 NA
ATOM      8  C   UNL     1      20.181  25.081  14.471  0.00  0.00    +0.220 A 
ATOM      9  N   UNL     1      20.065  23.754  14.853  0.00  0.00    -0.283 N 
ATOM     36  H   UNL     1      20.819  23.314  15.380  0.00  0.00    +0.155 HD
ATOM     37  N   UNL     1      21.295  25.751  14.833  0.00  0.00    -0.214 NA
BRANCH   4   3
ATOM      1  C   UNL     1      24.356  29.651  15.152  0.00  0.00    +0.020 A 
ATOM      2  C   UNL     1      23.111  29.090  14.679  0.00  0.00    +0.013 A 
ATOM      3  C   UNL     1      22.760  27.705  14.969  0.00  0.00    +0.019 A 
ATOM     38  C   UNL     1      23.697  26.909  15.747  0.00  0.00    +0.120 A 
ATOM     39  N   UNL     1      24.889  27.476  16.188  0.00  0.00    -0.263 NA
ATOM     40  C   UNL     1      25.239  28.806  15.913  0.00  0.00    +0.111 A 
ENDBRANCH   4   3
ENDBRANCH  10   9
BRANCH  12  13
ATOM     13  N   UNL     1      15.368  22.456  15.853  0.00  0.00    -0.281 N 
ATOM     14  C   UNL     1      15.238  22.263  17.219  0.00  0.00    +0.248 C 
ATOM     30  O   UNL     1      16.104  21.781  17.934  0.00  0.00    -0.270 OA
ATOM     31  H   UNL     1      14.510  22.681  15.349  0.00  0.00    +0.155 HD
BRANCH  14  15
ATOM     15  C   UNL     1      13.956  22.649  17.884  0.00  0.00    +0.037 A 
ATOM     16  C   UNL     1      12.660  22.314  17.289  0.00  0.00    +0.013 A 
ATOM     17  C   UNL     1      11.439  22.713  17.943  0.00  0.00    +0.005 A 
ATOM     18  C   UNL     1      11.509  23.451  19.202  0.00  0.00    -0.033 A 
ATOM     28  C   UNL     1      12.808  23.765  19.773  0.00  0.00    +0.005 A 
ATOM     29  C   UNL     1      14.007  23.377  19.134  0.00  0.00    +0.013 A 
BRANCH  18  19
ATOM     19  C   UNL     1      10.258  23.935  19.958  0.00  0.00    +0.119 C 
BRANCH  19  20
ATOM     20  N   UNL     1       8.976  23.215  19.690  0.00  0.00    -0.302 NA
ATOM     21  C   UNL     1       7.761  24.138  19.822  0.00  0.00    +0.066 C 
ATOM     22  C   UNL     1       6.431  23.375  19.517  0.00  0.00    -0.064 C 
ATOM     23  N   UNL     1       6.306  22.177  20.459  0.00  0.00    +0.379 N 
ATOM     24  C   UNL     1       5.029  21.491  20.214  0.00  0.00    -0.096 C 
ATOM     25  H   UNL     1       6.285  22.568  21.503  0.00  0.00    -0.082 HD
ATOM     26  C   UNL     1       7.512  21.255  20.337  0.00  0.00    -0.064 C 
ATOM     27  C   UNL     1       8.830  22.030  20.613  0.00  0.00    +0.066 C 
ENDBRANCH  19  20
ENDBRANCH  18  19
ENDBRANCH  14  15
ENDBRANCH  12  13
TORSDOF 6
ENDMDL
