MODEL 1
REMARK VINA RESULT:     -10.4      0.000      0.000
REMARK  Name = C:\Users\Docking\Desktop\test protocol\1iep_ligandH.pdb
REMARK  8 active torsions:
REMARK  status: ('A' for Active; 'I' for Inactive)
REMARK    1  A    between atoms: _5  and  _11
REMARK    2  A    between atoms: _19  and  _21
REMARK    3  A    between atoms: _22  and  _66
REMARK    4  A    between atoms: _27  and  _30
REMARK    5  A    between atoms: _32  and  _33
REMARK    6  A    between atoms: _38  and  _43
REMARK    7  A    between atoms: _43  and  _46
REMARK    8  A    between atoms: _53  and  _55
REMARK                            x       y       z     vdW  Elec       q    Type
REMARK                         _______ _______ _______ _____ _____    ______ ____
ROOT
ATOM     10  C   UNL     1      38.110  -5.676 -31.714  0.00  0.00    +0.038 A 
ATOM     11  C   UNL     1      37.538  -6.078 -30.480  0.00  0.00    +0.047 A 
ATOM     12  C   UNL     1      38.355  -6.653 -29.423  0.00  0.00    +0.035 A 
ATOM     32  C   UNL     1      39.753  -6.803 -29.656  0.00  0.00    +0.024 A 
ATOM     33  C   UNL     1      40.351  -6.401 -30.905  0.00  0.00    +0.007 A 
ATOM     34  C   UNL     1      39.550  -5.835 -31.952  0.00  0.00    -0.029 A 
ATOM     35  C   UNL     1      40.244  -5.428 -33.272  0.00  0.00    +0.045 C 
ENDROOT
BRANCH  10   9
ATOM      4  C   UNL     1      35.722  -2.001 -33.670  0.00  0.00    +0.077 A 
ATOM      5  C   UNL     1      36.146  -1.099 -32.638  0.00  0.00    +0.048 A 
ATOM      6  C   UNL     1      36.972  -1.623 -31.618  0.00  0.00    +0.116 A 
ATOM      7  N   UNL     1      37.341  -2.950 -31.639  0.00  0.00    -0.223 NA
ATOM      8  C   UNL     1      36.913  -3.793 -32.648  0.00  0.00    +0.220 A 
ATOM      9  N   UNL     1      37.278  -5.130 -32.694  0.00  0.00    -0.283 N 
ATOM     36  H   UNL     1      36.936  -5.721 -33.451  0.00  0.00    +0.155 HD
ATOM     37  N   UNL     1      36.123  -3.318 -33.633  0.00  0.00    -0.214 NA
BRANCH   4   3
ATOM      1  C   UNL     1      33.310   0.017 -35.996  0.00  0.00    +0.020 A 
ATOM      2  C   UNL     1      34.140  -0.325 -34.864  0.00  0.00    +0.013 A 
ATOM      3  C   UNL     1      34.850  -1.597 -34.818  0.00  0.00    +0.019 A 
ATOM     38  C   UNL     1      34.700  -2.507 -35.943  0.00  0.00    +0.120 A 
ATOM     39  N   UNL     1      33.893  -2.151 -37.020  0.00  0.00    -0.263 NA
ATOM     40  C   UNL     1      33.203  -0.931 -37.074  0.00  0.00    +0.111 A 
ENDBRANCH   4   3
ENDBRANCH  10   9
BRANCH  12  13
ATOM     13  N   UNL     1      37.828  -7.086 -28.152  0.00  0.00    -0.281 N 
ATOM     14  C   UNL     1      36.922  -8.106 -27.909  0.00  0.00    +0.248 C 
ATOM     30  O   UNL     1      36.261  -8.663 -28.772  0.00  0.00    -0.270 OA
ATOM     31  H   UNL     1      38.165  -6.580 -27.333  0.00  0.00    +0.155 HD
BRANCH  14  15
ATOM     15  C   UNL     1      36.710  -8.562 -26.501  0.00  0.00    +0.037 A 
ATOM     16  C   UNL     1      37.504  -8.017 -25.398  0.00  0.00    +0.013 A 
ATOM     17  C   UNL     1      37.291  -8.487 -24.052  0.00  0.00    +0.005 A 
ATOM     18  C   UNL     1      36.276  -9.508 -23.802  0.00  0.00    -0.033 A 
ATOM     28  C   UNL     1      35.499 -10.028 -24.915  0.00  0.00    +0.005 A 
ATOM     29  C   UNL     1      35.706  -9.570 -26.236  0.00  0.00    +0.013 A 
BRANCH  18  19
ATOM     19  C   UNL     1      35.995 -10.083 -22.402  0.00  0.00    +0.119 C 
BRANCH  19  20
ATOM     20  N   UNL     1      35.765  -9.107 -21.295  0.00  0.00    -0.302 NA
ATOM     21  C   UNL     1      37.011  -8.919 -20.426  0.00  0.00    +0.066 C 
ATOM     22  C   UNL     1      36.759  -7.877 -19.287  0.00  0.00    -0.064 C 
ATOM     23  N   UNL     1      35.571  -8.332 -18.438  0.00  0.00    +0.379 N 
ATOM     24  C   UNL     1      35.368  -7.386 -17.332  0.00  0.00    -0.096 C 
ATOM     25  H   UNL     1      35.832  -9.321 -17.994  0.00  0.00    -0.082 HD
ATOM     26  C   UNL     1      34.328  -8.525 -19.295  0.00  0.00    -0.064 C 
ATOM     27  C   UNL     1      34.598  -9.539 -20.441  0.00  0.00    +0.066 C 
ENDBRANCH  19  20
ENDBRANCH  18  19
ENDBRANCH  14  15
ENDBRANCH  12  13
TORSDOF 6
ENDMDL
MODEL 2
REMARK VINA RESULT:      -8.4     10.256     13.796
REMARK  Name = C:\Users\Docking\Desktop\test protocol\1iep_ligandH.pdb
REMARK  8 active torsions:
REMARK  status: ('A' for Active; 'I' for Inactive)
REMARK    1  A    between atoms: _5  and  _11
REMARK    2  A    between atoms: _19  and  _21
REMARK    3  A    between atoms: _22  and  _66
REMARK    4  A    between atoms: _27  and  _30
REMARK    5  A    between atoms: _32  and  _33
REMARK    6  A    between atoms: _38  and  _43
REMARK    7  A    between atoms: _43  and  _46
REMARK    8  A    between atoms: _53  and  _55
REMARK                            x       y       z     vdW  Elec       q    Type
REMARK                         _______ _______ _______ _____ _____    ______ ____
ROOT
ATOM     10  C   UNL     1      42.118   0.830 -18.564  0.00  0.00    +0.038 A 
ATOM     11  C   UNL     1      41.011  -0.009 -18.851  0.00  0.00    +0.047 A 
ATOM     12  C   UNL     1      41.061  -1.438 -18.585  0.00  0.00    +0.035 A 
ATOM     32  C   UNL     1      42.253  -1.980 -18.023  0.00  0.00    +0.024 A 
ATOM     33  C   UNL     1      43.389  -1.142 -17.726  0.00  0.00    +0.007 A 
ATOM     34  C   UNL     1      43.347   0.268 -17.989  0.00  0.00    -0.029 A 
ATOM     35  C   UNL     1      44.596   1.117 -17.657  0.00  0.00    +0.045 C 
ENDROOT
BRANCH  10   9
ATOM      4  C   UNL     1      41.202   5.355 -17.254  0.00  0.00    +0.077 A 
ATOM      5  C   UNL     1      40.874   4.963 -15.914  0.00  0.00    +0.048 A 
ATOM      6  C   UNL     1      40.946   3.587 -15.604  0.00  0.00    +0.116 A 
ATOM      7  N   UNL     1      41.320   2.679 -16.571  0.00  0.00    -0.223 NA
ATOM      8  C   UNL     1      41.629   3.090 -17.854  0.00  0.00    +0.220 A 
ATOM      9  N   UNL     1      42.016   2.195 -18.840  0.00  0.00    -0.283 N 
ATOM     36  H   UNL     1      42.228   2.537 -19.777  0.00  0.00    +0.155 HD
ATOM     37  N   UNL     1      41.566   4.399 -18.175  0.00  0.00    -0.214 NA
BRANCH   4   3
ATOM      1  C   UNL     1      41.292   9.265 -17.354  0.00  0.00    +0.020 A 
ATOM      2  C   UNL     1      41.325   7.915 -16.840  0.00  0.00    +0.013 A 
ATOM      3  C   UNL     1      41.176   6.773 -17.734  0.00  0.00    +0.019 A 
ATOM     38  C   UNL     1      40.996   7.034 -19.154  0.00  0.00    +0.120 A 
ATOM     39  N   UNL     1      40.968   8.344 -19.621  0.00  0.00    -0.263 NA
ATOM     40  C   UNL     1      41.108   9.451 -18.770  0.00  0.00    +0.111 A 
ENDBRANCH   4   3
ENDBRANCH  10   9
BRANCH  12  13
ATOM     13  N   UNL     1      39.971  -2.340 -18.863  0.00  0.00    -0.281 N 
ATOM     14  C   UNL     1      39.279  -2.499 -20.053  0.00  0.00    +0.248 C 
ATOM     30  O   UNL     1      39.353  -1.734 -21.002  0.00  0.00    -0.270 OA
ATOM     31  H   UNL     1      39.673  -2.934 -18.088  0.00  0.00    +0.155 HD
BRANCH  14  15
ATOM     15  C   UNL     1      38.362  -3.670 -20.204  0.00  0.00    +0.037 A 
ATOM     16  C   UNL     1      37.098  -3.556 -20.936  0.00  0.00    +0.013 A 
ATOM     17  C   UNL     1      36.224  -4.696 -21.052  0.00  0.00    +0.005 A 
ATOM     18  C   UNL     1      36.613  -5.962 -20.435  0.00  0.00    -0.033 A 
ATOM     28  C   UNL     1      37.875  -6.049 -19.719  0.00  0.00    +0.005 A 
ATOM     29  C   UNL     1      38.733  -4.933 -19.602  0.00  0.00    +0.013 A 
BRANCH  18  19
ATOM     19  C   UNL     1      35.732  -7.224 -20.491  0.00  0.00    +0.119 C 
BRANCH  19  20
ATOM     20  N   UNL     1      36.057  -8.327 -19.538  0.00  0.00    -0.302 NA
ATOM     21  C   UNL     1      36.292  -9.658 -20.257  0.00  0.00    +0.066 C 
ATOM     22  C   UNL     1      36.653 -10.795 -19.247  0.00  0.00    -0.064 C 
ATOM     23  N   UNL     1      35.533 -10.929 -18.214  0.00  0.00    +0.379 N 
ATOM     24  C   UNL     1      35.841 -12.036 -17.297  0.00  0.00    -0.096 C 
ATOM     25  H   UNL     1      34.598 -11.193 -18.761  0.00  0.00    -0.082 HD
ATOM     26  C   UNL     1      35.290  -9.610 -17.495  0.00  0.00    -0.064 C 
ATOM     27  C   UNL     1      34.962  -8.480 -18.511  0.00  0.00    +0.066 C 
ENDBRANCH  19  20
ENDBRANCH  18  19
ENDBRANCH  14  15
ENDBRANCH  12  13
TORSDOF 6
ENDMDL
MODEL 3
REMARK VINA RESULT:      -8.4      3.929      5.577
REMARK  Name = C:\Users\Docking\Desktop\test protocol\1iep_ligandH.pdb
REMARK  8 active torsions:
REMARK  status: ('A' for Active; 'I' for Inactive)
REMARK    1  A    between atoms: _5  and  _11
REMARK    2  A    between atoms: _19  and  _21
REMARK    3  A    between atoms: _22  and  _66
REMARK    4  A    between atoms: _27  and  _30
REMARK    5  A    between atoms: _32  and  _33
REMARK    6  A    between atoms: _38  and  _43
REMARK    7  A    between atoms: _43  and  _46
REMARK    8  A    between atoms: _53  and  _55
REMARK                            x       y       z     vdW  Elec       q    Type
REMARK                         _______ _______ _______ _____ _____    ______ ____
ROOT
ATOM     10  C   UNL     1      39.375  -6.688 -30.405  0.00  0.00    +0.038 A 
ATOM     11  C   UNL     1      39.224  -7.071 -29.048  0.00  0.00    +0.047 A 
ATOM     12  C   UNL     1      37.997  -7.690 -28.572  0.00  0.00    +0.035 A 
ATOM     32  C   UNL     1      36.943  -7.907 -29.507  0.00  0.00    +0.024 A 
ATOM     33  C   UNL     1      37.079  -7.522 -30.890  0.00  0.00    +0.007 A 
ATOM     34  C   UNL     1      38.286  -6.909 -31.365  0.00  0.00    -0.029 A 
ATOM     35  C   UNL     1      38.374  -6.511 -32.857  0.00  0.00    +0.045 C 
ENDROOT
BRANCH  10   9
ATOM      4  C   UNL     1      42.282  -2.896 -30.861  0.00  0.00    +0.077 A 
ATOM      5  C   UNL     1      41.318  -2.012 -30.273  0.00  0.00    +0.048 A 
ATOM      6  C   UNL     1      40.084  -2.571 -29.873  0.00  0.00    +0.116 A 
ATOM      7  N   UNL     1      39.842  -3.916 -30.052  0.00  0.00    -0.223 NA
ATOM      8  C   UNL     1      40.793  -4.741 -30.624  0.00  0.00    +0.220 A 
ATOM      9  N   UNL     1      40.575  -6.097 -30.807  0.00  0.00    -0.283 N 
ATOM     36  H   UNL     1      41.299  -6.671 -31.240  0.00  0.00    +0.155 HD
ATOM     37  N   UNL     1      41.979  -4.231 -31.016  0.00  0.00    -0.214 NA
BRANCH   4   3
ATOM      1  C   UNL     1      45.426  -2.237 -33.093  0.00  0.00    +0.020 A 
ATOM      2  C   UNL     1      44.113  -2.683 -32.689  0.00  0.00    +0.013 A 
ATOM      3  C   UNL     1      43.634  -2.456 -31.332  0.00  0.00    +0.019 A 
ATOM     38  C   UNL     1      44.515  -1.770 -30.399  0.00  0.00    +0.120 A 
ATOM     39  N   UNL     1      45.776  -1.353 -30.816  0.00  0.00    -0.263 NA
ATOM     40  C   UNL     1      46.248  -1.567 -32.120  0.00  0.00    +0.111 A 
ENDBRANCH   4   3
ENDBRANCH  10   9
BRANCH  12  13
ATOM     13  N   UNL     1      37.784  -8.093 -27.204  0.00  0.00    -0.281 N 
ATOM     14  C   UNL     1      37.058  -7.434 -26.226  0.00  0.00    +0.248 C 
ATOM     30  O   UNL     1      36.657  -6.283 -26.320  0.00  0.00    -0.270 OA
ATOM     31  H   UNL     1      38.221  -8.971 -26.923  0.00  0.00    +0.155 HD
BRANCH  14  15
ATOM     15  C   UNL     1      36.745  -8.151 -24.952  0.00  0.00    +0.037 A 
ATOM     16  C   UNL     1      37.329  -7.726 -23.677  0.00  0.00    +0.013 A 
ATOM     17  C   UNL     1      37.024  -8.446 -22.467  0.00  0.00    +0.005 A 
ATOM     18  C   UNL     1      36.128  -9.599 -22.525  0.00  0.00    -0.033 A 
ATOM     28  C   UNL     1      35.559  -9.996 -23.803  0.00  0.00    +0.005 A 
ATOM     29  C   UNL     1      35.857  -9.293 -24.992  0.00  0.00    +0.013 A 
BRANCH  18  19
ATOM     19  C   UNL     1      35.764 -10.439 -21.287  0.00  0.00    +0.119 C 
BRANCH  19  20
ATOM     20  N   UNL     1      35.422  -9.699 -20.035  0.00  0.00    -0.302 NA
ATOM     21  C   UNL     1      35.705 -10.530 -18.781  0.00  0.00    +0.066 C 
ATOM     22  C   UNL     1      35.362  -9.733 -17.481  0.00  0.00    -0.064 C 
ATOM     23  N   UNL     1      33.896  -9.300 -17.523  0.00  0.00    +0.379 N 
ATOM     24  C   UNL     1      33.555  -8.600 -16.276  0.00  0.00    -0.096 C 
ATOM     25  H   UNL     1      33.272 -10.222 -17.575  0.00  0.00    -0.082 HD
ATOM     26  C   UNL     1      33.605  -8.475 -18.769  0.00  0.00    -0.064 C 
ATOM     27  C   UNL     1      33.976  -9.266 -20.054  0.00  0.00    +0.066 C 
ENDBRANCH  19  20
ENDBRANCH  18  19
ENDBRANCH  14  15
ENDBRANCH  12  13
TORSDOF 6
ENDMDL
MODEL 4
REMARK VINA RESULT:      -8.3     10.476     17.123
REMARK  Name = C:\Users\Docking\Desktop\test protocol\1iep_ligandH.pdb
REMARK  8 active torsions:
REMARK  status: ('A' for Active; 'I' for Inactive)
REMARK    1  A    between atoms: _5  and  _11
REMARK    2  A    between atoms: _19  and  _21
REMARK    3  A    between atoms: _22  and  _66
REMARK    4  A    between atoms: _27  and  _30
REMARK    5  A    between atoms: _32  and  _33
REMARK    6  A    between atoms: _38  and  _43
REMARK    7  A    between atoms: _43  and  _46
REMARK    8  A    between atoms: _53  and  _55
REMARK                            x       y       z     vdW  Elec       q    Type
REMARK                         _______ _______ _______ _____ _____    ______ ____
ROOT
ATOM     10  C   UNL     1      22.555  -2.618 -38.454  0.00  0.00    +0.038 A 
ATOM     11  C   UNL     1      23.771  -2.066 -37.974  0.00  0.00    +0.047 A 
ATOM     12  C   UNL     1      25.008  -2.201 -38.727  0.00  0.00    +0.035 A 
ATOM     32  C   UNL     1      24.970  -2.901 -39.968  0.00  0.00    +0.024 A 
ATOM     33  C   UNL     1      23.744  -3.469 -40.471  0.00  0.00    +0.007 A 
ATOM     34  C   UNL     1      22.521  -3.341 -39.731  0.00  0.00    -0.029 A 
ATOM     35  C   UNL     1      21.237  -3.976 -40.315  0.00  0.00    +0.045 C 
ENDROOT
BRANCH  10   9
ATOM      4  C   UNL     1      19.094   0.093 -36.529  0.00  0.00    +0.077 A 
ATOM      5  C   UNL     1      19.655   1.298 -37.069  0.00  0.00    +0.048 A 
ATOM      6  C   UNL     1      20.839   1.177 -37.830  0.00  0.00    +0.116 A 
ATOM      7  N   UNL     1      21.410  -0.061 -38.031  0.00  0.00    -0.223 NA
ATOM      8  C   UNL     1      20.844  -1.202 -37.494  0.00  0.00    +0.220 A 
ATOM      9  N   UNL     1      21.397  -2.459 -37.690  0.00  0.00    -0.283 N 
ATOM     36  H   UNL     1      20.954  -3.276 -37.271  0.00  0.00    +0.155 HD
ATOM     37  N   UNL     1      19.715  -1.114 -36.762  0.00  0.00    -0.214 NA
BRANCH   4   3
ATOM      1  C   UNL     1      16.138   1.121 -34.182  0.00  0.00    +0.020 A 
ATOM      2  C   UNL     1      17.351   1.209 -34.962  0.00  0.00    +0.013 A 
ATOM      3  C   UNL     1      17.844   0.056 -35.705  0.00  0.00    +0.019 A 
ATOM     38  C   UNL     1      17.079  -1.180 -35.639  0.00  0.00    +0.120 A 
ATOM     39  N   UNL     1      15.915  -1.235 -34.879  0.00  0.00    -0.263 NA
ATOM     40  C   UNL     1      15.432  -0.133 -34.158  0.00  0.00    +0.111 A 
ENDBRANCH   4   3
ENDBRANCH  10   9
BRANCH  12  13
ATOM     13  N   UNL     1      26.273  -1.669 -38.286  0.00  0.00    -0.281 N 
ATOM     14  C   UNL     1      27.129  -2.190 -37.329  0.00  0.00    +0.248 C 
ATOM     30  O   UNL     1      26.832  -3.083 -36.550  0.00  0.00    -0.270 OA
ATOM     31  H   UNL     1      26.575  -0.803 -38.734  0.00  0.00    +0.155 HD
BRANCH  14  15
ATOM     15  C   UNL     1      28.508  -1.626 -37.210  0.00  0.00    +0.037 A 
ATOM     16  C   UNL     1      28.737  -0.180 -37.169  0.00  0.00    +0.013 A 
ATOM     17  C   UNL     1      30.079   0.337 -37.072  0.00  0.00    +0.005 A 
ATOM     18  C   UNL     1      31.203  -0.594 -37.012  0.00  0.00    -0.033 A 
ATOM     28  C   UNL     1      30.947  -2.025 -37.049  0.00  0.00    +0.005 A 
ATOM     29  C   UNL     1      29.633  -2.535 -37.146  0.00  0.00    +0.013 A 
BRANCH  18  19
ATOM     19  C   UNL     1      32.670  -0.131 -36.929  0.00  0.00    +0.119 C 
BRANCH  19  20
ATOM     20  N   UNL     1      33.576  -0.893 -36.019  0.00  0.00    -0.302 NA
ATOM     21  C   UNL     1      34.096  -0.026 -34.868  0.00  0.00    +0.066 C 
ATOM     22  C   UNL     1      35.024  -0.845 -33.913  0.00  0.00    -0.064 C 
ATOM     23  N   UNL     1      36.186  -1.432 -34.716  0.00  0.00    +0.379 N 
ATOM     24  C   UNL     1      37.093  -2.154 -33.811  0.00  0.00    -0.096 C 
ATOM     25  H   UNL     1      36.756  -0.581 -35.158  0.00  0.00    -0.082 HD
ATOM     26  C   UNL     1      35.679  -2.293 -35.864  0.00  0.00    -0.064 C 
ATOM     27  C   UNL     1      34.733  -1.478 -36.790  0.00  0.00    +0.066 C 
ENDBRANCH  19  20
ENDBRANCH  18  19
ENDBRANCH  14  15
ENDBRANCH  12  13
TORSDOF 6
ENDMDL
MODEL 5
REMARK VINA RESULT:      -8.2      8.866     14.651
REMARK  Name = C:\Users\Docking\Desktop\test protocol\1iep_ligandH.pdb
REMARK  8 active torsions:
REMARK  status: ('A' for Active; 'I' for Inactive)
REMARK    1  A    between atoms: _5  and  _11
REMARK    2  A    between atoms: _19  and  _21
REMARK    3  A    between atoms: _22  and  _66
REMARK    4  A    between atoms: _27  and  _30
REMARK    5  A    between atoms: _32  and  _33
REMARK    6  A    between atoms: _38  and  _43
REMARK    7  A    between atoms: _43  and  _46
REMARK    8  A    between atoms: _53  and  _55
REMARK                            x       y       z     vdW  Elec       q    Type
REMARK                         _______ _______ _______ _____ _____    ______ ____
ROOT
ATOM     10  C   UNL     1      39.872  -3.402 -18.805  0.00  0.00    +0.038 A 
ATOM     11  C   UNL     1      40.158  -2.736 -20.024  0.00  0.00    +0.047 A 
ATOM     12  C   UNL     1      40.672  -1.375 -20.034  0.00  0.00    +0.035 A 
ATOM     32  C   UNL     1      40.885  -0.723 -18.785  0.00  0.00    +0.024 A 
ATOM     33  C   UNL     1      40.598  -1.386 -17.537  0.00  0.00    +0.007 A 
ATOM     34  C   UNL     1      40.088  -2.727 -17.520  0.00  0.00    -0.029 A 
ATOM     35  C   UNL     1      39.792  -3.386 -16.152  0.00  0.00    +0.045 C 
ENDROOT
BRANCH  10   9
ATOM      4  C   UNL     1      36.765  -6.700 -20.390  0.00  0.00    +0.077 A 
ATOM      5  C   UNL     1      36.043  -5.733 -21.166  0.00  0.00    +0.048 A 
ATOM      6  C   UNL     1      36.500  -4.396 -21.124  0.00  0.00    +0.116 A 
ATOM      7  N   UNL     1      37.597  -4.063 -20.361  0.00  0.00    -0.223 NA
ATOM      8  C   UNL     1      38.269  -5.020 -19.622  0.00  0.00    +0.220 A 
ATOM      9  N   UNL     1      39.380  -4.709 -18.854  0.00  0.00    -0.283 N 
ATOM     36  H   UNL     1      39.844  -5.442 -18.318  0.00  0.00    +0.155 HD
ATOM     37  N   UNL     1      37.852  -6.303 -19.644  0.00  0.00    -0.214 NA
BRANCH   4   3
ATOM      1  C   UNL     1      35.647 -10.311 -21.395  0.00  0.00    +0.020 A 
ATOM      2  C   UNL     1      35.982  -8.910 -21.504  0.00  0.00    +0.013 A 
ATOM      3  C   UNL     1      36.407  -8.152 -20.333  0.00  0.00    +0.019 A 
ATOM     38  C   UNL     1      36.484  -8.849 -19.058  0.00  0.00    +0.120 A 
ATOM     39  N   UNL     1      36.155 -10.198 -18.983  0.00  0.00    -0.263 NA
ATOM     40  C   UNL     1      35.743 -10.937 -20.103  0.00  0.00    +0.111 A 
ENDBRANCH   4   3
ENDBRANCH  10   9
BRANCH  12  13
ATOM     13  N   UNL     1      40.974  -0.645 -21.241  0.00  0.00    -0.281 N 
ATOM     14  C   UNL     1      40.139  -0.398 -22.318  0.00  0.00    +0.248 C 
ATOM     30  O   UNL     1      39.066  -0.953 -22.502  0.00  0.00    -0.270 OA
ATOM     31  H   UNL     1      41.917  -0.263 -21.308  0.00  0.00    +0.155 HD
BRANCH  14  15
ATOM     15  C   UNL     1      40.563   0.599 -23.347  0.00  0.00    +0.037 A 
ATOM     16  C   UNL     1      39.584   1.439 -24.041  0.00  0.00    +0.013 A 
ATOM     17  C   UNL     1      40.018   2.381 -25.042  0.00  0.00    +0.005 A 
ATOM     18  C   UNL     1      41.442   2.490 -25.353  0.00  0.00    -0.033 A 
ATOM     28  C   UNL     1      42.393   1.648 -24.645  0.00  0.00    +0.005 A 
ATOM     29  C   UNL     1      41.970   0.723 -23.665  0.00  0.00    +0.013 A 
BRANCH  18  19
ATOM     19  C   UNL     1      41.993   3.452 -26.421  0.00  0.00    +0.119 C 
BRANCH  19  20
ATOM     20  N   UNL     1      42.156   4.885 -26.031  0.00  0.00    -0.302 NA
ATOM     21  C   UNL     1      43.606   5.358 -26.173  0.00  0.00    +0.066 C 
ATOM     22  C   UNL     1      43.754   6.864 -25.783  0.00  0.00    -0.064 C 
ATOM     23  N   UNL     1      43.255   7.069 -24.352  0.00  0.00    +0.379 N 
ATOM     24  C   UNL     1      43.446   8.474 -23.961  0.00  0.00    -0.096 C 
ATOM     25  H   UNL     1      43.887   6.442 -23.680  0.00  0.00    -0.082 HD
ATOM     26  C   UNL     1      41.815   6.599 -24.201  0.00  0.00    -0.064 C 
ATOM     27  C   UNL     1      41.673   5.109 -24.620  0.00  0.00    +0.066 C 
ENDBRANCH  19  20
ENDBRANCH  18  19
ENDBRANCH  14  15
ENDBRANCH  12  13
TORSDOF 6
ENDMDL
