MODEL 1
REMARK VINA RESULT:      -8.0      0.000      0.000
REMARK  Name = C:\Users\Docking\Desktop\test protocol\1iep_ligandH.pdb
REMARK  8 active torsions:
REMARK  status: ('A' for Active; 'I' for Inactive)
REMARK    1  A    between atoms: _5  and  _11
REMARK    2  A    between atoms: _19  and  _21
REMARK    3  A    between atoms: _22  and  _66
REMARK    4  A    between atoms: _27  and  _30
REMARK    5  A    between atoms: _32  and  _33
REMARK    6  A    between atoms: _38  and  _43
REMARK    7  A    between atoms: _43  and  _46
REMARK    8  A    between atoms: _53  and  _55
REMARK                            x       y       z     vdW  Elec       q    Type
REMARK                         _______ _______ _______ _____ _____    ______ ____
ROOT
ATOM     10  C   UNL     1     -14.643   9.603  -5.772  0.00  0.00    +0.038 A 
ATOM     11  C   UNL     1     -15.063   8.495  -6.552  0.00  0.00    +0.047 A 
ATOM     12  C   UNL     1     -16.427   8.400  -7.050  0.00  0.00    +0.035 A 
ATOM     32  C   UNL     1     -17.335   9.453  -6.737  0.00  0.00    +0.024 A 
ATOM     33  C   UNL     1     -16.925  10.585  -5.945  0.00  0.00    +0.007 A 
ATOM     34  C   UNL     1     -15.582  10.683  -5.448  0.00  0.00    -0.029 A 
ATOM     35  C   UNL     1     -15.199  11.917  -4.598  0.00  0.00    +0.045 C 
ENDROOT
BRANCH  10   9
ATOM      4  C   UNL     1     -11.137   8.185  -2.816  0.00  0.00    +0.077 A 
ATOM      5  C   UNL     1     -12.017   7.311  -2.096  0.00  0.00    +0.048 A 
ATOM      6  C   UNL     1     -13.366   7.260  -2.513  0.00  0.00    +0.116 A 
ATOM      7  N   UNL     1     -13.792   8.031  -3.573  0.00  0.00    -0.223 NA
ATOM      8  C   UNL     1     -12.917   8.865  -4.245  0.00  0.00    +0.220 A 
ATOM      9  N   UNL     1     -13.322   9.642  -5.319  0.00  0.00    -0.283 N 
ATOM     36  H   UNL     1     -12.648  10.250  -5.784  0.00  0.00    +0.155 HD
ATOM     37  N   UNL     1     -11.624   8.932  -3.865  0.00  0.00    -0.214 NA
BRANCH   4   3
ATOM      1  C   UNL     1      -7.775   8.732  -0.893  0.00  0.00    +0.020 A 
ATOM      2  C   UNL     1      -9.189   8.584  -1.147  0.00  0.00    +0.013 A 
ATOM      3  C   UNL     1      -9.683   8.345  -2.497  0.00  0.00    +0.019 A 
ATOM     38  C   UNL     1      -8.710   8.259  -3.577  0.00  0.00    +0.120 A 
ATOM     39  N   UNL     1      -7.354   8.407  -3.302  0.00  0.00    -0.263 NA
ATOM     40  C   UNL     1      -6.868   8.639  -2.007  0.00  0.00    +0.111 A 
ENDBRANCH   4   3
ENDBRANCH  10   9
BRANCH  12  13
ATOM     13  N   UNL     1     -16.913   7.296  -7.840  0.00  0.00    -0.281 N 
ATOM     14  C   UNL     1     -17.140   7.261  -9.206  0.00  0.00    +0.248 C 
ATOM     30  O   UNL     1     -17.161   8.247  -9.929  0.00  0.00    -0.270 OA
ATOM     31  H   UNL     1     -17.115   6.436  -7.330  0.00  0.00    +0.155 HD
BRANCH  14  15
ATOM     15  C   UNL     1     -17.394   5.943  -9.862  0.00  0.00    +0.037 A 
ATOM     16  C   UNL     1     -18.633   5.688 -10.601  0.00  0.00    +0.013 A 
ATOM     17  C   UNL     1     -18.860   4.401 -11.210  0.00  0.00    +0.005 A 
ATOM     18  C   UNL     1     -17.844   3.359 -11.083  0.00  0.00    -0.033 A 
ATOM     28  C   UNL     1     -16.622   3.641 -10.349  0.00  0.00    +0.005 A 
ATOM     29  C   UNL     1     -16.396   4.900  -9.750  0.00  0.00    +0.013 A 
BRANCH  18  19
ATOM     19  C   UNL     1     -18.011   1.950 -11.683  0.00  0.00    +0.119 C 
BRANCH  19  20
ATOM     20  N   UNL     1     -16.807   1.068 -11.701  0.00  0.00    -0.302 NA
ATOM     21  C   UNL     1     -16.892   0.002 -12.798  0.00  0.00    +0.066 C 
ATOM     22  C   UNL     1     -15.614  -0.898 -12.818  0.00  0.00    -0.064 C 
ATOM     23  N   UNL     1     -15.430  -1.547 -11.445  0.00  0.00    +0.379 N 
ATOM     24  C   UNL     1     -14.262  -2.439 -11.477  0.00  0.00    -0.096 C 
ATOM     25  H   UNL     1     -16.329  -2.174 -11.243  0.00  0.00    -0.082 HD
ATOM     26  C   UNL     1     -15.346  -0.494 -10.348  0.00  0.00    -0.064 C 
ATOM     27  C   UNL     1     -16.608   0.413 -10.356  0.00  0.00    +0.066 C 
ENDBRANCH  19  20
ENDBRANCH  18  19
ENDBRANCH  14  15
ENDBRANCH  12  13
TORSDOF 6
ENDMDL
MODEL 2
REMARK VINA RESULT:      -8.0      5.527     10.977
REMARK  Name = C:\Users\Docking\Desktop\test protocol\1iep_ligandH.pdb
REMARK  8 active torsions:
REMARK  status: ('A' for Active; 'I' for Inactive)
REMARK    1  A    between atoms: _5  and  _11
REMARK    2  A    between atoms: _19  and  _21
REMARK    3  A    between atoms: _22  and  _66
REMARK    4  A    between atoms: _27  and  _30
REMARK    5  A    between atoms: _32  and  _33
REMARK    6  A    between atoms: _38  and  _43
REMARK    7  A    between atoms: _43  and  _46
REMARK    8  A    between atoms: _53  and  _55
REMARK                            x       y       z     vdW  Elec       q    Type
REMARK                         _______ _______ _______ _____ _____    ______ ____
ROOT
ATOM     10  C   UNL     1     -14.054   0.829 -11.710  0.00  0.00    +0.038 A 
ATOM     11  C   UNL     1     -14.413  -0.394 -11.086  0.00  0.00    +0.047 A 
ATOM     12  C   UNL     1     -14.366  -1.652 -11.814  0.00  0.00    +0.035 A 
ATOM     32  C   UNL     1     -13.946  -1.629 -13.176  0.00  0.00    +0.024 A 
ATOM     33  C   UNL     1     -13.579  -0.396 -13.826  0.00  0.00    +0.007 A 
ATOM     34  C   UNL     1     -13.626   0.849 -13.114  0.00  0.00    -0.029 A 
ATOM     35  C   UNL     1     -13.228   2.142 -13.863  0.00  0.00    +0.045 C 
ENDROOT
BRANCH  10   9
ATOM      4  C   UNL     1     -16.405   4.679 -10.071  0.00  0.00    +0.077 A 
ATOM      5  C   UNL     1     -17.600   4.326 -10.783  0.00  0.00    +0.048 A 
ATOM      6  C   UNL     1     -17.565   3.150 -11.565  0.00  0.00    +0.116 A 
ATOM      7  N   UNL     1     -16.417   2.391 -11.624  0.00  0.00    -0.223 NA
ATOM      8  C   UNL     1     -15.281   2.760 -10.926  0.00  0.00    +0.220 A 
ATOM      9  N   UNL     1     -14.118   2.008 -10.964  0.00  0.00    -0.283 N 
ATOM     36  H   UNL     1     -13.299   2.318 -10.441  0.00  0.00    +0.155 HD
ATOM     37  N   UNL     1     -15.288   3.880 -10.173  0.00  0.00    -0.214 NA
BRANCH   4   3
ATOM      1  C   UNL     1     -17.268   7.719  -7.766  0.00  0.00    +0.020 A 
ATOM      2  C   UNL     1     -17.438   6.552  -8.601  0.00  0.00    +0.013 A 
ATOM      3  C   UNL     1     -16.286   5.890  -9.199  0.00  0.00    +0.019 A 
ATOM     38  C   UNL     1     -14.965   6.439  -8.931  0.00  0.00    +0.120 A 
ATOM     39  N   UNL     1     -14.832   7.565  -8.125  0.00  0.00    -0.263 NA
ATOM     40  C   UNL     1     -15.934   8.211  -7.545  0.00  0.00    +0.111 A 
ENDBRANCH   4   3
ENDBRANCH  10   9
BRANCH  12  13
ATOM     13  N   UNL     1     -14.726  -2.923 -11.236  0.00  0.00    -0.281 N 
ATOM     14  C   UNL     1     -15.180  -3.176  -9.952  0.00  0.00    +0.248 C 
ATOM     30  O   UNL     1     -15.142  -2.371  -9.034  0.00  0.00    -0.270 OA
ATOM     31  H   UNL     1     -14.635  -3.734 -11.848  0.00  0.00    +0.155 HD
BRANCH  14  15
ATOM     15  C   UNL     1     -15.744  -4.524  -9.639  0.00  0.00    +0.037 A 
ATOM     16  C   UNL     1     -16.604  -4.736  -8.471  0.00  0.00    +0.013 A 
ATOM     17  C   UNL     1     -17.121  -6.050  -8.182  0.00  0.00    +0.005 A 
ATOM     18  C   UNL     1     -16.781  -7.163  -9.064  0.00  0.00    -0.033 A 
ATOM     28  C   UNL     1     -15.930  -6.925 -10.218  0.00  0.00    +0.005 A 
ATOM     29  C   UNL     1     -15.420  -5.638 -10.504  0.00  0.00    +0.013 A 
BRANCH  18  19
ATOM     19  C   UNL     1     -17.271  -8.603  -8.821  0.00  0.00    +0.119 C 
BRANCH  19  20
ATOM     20  N   UNL     1     -16.660  -9.350  -7.681  0.00  0.00    -0.302 NA
ATOM     21  C   UNL     1     -15.983 -10.645  -8.139  0.00  0.00    +0.066 C 
ATOM     22  C   UNL     1     -15.330 -11.402  -6.938  0.00  0.00    -0.064 C 
ATOM     23  N   UNL     1     -16.397 -11.693  -5.881  0.00  0.00    +0.379 N 
ATOM     24  C   UNL     1     -15.798 -12.455  -4.776  0.00  0.00    -0.096 C 
ATOM     25  H   UNL     1     -17.174 -12.337  -6.354  0.00  0.00    -0.082 HD
ATOM     26  C   UNL     1     -17.076 -10.411  -5.422  0.00  0.00    -0.064 C 
ATOM     27  C   UNL     1     -17.697  -9.651  -6.628  0.00  0.00    +0.066 C 
ENDBRANCH  19  20
ENDBRANCH  18  19
ENDBRANCH  14  15
ENDBRANCH  12  13
TORSDOF 6
ENDMDL
MODEL 3
REMARK VINA RESULT:      -7.9      1.365      2.005
REMARK  Name = C:\Users\Docking\Desktop\test protocol\1iep_ligandH.pdb
REMARK  8 active torsions:
REMARK  status: ('A' for Active; 'I' for Inactive)
REMARK    1  A    between atoms: _5  and  _11
REMARK    2  A    between atoms: _19  and  _21
REMARK    3  A    between atoms: _22  and  _66
REMARK    4  A    between atoms: _27  and  _30
REMARK    5  A    between atoms: _32  and  _33
REMARK    6  A    between atoms: _38  and  _43
REMARK    7  A    between atoms: _43  and  _46
REMARK    8  A    between atoms: _53  and  _55
REMARK                            x       y       z     vdW  Elec       q    Type
REMARK                         _______ _______ _______ _____ _____    ______ ____
ROOT
ATOM     10  C   UNL     1     -14.847   9.394  -6.096  0.00  0.00    +0.038 A 
ATOM     11  C   UNL     1     -15.294   8.297  -6.876  0.00  0.00    +0.047 A 
ATOM     12  C   UNL     1     -16.666   8.223  -7.354  0.00  0.00    +0.035 A 
ATOM     32  C   UNL     1     -17.556   9.285  -7.022  0.00  0.00    +0.024 A 
ATOM     33  C   UNL     1     -17.119  10.408  -6.230  0.00  0.00    +0.007 A 
ATOM     34  C   UNL     1     -15.768  10.485  -5.753  0.00  0.00    -0.029 A 
ATOM     35  C   UNL     1     -15.356  11.709  -4.902  0.00  0.00    +0.045 C 
ENDROOT
BRANCH  10   9
ATOM      4  C   UNL     1     -11.379   8.150  -3.021  0.00  0.00    +0.077 A 
ATOM      5  C   UNL     1     -12.295   7.419  -2.192  0.00  0.00    +0.048 A 
ATOM      6  C   UNL     1     -13.651   7.395  -2.588  0.00  0.00    +0.116 A 
ATOM      7  N   UNL     1     -14.050   8.054  -3.730  0.00  0.00    -0.223 NA
ATOM      8  C   UNL     1     -13.142   8.751  -4.506  0.00  0.00    +0.220 A 
ATOM      9  N   UNL     1     -13.520   9.415  -5.663  0.00  0.00    -0.283 N 
ATOM     36  H   UNL     1     -12.821   9.923  -6.204  0.00  0.00    +0.155 HD
ATOM     37  N   UNL     1     -11.841   8.791  -4.148  0.00  0.00    -0.214 NA
BRANCH   4   3
ATOM      1  C   UNL     1      -7.961   8.655  -1.187  0.00  0.00    +0.020 A 
ATOM      2  C   UNL     1      -9.385   8.554  -1.409  0.00  0.00    +0.013 A 
ATOM      3  C   UNL     1      -9.914   8.266  -2.736  0.00  0.00    +0.019 A 
ATOM     38  C   UNL     1      -8.967   8.083  -3.826  0.00  0.00    +0.120 A 
ATOM     39  N   UNL     1      -7.601   8.188  -3.583  0.00  0.00    -0.263 NA
ATOM     40  C   UNL     1      -7.081   8.467  -2.311  0.00  0.00    +0.111 A 
ENDBRANCH   4   3
ENDBRANCH  10   9
BRANCH  12  13
ATOM     13  N   UNL     1     -17.178   7.129  -8.143  0.00  0.00    -0.281 N 
ATOM     14  C   UNL     1     -17.086   6.952  -9.513  0.00  0.00    +0.248 C 
ATOM     30  O   UNL     1     -16.732   7.817 -10.300  0.00  0.00    -0.270 OA
ATOM     31  H   UNL     1     -17.668   6.398  -7.628  0.00  0.00    +0.155 HD
BRANCH  14  15
ATOM     15  C   UNL     1     -17.454   5.625 -10.096  0.00  0.00    +0.037 A 
ATOM     16  C   UNL     1     -16.563   4.468  -9.973  0.00  0.00    +0.013 A 
ATOM     17  C   UNL     1     -16.934   3.204 -10.558  0.00  0.00    +0.005 A 
ATOM     18  C   UNL     1     -18.204   3.091 -11.272  0.00  0.00    -0.033 A 
ATOM     28  C   UNL     1     -19.071   4.253 -11.374  0.00  0.00    +0.005 A 
ATOM     29  C   UNL     1     -18.710   5.494 -10.802  0.00  0.00    +0.013 A 
BRANCH  18  19
ATOM     19  C   UNL     1     -18.671   1.787 -11.946  0.00  0.00    +0.119 C 
BRANCH  19  20
ATOM     20  N   UNL     1     -17.968   1.375 -13.197  0.00  0.00    -0.302 NA
ATOM     21  C   UNL     1     -18.879   1.466 -14.425  0.00  0.00    +0.066 C 
ATOM     22  C   UNL     1     -18.121   1.052 -15.728  0.00  0.00    -0.064 C 
ATOM     23  N   UNL     1     -17.571  -0.366 -15.566  0.00  0.00    +0.379 N 
ATOM     24  C   UNL     1     -16.907  -0.780 -16.811  0.00  0.00    -0.096 C 
ATOM     25  H   UNL     1     -18.437  -1.048 -15.402  0.00  0.00    -0.082 HD
ATOM     26  C   UNL     1     -16.666  -0.466 -14.346  0.00  0.00    -0.064 C 
ATOM     27  C   UNL     1     -17.420  -0.025 -13.061  0.00  0.00    +0.066 C 
ENDBRANCH  19  20
ENDBRANCH  18  19
ENDBRANCH  14  15
ENDBRANCH  12  13
TORSDOF 6
ENDMDL
MODEL 4
REMARK VINA RESULT:      -7.9      2.326     12.031
REMARK  Name = C:\Users\Docking\Desktop\test protocol\1iep_ligandH.pdb
REMARK  8 active torsions:
REMARK  status: ('A' for Active; 'I' for Inactive)
REMARK    1  A    between atoms: _5  and  _11
REMARK    2  A    between atoms: _19  and  _21
REMARK    3  A    between atoms: _22  and  _66
REMARK    4  A    between atoms: _27  and  _30
REMARK    5  A    between atoms: _32  and  _33
REMARK    6  A    between atoms: _38  and  _43
REMARK    7  A    between atoms: _43  and  _46
REMARK    8  A    between atoms: _53  and  _55
REMARK                            x       y       z     vdW  Elec       q    Type
REMARK                         _______ _______ _______ _____ _____    ______ ____
ROOT
ATOM     10  C   UNL     1     -15.910   7.444  -7.461  0.00  0.00    +0.038 A 
ATOM     11  C   UNL     1     -14.847   7.443  -6.523  0.00  0.00    +0.047 A 
ATOM     12  C   UNL     1     -14.416   8.671  -5.873  0.00  0.00    +0.035 A 
ATOM     32  C   UNL     1     -15.092   9.882  -6.200  0.00  0.00    +0.024 A 
ATOM     33  C   UNL     1     -16.175   9.901  -7.152  0.00  0.00    +0.007 A 
ATOM     34  C   UNL     1     -16.603   8.694  -7.799  0.00  0.00    -0.029 A 
ATOM     35  C   UNL     1     -17.764   8.775  -8.816  0.00  0.00    +0.045 C 
ENDROOT
BRANCH  10   9
ATOM      4  C   UNL     1     -15.398   4.034 -10.800  0.00  0.00    +0.077 A 
ATOM      5  C   UNL     1     -14.314   4.731 -11.430  0.00  0.00    +0.048 A 
ATOM      6  C   UNL     1     -13.924   5.968 -10.869  0.00  0.00    +0.116 A 
ATOM      7  N   UNL     1     -14.575   6.460  -9.759  0.00  0.00    -0.223 NA
ATOM      8  C   UNL     1     -15.618   5.763  -9.176  0.00  0.00    +0.220 A 
ATOM      9  N   UNL     1     -16.283   6.236  -8.055  0.00  0.00    -0.283 N 
ATOM     36  H   UNL     1     -17.052   5.696  -7.660  0.00  0.00    +0.155 HD
ATOM     37  N   UNL     1     -16.011   4.581  -9.695  0.00  0.00    -0.214 NA
BRANCH   4   3
ATOM      1  C   UNL     1     -16.670   0.336 -10.890  0.00  0.00    +0.020 A 
ATOM      2  C   UNL     1     -16.161   1.589 -10.381  0.00  0.00    +0.013 A 
ATOM      3  C   UNL     1     -15.924   2.715 -11.275  0.00  0.00    +0.019 A 
ATOM     38  C   UNL     1     -16.216   2.540 -12.689  0.00  0.00    +0.120 A 
ATOM     39  N   UNL     1     -16.704   1.322 -13.151  0.00  0.00    -0.263 NA
ATOM     40  C   UNL     1     -16.934   0.230 -12.301  0.00  0.00    +0.111 A 
ENDBRANCH   4   3
ENDBRANCH  10   9
BRANCH  12  13
ATOM     13  N   UNL     1     -13.337   8.733  -4.918  0.00  0.00    -0.281 N 
ATOM     14  C   UNL     1     -13.142   7.938  -3.800  0.00  0.00    +0.248 C 
ATOM     30  O   UNL     1     -13.985   7.189  -3.330  0.00  0.00    -0.270 OA
ATOM     31  H   UNL     1     -12.631   9.450  -5.087  0.00  0.00    +0.155 HD
BRANCH  14  15
ATOM     15  C   UNL     1     -11.826   7.996  -3.094  0.00  0.00    +0.037 A 
ATOM     16  C   UNL     1     -11.751   8.104  -1.635  0.00  0.00    +0.013 A 
ATOM     17  C   UNL     1     -10.469   8.174  -0.980  0.00  0.00    +0.005 A 
ATOM     18  C   UNL     1      -9.250   8.135  -1.785  0.00  0.00    -0.033 A 
ATOM     28  C   UNL     1      -9.354   8.023  -3.230  0.00  0.00    +0.005 A 
ATOM     29  C   UNL     1     -10.609   7.954  -3.876  0.00  0.00    +0.013 A 
BRANCH  18  19
ATOM     19  C   UNL     1      -7.840   8.226  -1.173  0.00  0.00    +0.119 C 
BRANCH  19  20
ATOM     20  N   UNL     1      -7.158   9.554  -1.222  0.00  0.00    -0.302 NA
ATOM     21  C   UNL     1      -6.171   9.649  -2.389  0.00  0.00    +0.066 C 
ATOM     22  C   UNL     1      -5.482  11.052  -2.439  0.00  0.00    -0.064 C 
ATOM     23  N   UNL     1      -4.775  11.318  -1.109  0.00  0.00    +0.379 N 
ATOM     24  C   UNL     1      -4.079  12.611  -1.174  0.00  0.00    -0.096 C 
ATOM     25  H   UNL     1      -4.004  10.524  -0.972  0.00  0.00    -0.082 HD
ATOM     26  C   UNL     1      -5.749  11.222   0.057  0.00  0.00    -0.064 C 
ATOM     27  C   UNL     1      -6.449   9.835   0.080  0.00  0.00    +0.066 C 
ENDBRANCH  19  20
ENDBRANCH  18  19
ENDBRANCH  14  15
ENDBRANCH  12  13
TORSDOF 6
ENDMDL
MODEL 5
REMARK VINA RESULT:      -7.8      3.157     12.065
REMARK  Name = C:\Users\Docking\Desktop\test protocol\1iep_ligandH.pdb
REMARK  8 active torsions:
REMARK  status: ('A' for Active; 'I' for Inactive)
REMARK    1  A    between atoms: _5  and  _11
REMARK    2  A    between atoms: _19  and  _21
REMARK    3  A    between atoms: _22  and  _66
REMARK    4  A    between atoms: _27  and  _30
REMARK    5  A    between atoms: _32  and  _33
REMARK    6  A    between atoms: _38  and  _43
REMARK    7  A    between atoms: _43  and  _46
REMARK    8  A    between atoms: _53  and  _55
REMARK                            x       y       z     vdW  Elec       q    Type
REMARK                         _______ _______ _______ _____ _____    ______ ____
ROOT
ATOM     10  C   UNL     1     -16.818   1.509 -10.577  0.00  0.00    +0.038 A 
ATOM     11  C   UNL     1     -16.151   2.456  -9.758  0.00  0.00    +0.047 A 
ATOM     12  C   UNL     1     -16.043   3.851 -10.155  0.00  0.00    +0.035 A 
ATOM     32  C   UNL     1     -16.628   4.248 -11.392  0.00  0.00    +0.024 A 
ATOM     33  C   UNL     1     -17.308   3.299 -12.238  0.00  0.00    +0.007 A 
ATOM     34  C   UNL     1     -17.416   1.921 -11.853  0.00  0.00    -0.029 A 
ATOM     35  C   UNL     1     -18.151   0.946 -12.802  0.00  0.00    +0.045 C 
ENDROOT
BRANCH  10   9
ATOM      4  C   UNL     1     -15.201  -3.009 -10.490  0.00  0.00    +0.077 A 
ATOM      5  C   UNL     1     -14.133  -2.707 -11.399  0.00  0.00    +0.048 A 
ATOM      6  C   UNL     1     -14.039  -1.379 -11.872  0.00  0.00    +0.116 A 
ATOM      7  N   UNL     1     -14.951  -0.431 -11.458  0.00  0.00    -0.223 NA
ATOM      8  C   UNL     1     -15.969  -0.756 -10.582  0.00  0.00    +0.220 A 
ATOM      9  N   UNL     1     -16.892   0.183 -10.147  0.00  0.00    -0.283 N 
ATOM     36  H   UNL     1     -17.633  -0.099  -9.505  0.00  0.00    +0.155 HD
ATOM     37  N   UNL     1     -16.081  -2.018 -10.117  0.00  0.00    -0.214 NA
BRANCH   4   3
ATOM      1  C   UNL     1     -15.591  -6.878 -10.067  0.00  0.00    +0.020 A 
ATOM      2  C   UNL     1     -15.362  -5.593 -10.685  0.00  0.00    +0.013 A 
ATOM      3  C   UNL     1     -15.430  -4.366  -9.900  0.00  0.00    +0.019 A 
ATOM     38  C   UNL     1     -15.734  -4.476  -8.481  0.00  0.00    +0.120 A 
ATOM     39  N   UNL     1     -15.951  -5.728  -7.914  0.00  0.00    -0.263 NA
ATOM     40  C   UNL     1     -15.890  -6.915  -8.659  0.00  0.00    +0.111 A 
ENDBRANCH   4   3
ENDBRANCH  10   9
BRANCH  12  13
ATOM     13  N   UNL     1     -15.371   4.855  -9.368  0.00  0.00    -0.281 N 
ATOM     14  C   UNL     1     -14.080   5.334  -9.521  0.00  0.00    +0.248 C 
ATOM     30  O   UNL     1     -13.230   4.815 -10.229  0.00  0.00    -0.270 OA
ATOM     31  H   UNL     1     -15.913   5.262  -8.606  0.00  0.00    +0.155 HD
BRANCH  14  15
ATOM     15  C   UNL     1     -13.670   6.558  -8.767  0.00  0.00    +0.037 A 
ATOM     16  C   UNL     1     -14.513   7.756  -8.747  0.00  0.00    +0.013 A 
ATOM     17  C   UNL     1     -14.086   8.929  -8.026  0.00  0.00    +0.005 A 
ATOM     18  C   UNL     1     -12.808   8.909  -7.318  0.00  0.00    -0.033 A 
ATOM     28  C   UNL     1     -11.994   7.705  -7.351  0.00  0.00    +0.005 A 
ATOM     29  C   UNL     1     -12.409   6.554  -8.057  0.00  0.00    +0.013 A 
BRANCH  18  19
ATOM     19  C   UNL     1     -12.263  10.122  -6.541  0.00  0.00    +0.119 C 
BRANCH  19  20
ATOM     20  N   UNL     1     -12.878  10.415  -5.213  0.00  0.00    -0.302 NA
ATOM     21  C   UNL     1     -13.495   9.166  -4.577  0.00  0.00    +0.066 C 
ATOM     22  C   UNL     1     -14.114   9.486  -3.177  0.00  0.00    -0.064 C 
ATOM     23  N   UNL     1     -15.161  10.591  -3.326  0.00  0.00    +0.379 N 
ATOM     24  C   UNL     1     -15.786  10.854  -2.022  0.00  0.00    -0.096 C 
ATOM     25  H   UNL     1     -15.955  10.213  -4.012  0.00  0.00    -0.082 HD
ATOM     26  C   UNL     1     -14.557  11.836  -3.960  0.00  0.00    -0.064 C 
ATOM     27  C   UNL     1     -13.919  11.501  -5.337  0.00  0.00    +0.066 C 
ENDBRANCH  19  20
ENDBRANCH  18  19
ENDBRANCH  14  15
ENDBRANCH  12  13
TORSDOF 6
ENDMDL
