MODEL 1
REMARK VINA RESULT:      -6.8      0.000      0.000
REMARK  Name = C:\Users\Docking\Desktop\test protocol\1iep_ligandH.pdb
REMARK  8 active torsions:
REMARK  status: ('A' for Active; 'I' for Inactive)
REMARK    1  A    between atoms: _5  and  _11
REMARK    2  A    between atoms: _19  and  _21
REMARK    3  A    between atoms: _22  and  _66
REMARK    4  A    between atoms: _27  and  _30
REMARK    5  A    between atoms: _32  and  _33
REMARK    6  A    between atoms: _38  and  _43
REMARK    7  A    between atoms: _43  and  _46
REMARK    8  A    between atoms: _53  and  _55
REMARK                            x       y       z     vdW  Elec       q    Type
REMARK                         _______ _______ _______ _____ _____    ______ ____
ROOT
ATOM     10  C   UNL     1      23.370 -62.820 -14.807  0.00  0.00    +0.038 A 
ATOM     11  C   UNL     1      24.344 -61.812 -15.023  0.00  0.00    +0.047 A 
ATOM     12  C   UNL     1      24.911 -61.063 -13.912  0.00  0.00    +0.035 A 
ATOM     32  C   UNL     1      24.465 -61.369 -12.593  0.00  0.00    +0.024 A 
ATOM     33  C   UNL     1      23.475 -62.390 -12.356  0.00  0.00    +0.007 A 
ATOM     34  C   UNL     1      22.910 -63.130 -13.448  0.00  0.00    -0.029 A 
ATOM     35  C   UNL     1      21.847 -64.209 -13.135  0.00  0.00    +0.045 C 
ENDROOT
BRANCH  10   9
ATOM      4  C   UNL     1      23.576 -66.333 -18.071  0.00  0.00    +0.077 A 
ATOM      5  C   UNL     1      24.820 -66.824 -17.551  0.00  0.00    +0.048 A 
ATOM      6  C   UNL     1      25.377 -66.139 -16.447  0.00  0.00    +0.116 A 
ATOM      7  N   UNL     1      24.730 -65.047 -15.911  0.00  0.00    -0.223 NA
ATOM      8  C   UNL     1      23.532 -64.599 -16.438  0.00  0.00    +0.220 A 
ATOM      9  N   UNL     1      22.860 -63.508 -15.910  0.00  0.00    -0.283 N 
ATOM     36  H   UNL     1      21.982 -63.204 -16.332  0.00  0.00    +0.155 HD
ATOM     37  N   UNL     1      22.980 -65.235 -17.492  0.00  0.00    -0.214 NA
BRANCH   4   3
ATOM      1  C   UNL     1      20.777 -67.466 -20.556  0.00  0.00    +0.020 A 
ATOM      2  C   UNL     1      21.419 -66.851 -19.417  0.00  0.00    +0.013 A 
ATOM      3  C   UNL     1      22.861 -66.951 -19.231  0.00  0.00    +0.019 A 
ATOM     38  C   UNL     1      23.630 -67.685 -20.224  0.00  0.00    +0.120 A 
ATOM     39  N   UNL     1      22.985 -68.268 -21.310  0.00  0.00    -0.263 NA
ATOM     40  C   UNL     1      21.597 -68.181 -21.499  0.00  0.00    +0.111 A 
ENDBRANCH   4   3
ENDBRANCH  10   9
BRANCH  12  13
ATOM     13  N   UNL     1      25.897 -60.023 -14.070  0.00  0.00    -0.281 N 
ATOM     14  C   UNL     1      25.734 -58.660 -13.887  0.00  0.00    +0.248 C 
ATOM     30  O   UNL     1      24.653 -58.103 -13.765  0.00  0.00    -0.270 OA
ATOM     31  H   UNL     1      26.829 -60.329 -14.352  0.00  0.00    +0.155 HD
BRANCH  14  15
ATOM     15  C   UNL     1      26.946 -57.786 -13.848  0.00  0.00    +0.037 A 
ATOM     16  C   UNL     1      28.253 -58.317 -13.450  0.00  0.00    +0.013 A 
ATOM     17  C   UNL     1      29.402 -57.448 -13.405  0.00  0.00    +0.005 A 
ATOM     18  C   UNL     1      29.250 -56.039 -13.760  0.00  0.00    -0.033 A 
ATOM     28  C   UNL     1      27.944 -55.541 -14.156  0.00  0.00    +0.005 A 
ATOM     29  C   UNL     1      26.815 -56.389 -14.201  0.00  0.00    +0.013 A 
BRANCH  18  19
ATOM     19  C   UNL     1      30.418 -55.036 -13.719  0.00  0.00    +0.119 C 
BRANCH  19  20
ATOM     20  N   UNL     1      31.802 -55.597 -13.694  0.00  0.00    -0.302 NA
ATOM     21  C   UNL     1      32.510 -55.321 -12.365  0.00  0.00    +0.066 C 
ATOM     22  C   UNL     1      33.948 -55.934 -12.347  0.00  0.00    -0.064 C 
ATOM     23  N   UNL     1      34.754 -55.370 -13.518  0.00  0.00    +0.379 N 
ATOM     24  C   UNL     1      36.124 -55.901 -13.471  0.00  0.00    -0.096 C 
ATOM     25  H   UNL     1      34.814 -54.265 -13.386  0.00  0.00    -0.082 HD
ATOM     26  C   UNL     1      34.056 -55.639 -14.844  0.00  0.00    -0.064 C 
ATOM     27  C   UNL     1      32.617 -55.050 -14.840  0.00  0.00    +0.066 C 
ENDBRANCH  19  20
ENDBRANCH  18  19
ENDBRANCH  14  15
ENDBRANCH  12  13
TORSDOF 6
ENDMDL
MODEL 2
REMARK VINA RESULT:      -6.8      2.806     13.659
REMARK  Name = C:\Users\Docking\Desktop\test protocol\1iep_ligandH.pdb
REMARK  8 active torsions:
REMARK  status: ('A' for Active; 'I' for Inactive)
REMARK    1  A    between atoms: _5  and  _11
REMARK    2  A    between atoms: _19  and  _21
REMARK    3  A    between atoms: _22  and  _66
REMARK    4  A    between atoms: _27  and  _30
REMARK    5  A    between atoms: _32  and  _33
REMARK    6  A    between atoms: _38  and  _43
REMARK    7  A    between atoms: _43  and  _46
REMARK    8  A    between atoms: _53  and  _55
REMARK                            x       y       z     vdW  Elec       q    Type
REMARK                         _______ _______ _______ _____ _____    ______ ____
ROOT
ATOM     10  C   UNL     1      24.349 -62.441 -14.156  0.00  0.00    +0.038 A 
ATOM     11  C   UNL     1      23.644 -62.707 -15.357  0.00  0.00    +0.047 A 
ATOM     12  C   UNL     1      22.531 -63.644 -15.384  0.00  0.00    +0.035 A 
ATOM     32  C   UNL     1      22.163 -64.291 -14.168  0.00  0.00    +0.024 A 
ATOM     33  C   UNL     1      22.870 -64.033 -12.939  0.00  0.00    +0.007 A 
ATOM     34  C   UNL     1      23.969 -63.111 -12.906  0.00  0.00    -0.029 A 
ATOM     35  C   UNL     1      24.695 -62.878 -11.561  0.00  0.00    +0.045 C 
ENDROOT
BRANCH  10   9
ATOM      4  C   UNL     1      26.189 -58.059 -13.481  0.00  0.00    +0.077 A 
ATOM      5  C   UNL     1      24.925 -57.530 -13.056  0.00  0.00    +0.048 A 
ATOM      6  C   UNL     1      23.825 -58.416 -13.032  0.00  0.00    +0.116 A 
ATOM      7  N   UNL     1      23.988 -59.732 -13.406  0.00  0.00    -0.223 NA
ATOM      8  C   UNL     1      25.220 -60.210 -13.813  0.00  0.00    +0.220 A 
ATOM      9  N   UNL     1      25.409 -61.532 -14.187  0.00  0.00    -0.283 N 
ATOM     36  H   UNL     1      26.332 -61.844 -14.488  0.00  0.00    +0.155 HD
ATOM     37  N   UNL     1      26.286 -59.383 -13.846  0.00  0.00    -0.214 NA
BRANCH   4   3
ATOM      1  C   UNL     1      28.693 -55.087 -13.926  0.00  0.00    +0.020 A 
ATOM      2  C   UNL     1      27.451 -55.824 -13.866  0.00  0.00    +0.013 A 
ATOM      3  C   UNL     1      27.445 -57.248 -13.556  0.00  0.00    +0.019 A 
ATOM     38  C   UNL     1      28.722 -57.902 -13.310  0.00  0.00    +0.120 A 
ATOM     39  N   UNL     1      29.901 -57.167 -13.377  0.00  0.00    -0.263 NA
ATOM     40  C   UNL     1      29.920 -55.796 -13.676  0.00  0.00    +0.111 A 
ENDBRANCH   4   3
ENDBRANCH  10   9
BRANCH  12  13
ATOM     13  N   UNL     1      21.783 -63.961 -16.575  0.00  0.00    -0.281 N 
ATOM     14  C   UNL     1      22.215 -64.655 -17.693  0.00  0.00    +0.248 C 
ATOM     30  O   UNL     1      23.383 -64.926 -17.929  0.00  0.00    -0.270 OA
ATOM     31  H   UNL     1      20.817 -63.633 -16.596  0.00  0.00    +0.155 HD
BRANCH  14  15
ATOM     15  C   UNL     1      21.206 -65.100 -18.702  0.00  0.00    +0.037 A 
ATOM     16  C   UNL     1      20.111 -64.220 -19.121  0.00  0.00    +0.013 A 
ATOM     17  C   UNL     1      19.141 -64.681 -20.082  0.00  0.00    +0.005 A 
ATOM     18  C   UNL     1      19.263 -66.028 -20.633  0.00  0.00    -0.033 A 
ATOM     28  C   UNL     1      20.361 -66.878 -20.204  0.00  0.00    +0.005 A 
ATOM     29  C   UNL     1      21.313 -66.431 -19.260  0.00  0.00    +0.013 A 
BRANCH  18  19
ATOM     19  C   UNL     1      18.261 -66.610 -21.648  0.00  0.00    +0.119 C 
BRANCH  19  20
ATOM     20  N   UNL     1      18.795 -67.563 -22.667  0.00  0.00    -0.302 NA
ATOM     21  C   UNL     1      19.112 -66.867 -23.994  0.00  0.00    +0.066 C 
ATOM     22  C   UNL     1      19.691 -67.874 -25.040  0.00  0.00    -0.064 C 
ATOM     23  N   UNL     1      18.694 -69.016 -25.251  0.00  0.00    +0.379 N 
ATOM     24  C   UNL     1      19.210 -69.933 -26.277  0.00  0.00    -0.096 C 
ATOM     25  H   UNL     1      17.749 -68.571 -25.639  0.00  0.00    -0.082 HD
ATOM     26  C   UNL     1      18.372 -69.711 -23.936  0.00  0.00    -0.064 C 
ATOM     27  C   UNL     1      17.825 -68.696 -22.894  0.00  0.00    +0.066 C 
ENDBRANCH  19  20
ENDBRANCH  18  19
ENDBRANCH  14  15
ENDBRANCH  12  13
TORSDOF 6
ENDMDL
MODEL 3
REMARK VINA RESULT:      -6.7     21.663     26.688
REMARK  Name = C:\Users\Docking\Desktop\test protocol\1iep_ligandH.pdb
REMARK  8 active torsions:
REMARK  status: ('A' for Active; 'I' for Inactive)
REMARK    1  A    between atoms: _5  and  _11
REMARK    2  A    between atoms: _19  and  _21
REMARK    3  A    between atoms: _22  and  _66
REMARK    4  A    between atoms: _27  and  _30
REMARK    5  A    between atoms: _32  and  _33
REMARK    6  A    between atoms: _38  and  _43
REMARK    7  A    between atoms: _43  and  _46
REMARK    8  A    between atoms: _53  and  _55
REMARK                            x       y       z     vdW  Elec       q    Type
REMARK                         _______ _______ _______ _____ _____    ______ ____
ROOT
ATOM     10  C   UNL     1      33.176 -46.223 -34.111  0.00  0.00    +0.038 A 
ATOM     11  C   UNL     1      32.224 -47.264 -33.965  0.00  0.00    +0.047 A 
ATOM     12  C   UNL     1      32.517 -48.619 -34.405  0.00  0.00    +0.035 A 
ATOM     32  C   UNL     1      33.792 -48.880 -34.987  0.00  0.00    +0.024 A 
ATOM     33  C   UNL     1      34.772 -47.833 -35.143  0.00  0.00    +0.007 A 
ATOM     34  C   UNL     1      34.487 -46.494 -34.714  0.00  0.00    -0.029 A 
ATOM     35  C   UNL     1      35.572 -45.410 -34.912  0.00  0.00    +0.045 C 
ENDROOT
BRANCH  10   9
ATOM      4  C   UNL     1      31.093 -41.944 -34.733  0.00  0.00    +0.077 A 
ATOM      5  C   UNL     1      30.657 -42.283 -36.057  0.00  0.00    +0.048 A 
ATOM      6  C   UNL     1      30.995 -43.566 -36.543  0.00  0.00    +0.116 A 
ATOM      7  N   UNL     1      31.716 -44.437 -35.755  0.00  0.00    -0.223 NA
ATOM      8  C   UNL     1      32.123 -44.078 -34.483  0.00  0.00    +0.220 A 
ATOM      9  N   UNL     1      32.842 -44.940 -33.671  0.00  0.00    -0.283 N 
ATOM     36  H   UNL     1      33.130 -44.635 -32.741  0.00  0.00    +0.155 HD
ATOM     37  N   UNL     1      31.813 -42.858 -33.997  0.00  0.00    -0.214 NA
BRANCH   4   3
ATOM      1  C   UNL     1      31.229 -38.164 -33.738  0.00  0.00    +0.020 A 
ATOM      2  C   UNL     1      31.542 -39.409 -34.400  0.00  0.00    +0.013 A 
ATOM      3  C   UNL     1      30.810 -40.628 -34.078  0.00  0.00    +0.019 A 
ATOM     38  C   UNL     1      29.759 -40.551 -33.074  0.00  0.00    +0.120 A 
ATOM     39  N   UNL     1      29.481 -39.338 -32.453  0.00  0.00    -0.263 NA
ATOM     40  C   UNL     1      30.180 -38.159 -32.753  0.00  0.00    +0.111 A 
ENDBRANCH   4   3
ENDBRANCH  10   9
BRANCH  12  13
ATOM     13  N   UNL     1      31.587 -49.715 -34.290  0.00  0.00    -0.281 N 
ATOM     14  C   UNL     1      30.936 -50.389 -35.310  0.00  0.00    +0.248 C 
ATOM     30  O   UNL     1      30.891 -50.010 -36.471  0.00  0.00    -0.270 OA
ATOM     31  H   UNL     1      31.384 -50.032 -33.342  0.00  0.00    +0.155 HD
BRANCH  14  15
ATOM     15  C   UNL     1      30.218 -51.661 -34.992  0.00  0.00    +0.037 A 
ATOM     16  C   UNL     1      29.127 -51.694 -34.015  0.00  0.00    +0.013 A 
ATOM     17  C   UNL     1      28.463 -52.937 -33.714  0.00  0.00    +0.005 A 
ATOM     18  C   UNL     1      28.888 -54.159 -34.392  0.00  0.00    -0.033 A 
ATOM     28  C   UNL     1      29.971 -54.097 -35.361  0.00  0.00    +0.005 A 
ATOM     29  C   UNL     1      30.624 -52.880 -35.658  0.00  0.00    +0.013 A 
BRANCH  18  19
ATOM     19  C   UNL     1      28.251 -55.534 -34.117  0.00  0.00    +0.119 C 
BRANCH  19  20
ATOM     20  N   UNL     1      26.761 -55.620 -34.173  0.00  0.00    -0.302 NA
ATOM     21  C   UNL     1      26.176 -56.274 -32.917  0.00  0.00    +0.066 C 
ATOM     22  C   UNL     1      24.616 -56.335 -32.982  0.00  0.00    -0.064 C 
ATOM     23  N   UNL     1      24.190 -57.098 -34.238  0.00  0.00    +0.379 N 
ATOM     24  C   UNL     1      22.724 -57.208 -34.272  0.00  0.00    -0.096 C 
ATOM     25  H   UNL     1      24.605 -58.130 -34.164  0.00  0.00    -0.082 HD
ATOM     26  C   UNL     1      24.769 -56.456 -35.491  0.00  0.00    -0.064 C 
ATOM     27  C   UNL     1      26.319 -56.373 -35.403  0.00  0.00    +0.066 C 
ENDBRANCH  19  20
ENDBRANCH  18  19
ENDBRANCH  14  15
ENDBRANCH  12  13
TORSDOF 6
ENDMDL
MODEL 4
REMARK VINA RESULT:      -6.7     21.654     23.751
REMARK  Name = C:\Users\Docking\Desktop\test protocol\1iep_ligandH.pdb
REMARK  8 active torsions:
REMARK  status: ('A' for Active; 'I' for Inactive)
REMARK    1  A    between atoms: _5  and  _11
REMARK    2  A    between atoms: _19  and  _21
REMARK    3  A    between atoms: _22  and  _66
REMARK    4  A    between atoms: _27  and  _30
REMARK    5  A    between atoms: _32  and  _33
REMARK    6  A    between atoms: _38  and  _43
REMARK    7  A    between atoms: _43  and  _46
REMARK    8  A    between atoms: _53  and  _55
REMARK                            x       y       z     vdW  Elec       q    Type
REMARK                         _______ _______ _______ _____ _____    ______ ____
ROOT
ATOM     10  C   UNL     1      19.728 -52.364 -34.775  0.00  0.00    +0.038 A 
ATOM     11  C   UNL     1      20.968 -52.997 -34.508  0.00  0.00    +0.047 A 
ATOM     12  C   UNL     1      21.048 -54.431 -34.281  0.00  0.00    +0.035 A 
ATOM     32  C   UNL     1      19.843 -55.191 -34.336  0.00  0.00    +0.024 A 
ATOM     33  C   UNL     1      18.573 -54.564 -34.605  0.00  0.00    +0.007 A 
ATOM     34  C   UNL     1      18.489 -53.149 -34.827  0.00  0.00    -0.029 A 
ATOM     35  C   UNL     1      17.100 -52.528 -35.105  0.00  0.00    +0.045 C 
ENDROOT
BRANCH  10   9
ATOM      4  C   UNL     1      20.339 -48.498 -37.553  0.00  0.00    +0.077 A 
ATOM      5  C   UNL     1      20.755 -49.294 -38.672  0.00  0.00    +0.048 A 
ATOM      6  C   UNL     1      20.805 -50.694 -38.489  0.00  0.00    +0.116 A 
ATOM      7  N   UNL     1      20.462 -51.246 -37.273  0.00  0.00    -0.223 NA
ATOM      8  C   UNL     1      20.067 -50.449 -36.214  0.00  0.00    +0.220 A 
ATOM      9  N   UNL     1      19.710 -50.983 -34.986  0.00  0.00    -0.283 N 
ATOM     36  H   UNL     1      19.431 -50.361 -34.227  0.00  0.00    +0.155 HD
ATOM     37  N   UNL     1      20.012 -49.109 -36.364  0.00  0.00    -0.214 NA
BRANCH   4   3
ATOM      1  C   UNL     1      21.239 -44.692 -37.644  0.00  0.00    +0.020 A 
ATOM      2  C   UNL     1      21.397 -46.128 -37.606  0.00  0.00    +0.013 A 
ATOM      3  C   UNL     1      20.233 -47.005 -37.592  0.00  0.00    +0.019 A 
ATOM     38  C   UNL     1      18.913 -46.393 -37.618  0.00  0.00    +0.120 A 
ATOM     39  N   UNL     1      18.792 -45.007 -37.652  0.00  0.00    -0.263 NA
ATOM     40  C   UNL     1      19.904 -44.153 -37.665  0.00  0.00    +0.111 A 
ENDBRANCH   4   3
ENDBRANCH  10   9
BRANCH  12  13
ATOM     13  N   UNL     1      22.278 -55.128 -33.997  0.00  0.00    -0.281 N 
ATOM     14  C   UNL     1      23.011 -55.941 -34.846  0.00  0.00    +0.248 C 
ATOM     30  O   UNL     1      22.606 -56.365 -35.918  0.00  0.00    -0.270 OA
ATOM     31  H   UNL     1      22.653 -55.008 -33.056  0.00  0.00    +0.155 HD
BRANCH  14  15
ATOM     15  C   UNL     1      24.389 -56.354 -34.439  0.00  0.00    +0.037 A 
ATOM     16  C   UNL     1      24.846 -56.213 -33.054  0.00  0.00    +0.013 A 
ATOM     17  C   UNL     1      26.186 -56.603 -32.692  0.00  0.00    +0.005 A 
ATOM     18  C   UNL     1      27.078 -57.139 -33.717  0.00  0.00    -0.033 A 
ATOM     28  C   UNL     1      26.596 -57.273 -35.082  0.00  0.00    +0.005 A 
ATOM     29  C   UNL     1      25.284 -56.891 -35.441  0.00  0.00    +0.013 A 
BRANCH  18  19
ATOM     19  C   UNL     1      28.530 -57.561 -33.425  0.00  0.00    +0.119 C 
BRANCH  19  20
ATOM     20  N   UNL     1      29.616 -56.667 -33.928  0.00  0.00    -0.302 NA
ATOM     21  C   UNL     1      29.062 -55.480 -34.721  0.00  0.00    +0.066 C 
ATOM     22  C   UNL     1      30.210 -54.544 -35.221  0.00  0.00    -0.064 C 
ATOM     23  N   UNL     1      31.190 -55.354 -36.072  0.00  0.00    +0.379 N 
ATOM     24  C   UNL     1      32.239 -54.464 -36.591  0.00  0.00    -0.096 C 
ATOM     25  H   UNL     1      30.626 -55.758 -36.945  0.00  0.00    -0.082 HD
ATOM     26  C   UNL     1      31.744 -56.538 -35.292  0.00  0.00    -0.064 C 
ATOM     27  C   UNL     1      30.593 -57.446 -34.775  0.00  0.00    +0.066 C 
ENDBRANCH  19  20
ENDBRANCH  18  19
ENDBRANCH  14  15
ENDBRANCH  12  13
TORSDOF 6
ENDMDL
MODEL 5
REMARK VINA RESULT:      -6.6     25.956     27.770
REMARK  Name = C:\Users\Docking\Desktop\test protocol\1iep_ligandH.pdb
REMARK  8 active torsions:
REMARK  status: ('A' for Active; 'I' for Inactive)
REMARK    1  A    between atoms: _5  and  _11
REMARK    2  A    between atoms: _19  and  _21
REMARK    3  A    between atoms: _22  and  _66
REMARK    4  A    between atoms: _27  and  _30
REMARK    5  A    between atoms: _32  and  _33
REMARK    6  A    between atoms: _38  and  _43
REMARK    7  A    between atoms: _43  and  _46
REMARK    8  A    between atoms: _53  and  _55
REMARK                            x       y       z     vdW  Elec       q    Type
REMARK                         _______ _______ _______ _____ _____    ______ ____
ROOT
ATOM     10  C   UNL     1      24.076 -40.346 -35.878  0.00  0.00    +0.038 A 
ATOM     11  C   UNL     1      24.990 -40.467 -34.800  0.00  0.00    +0.047 A 
ATOM     12  C   UNL     1      26.062 -39.502 -34.611  0.00  0.00    +0.035 A 
ATOM     32  C   UNL     1      26.172 -38.424 -35.538  0.00  0.00    +0.024 A 
ATOM     33  C   UNL     1      25.252 -38.287 -36.639  0.00  0.00    +0.007 A 
ATOM     34  C   UNL     1      24.194 -39.237 -36.832  0.00  0.00    -0.029 A 
ATOM     35  C   UNL     1      23.240 -39.044 -38.034  0.00  0.00    +0.045 C 
ENDROOT
BRANCH  10   9
ATOM      4  C   UNL     1      22.248 -44.328 -37.837  0.00  0.00    +0.077 A 
ATOM      5  C   UNL     1      23.392 -44.507 -38.685  0.00  0.00    +0.048 A 
ATOM      6  C   UNL     1      24.425 -43.547 -38.592  0.00  0.00    +0.116 A 
ATOM      7  N   UNL     1      24.313 -42.493 -37.712  0.00  0.00    -0.223 NA
ATOM      8  C   UNL     1      23.196 -42.349 -36.909  0.00  0.00    +0.220 A 
ATOM      9  N   UNL     1      23.066 -41.301 -36.011  0.00  0.00    -0.283 N 
ATOM     36  H   UNL     1      22.223 -41.226 -35.442  0.00  0.00    +0.155 HD
ATOM     37  N   UNL     1      22.195 -43.251 -36.981  0.00  0.00    -0.214 NA
BRANCH   4   3
ATOM      1  C   UNL     1      19.984 -47.469 -37.277  0.00  0.00    +0.020 A 
ATOM      2  C   UNL     1      21.146 -46.609 -37.272  0.00  0.00    +0.013 A 
ATOM      3  C   UNL     1      21.076 -45.260 -37.817  0.00  0.00    +0.019 A 
ATOM     38  C   UNL     1      19.806 -44.806 -38.364  0.00  0.00    +0.120 A 
ATOM     39  N   UNL     1      18.705 -45.656 -38.357  0.00  0.00    -0.263 NA
ATOM     40  C   UNL     1      18.760 -46.958 -37.836  0.00  0.00    +0.111 A 
ENDBRANCH   4   3
ENDBRANCH  10   9
BRANCH  12  13
ATOM     13  N   UNL     1      27.025 -39.577 -33.541  0.00  0.00    -0.281 N 
ATOM     14  C   UNL     1      28.196 -40.317 -33.499  0.00  0.00    +0.248 C 
ATOM     30  O   UNL     1      28.486 -41.197 -34.296  0.00  0.00    -0.270 OA
ATOM     31  H   UNL     1      26.819 -39.018 -32.713  0.00  0.00    +0.155 HD
BRANCH  14  15
ATOM     15  C   UNL     1      29.180 -40.050 -32.406  0.00  0.00    +0.037 A 
ATOM     16  C   UNL     1      28.768 -40.038 -31.000  0.00  0.00    +0.013 A 
ATOM     17  C   UNL     1      29.734 -39.762 -29.966  0.00  0.00    +0.005 A 
ATOM     18  C   UNL     1      31.122 -39.496 -30.335  0.00  0.00    -0.033 A 
ATOM     28  C   UNL     1      31.504 -39.520 -31.738  0.00  0.00    +0.005 A 
ATOM     29  C   UNL     1      30.560 -39.790 -32.754  0.00  0.00    +0.013 A 
BRANCH  18  19
ATOM     19  C   UNL     1      32.216 -39.171 -29.300  0.00  0.00    +0.119 C 
BRANCH  19  20
ATOM     20  N   UNL     1      33.627 -39.126 -29.787  0.00  0.00    -0.302 NA
ATOM     21  C   UNL     1      34.339 -40.470 -29.609  0.00  0.00    +0.066 C 
ATOM     22  C   UNL     1      35.807 -40.412 -30.144  0.00  0.00    -0.064 C 
ATOM     23  N   UNL     1      36.566 -39.296 -29.423  0.00  0.00    +0.379 N 
ATOM     24  C   UNL     1      37.962 -39.276 -29.883  0.00  0.00    -0.096 C 
ATOM     25  H   UNL     1      36.571 -39.539 -28.335  0.00  0.00    -0.082 HD
ATOM     26  C   UNL     1      35.863 -37.957 -29.594  0.00  0.00    -0.064 C 
ATOM     27  C   UNL     1      34.396 -38.034 -29.086  0.00  0.00    +0.066 C 
ENDBRANCH  19  20
ENDBRANCH  18  19
ENDBRANCH  14  15
ENDBRANCH  12  13
TORSDOF 6
ENDMDL
