MODEL 1
REMARK VINA RESULT:      -7.7      0.000      0.000
REMARK  Name = C:\Users\Docking\Desktop\test protocol\1iep_ligandH.pdb
REMARK  8 active torsions:
REMARK  status: ('A' for Active; 'I' for Inactive)
REMARK    1  A    between atoms: _5  and  _11
REMARK    2  A    between atoms: _19  and  _21
REMARK    3  A    between atoms: _22  and  _66
REMARK    4  A    between atoms: _27  and  _30
REMARK    5  A    between atoms: _32  and  _33
REMARK    6  A    between atoms: _38  and  _43
REMARK    7  A    between atoms: _43  and  _46
REMARK    8  A    between atoms: _53  and  _55
REMARK                            x       y       z     vdW  Elec       q    Type
REMARK                         _______ _______ _______ _____ _____    ______ ____
ROOT
ATOM     10  C   UNL     1     -25.341 -36.027  23.330  0.00  0.00    +0.038 A 
ATOM     11  C   UNL     1     -25.319 -36.489  21.990  0.00  0.00    +0.047 A 
ATOM     12  C   UNL     1     -25.986 -35.751  20.928  0.00  0.00    +0.035 A 
ATOM     32  C   UNL     1     -26.664 -34.544  21.268  0.00  0.00    +0.024 A 
ATOM     33  C   UNL     1     -26.697 -34.060  22.626  0.00  0.00    +0.007 A 
ATOM     34  C   UNL     1     -26.044 -34.786  23.677  0.00  0.00    -0.029 A 
ATOM     35  C   UNL     1     -26.118 -34.224  25.116  0.00  0.00    +0.045 C 
ENDROOT
BRANCH  10   9
ATOM      4  C   UNL     1     -25.010 -39.834  26.235  0.00  0.00    +0.077 A 
ATOM      5  C   UNL     1     -26.265 -40.362  25.784  0.00  0.00    +0.048 A 
ATOM      6  C   UNL     1     -26.968 -39.620  24.808  0.00  0.00    +0.116 A 
ATOM      7  N   UNL     1     -26.445 -38.439  24.327  0.00  0.00    -0.223 NA
ATOM      8  C   UNL     1     -25.233 -37.957  24.785  0.00  0.00    +0.220 A 
ATOM      9  N   UNL     1     -24.684 -36.776  24.310  0.00  0.00    -0.283 N 
ATOM     36  H   UNL     1     -23.792 -36.450  24.679  0.00  0.00    +0.155 HD
ATOM     37  N   UNL     1     -24.543 -38.646  25.718  0.00  0.00    -0.214 NA
BRANCH   4   3
ATOM      1  C   UNL     1     -22.711 -40.481  29.333  0.00  0.00    +0.020 A 
ATOM      2  C   UNL     1     -23.534 -39.786  28.370  0.00  0.00    +0.013 A 
ATOM      3  C   UNL     1     -24.148 -40.504  27.260  0.00  0.00    +0.019 A 
ATOM     38  C   UNL     1     -23.908 -41.935  27.153  0.00  0.00    +0.120 A 
ATOM     39  N   UNL     1     -23.109 -42.577  28.094  0.00  0.00    -0.263 NA
ATOM     40  C   UNL     1     -22.512 -41.896  29.165  0.00  0.00    +0.111 A 
ENDBRANCH   4   3
ENDBRANCH  10   9
BRANCH  12  13
ATOM     13  N   UNL     1     -26.004 -36.175  19.550  0.00  0.00    -0.281 N 
ATOM     14  C   UNL     1     -26.657 -37.268  19.004  0.00  0.00    +0.248 C 
ATOM     30  O   UNL     1     -27.153 -38.174  19.657  0.00  0.00    -0.270 OA
ATOM     31  H   UNL     1     -25.471 -35.599  18.898  0.00  0.00    +0.155 HD
BRANCH  14  15
ATOM     15  C   UNL     1     -26.761 -37.378  17.517  0.00  0.00    +0.037 A 
ATOM     16  C   UNL     1     -28.050 -37.244  16.834  0.00  0.00    +0.013 A 
ATOM     17  C   UNL     1     -28.125 -37.371  15.400  0.00  0.00    +0.005 A 
ATOM     18  C   UNL     1     -26.906 -37.633  14.639  0.00  0.00    -0.033 A 
ATOM     28  C   UNL     1     -25.639 -37.756  15.342  0.00  0.00    +0.005 A 
ATOM     29  C   UNL     1     -25.562 -37.633  16.748  0.00  0.00    +0.013 A 
BRANCH  18  19
ATOM     19  C   UNL     1     -26.895 -37.804  13.109  0.00  0.00    +0.119 C 
BRANCH  19  20
ATOM     20  N   UNL     1     -27.838 -38.806  12.526  0.00  0.00    -0.302 NA
ATOM     21  C   UNL     1     -27.257 -40.222  12.549  0.00  0.00    +0.066 C 
ATOM     22  C   UNL     1     -28.265 -41.260  11.957  0.00  0.00    -0.064 C 
ATOM     23  N   UNL     1     -28.636 -40.850  10.531  0.00  0.00    +0.379 N 
ATOM     24  C   UNL     1     -29.539 -41.855   9.951  0.00  0.00    -0.096 C 
ATOM     25  H   UNL     1     -27.700 -40.846   9.926  0.00  0.00    -0.082 HD
ATOM     26  C   UNL     1     -29.212 -39.441  10.499  0.00  0.00    -0.064 C 
ATOM     27  C   UNL     1     -28.215 -38.422  11.117  0.00  0.00    +0.066 C 
ENDBRANCH  19  20
ENDBRANCH  18  19
ENDBRANCH  14  15
ENDBRANCH  12  13
TORSDOF 6
ENDMDL
MODEL 2
REMARK VINA RESULT:      -7.5      1.754      2.729
REMARK  Name = C:\Users\Docking\Desktop\test protocol\1iep_ligandH.pdb
REMARK  8 active torsions:
REMARK  status: ('A' for Active; 'I' for Inactive)
REMARK    1  A    between atoms: _5  and  _11
REMARK    2  A    between atoms: _19  and  _21
REMARK    3  A    between atoms: _22  and  _66
REMARK    4  A    between atoms: _27  and  _30
REMARK    5  A    between atoms: _32  and  _33
REMARK    6  A    between atoms: _38  and  _43
REMARK    7  A    between atoms: _43  and  _46
REMARK    8  A    between atoms: _53  and  _55
REMARK                            x       y       z     vdW  Elec       q    Type
REMARK                         _______ _______ _______ _____ _____    ______ ____
ROOT
ATOM     10  C   UNL     1     -25.236 -36.065  23.016  0.00  0.00    +0.038 A 
ATOM     11  C   UNL     1     -25.289 -36.542  21.682  0.00  0.00    +0.047 A 
ATOM     12  C   UNL     1     -25.932 -35.769  20.631  0.00  0.00    +0.035 A 
ATOM     32  C   UNL     1     -26.509 -34.511  20.974  0.00  0.00    +0.024 A 
ATOM     33  C   UNL     1     -26.465 -34.012  22.326  0.00  0.00    +0.007 A 
ATOM     34  C   UNL     1     -25.835 -34.771  23.367  0.00  0.00    -0.029 A 
ATOM     35  C   UNL     1     -25.823 -34.189  24.800  0.00  0.00    +0.045 C 
ENDROOT
BRANCH  10   9
ATOM      4  C   UNL     1     -25.121 -39.818  26.005  0.00  0.00    +0.077 A 
ATOM      5  C   UNL     1     -26.438 -40.238  25.623  0.00  0.00    +0.048 A 
ATOM      6  C   UNL     1     -27.115 -39.457  24.659  0.00  0.00    +0.116 A 
ATOM      7  N   UNL     1     -26.509 -38.341  24.124  0.00  0.00    -0.223 NA
ATOM      8  C   UNL     1     -25.238 -37.963  24.516  0.00  0.00    +0.220 A 
ATOM      9  N   UNL     1     -24.606 -36.849  23.985  0.00  0.00    -0.283 N 
ATOM     36  H   UNL     1     -23.671 -36.599  24.306  0.00  0.00    +0.155 HD
ATOM     37  N   UNL     1     -24.572 -38.691  25.436  0.00  0.00    -0.214 NA
BRANCH   4   3
ATOM      1  C   UNL     1     -23.251 -42.635  27.973  0.00  0.00    +0.020 A 
ATOM      2  C   UNL     1     -24.076 -41.985  26.980  0.00  0.00    +0.013 A 
ATOM      3  C   UNL     1     -24.278 -40.542  27.009  0.00  0.00    +0.019 A 
ATOM     38  C   UNL     1     -23.626 -39.779  28.063  0.00  0.00    +0.120 A 
ATOM     39  N   UNL     1     -22.840 -40.432  29.006  0.00  0.00    -0.263 NA
ATOM     40  C   UNL     1     -22.639 -41.821  28.990  0.00  0.00    +0.111 A 
ENDBRANCH   4   3
ENDBRANCH  10   9
BRANCH  12  13
ATOM     13  N   UNL     1     -26.023 -36.206  19.260  0.00  0.00    -0.281 N 
ATOM     14  C   UNL     1     -26.764 -37.259  18.749  0.00  0.00    +0.248 C 
ATOM     30  O   UNL     1     -27.297 -38.123  19.429  0.00  0.00    -0.270 OA
ATOM     31  H   UNL     1     -25.475 -35.674  18.583  0.00  0.00    +0.155 HD
BRANCH  14  15
ATOM     15  C   UNL     1     -26.924 -37.378  17.268  0.00  0.00    +0.037 A 
ATOM     16  C   UNL     1     -28.222 -37.162  16.624  0.00  0.00    +0.013 A 
ATOM     17  C   UNL     1     -28.352 -37.300  15.195  0.00  0.00    +0.005 A 
ATOM     18  C   UNL     1     -27.179 -37.655  14.400  0.00  0.00    -0.033 A 
ATOM     28  C   UNL     1     -25.902 -37.858  15.064  0.00  0.00    +0.005 A 
ATOM     29  C   UNL     1     -25.771 -37.725  16.464  0.00  0.00    +0.013 A 
BRANCH  18  19
ATOM     19  C   UNL     1     -27.230 -37.844  12.872  0.00  0.00    +0.119 C 
BRANCH  19  20
ATOM     20  N   UNL     1     -27.096 -36.620  12.027  0.00  0.00    -0.302 NA
ATOM     21  C   UNL     1     -26.580 -35.422  12.828  0.00  0.00    +0.066 C 
ATOM     22  C   UNL     1     -26.424 -34.156  11.924  0.00  0.00    -0.064 C 
ATOM     23  N   UNL     1     -27.769 -33.832  11.270  0.00  0.00    +0.379 N 
ATOM     24  C   UNL     1     -27.640 -32.609  10.464  0.00  0.00    -0.096 C 
ATOM     25  H   UNL     1     -28.500 -33.625  12.085  0.00  0.00    -0.082 HD
ATOM     26  C   UNL     1     -28.290 -35.019  10.473  0.00  0.00    -0.064 C 
ATOM     27  C   UNL     1     -28.413 -36.279  11.374  0.00  0.00    +0.066 C 
ENDBRANCH  19  20
ENDBRANCH  18  19
ENDBRANCH  14  15
ENDBRANCH  12  13
TORSDOF 6
ENDMDL
MODEL 3
REMARK VINA RESULT:      -7.5     18.888     20.232
REMARK  Name = C:\Users\Docking\Desktop\test protocol\1iep_ligandH.pdb
REMARK  8 active torsions:
REMARK  status: ('A' for Active; 'I' for Inactive)
REMARK    1  A    between atoms: _5  and  _11
REMARK    2  A    between atoms: _19  and  _21
REMARK    3  A    between atoms: _22  and  _66
REMARK    4  A    between atoms: _27  and  _30
REMARK    5  A    between atoms: _32  and  _33
REMARK    6  A    between atoms: _38  and  _43
REMARK    7  A    between atoms: _43  and  _46
REMARK    8  A    between atoms: _53  and  _55
REMARK                            x       y       z     vdW  Elec       q    Type
REMARK                         _______ _______ _______ _____ _____    ______ ____
ROOT
ATOM     10  C   UNL     1      -8.570 -45.378  16.027  0.00  0.00    +0.038 A 
ATOM     11  C   UNL     1      -8.693 -44.951  14.680  0.00  0.00    +0.047 A 
ATOM     12  C   UNL     1      -7.601 -44.267  14.005  0.00  0.00    +0.035 A 
ATOM     32  C   UNL     1      -6.396 -44.036  14.732  0.00  0.00    +0.024 A 
ATOM     33  C   UNL     1      -6.255 -44.462  16.102  0.00  0.00    +0.007 A 
ATOM     34  C   UNL     1      -7.330 -45.135  16.774  0.00  0.00    -0.029 A 
ATOM     35  C   UNL     1      -7.126 -45.564  18.246  0.00  0.00    +0.045 C 
ENDROOT
BRANCH  10   9
ATOM      4  C   UNL     1     -10.973 -49.354  17.234  0.00  0.00    +0.077 A 
ATOM      5  C   UNL     1     -10.009 -50.202  16.595  0.00  0.00    +0.048 A 
ATOM      6  C   UNL     1      -8.913 -49.575  15.960  0.00  0.00    +0.116 A 
ATOM      7  N   UNL     1      -8.800 -48.201  15.971  0.00  0.00    -0.223 NA
ATOM      8  C   UNL     1      -9.749 -47.413  16.596  0.00  0.00    +0.220 A 
ATOM      9  N   UNL     1      -9.651 -46.030  16.626  0.00  0.00    -0.283 N 
ATOM     36  H   UNL     1     -10.375 -45.483  17.091  0.00  0.00    +0.155 HD
ATOM     37  N   UNL     1     -10.805 -47.987  17.207  0.00  0.00    -0.214 NA
BRANCH   4   3
ATOM      1  C   UNL     1     -13.823 -49.849  19.868  0.00  0.00    +0.020 A 
ATOM      2  C   UNL     1     -12.647 -49.318  19.218  0.00  0.00    +0.013 A 
ATOM      3  C   UNL     1     -12.185 -49.866  17.950  0.00  0.00    +0.019 A 
ATOM     38  C   UNL     1     -12.941 -50.961  17.360  0.00  0.00    +0.120 A 
ATOM     39  N   UNL     1     -14.069 -51.453  18.009  0.00  0.00    -0.263 NA
ATOM     40  C   UNL     1     -14.523 -50.934  19.231  0.00  0.00    +0.111 A 
ENDBRANCH   4   3
ENDBRANCH  10   9
BRANCH  12  13
ATOM     13  N   UNL     1      -7.670 -43.804  12.642  0.00  0.00    -0.281 N 
ATOM     14  C   UNL     1      -6.896 -44.206  11.565  0.00  0.00    +0.248 C 
ATOM     30  O   UNL     1      -5.877 -44.874  11.658  0.00  0.00    -0.270 OA
ATOM     31  H   UNL     1      -8.375 -43.093  12.446  0.00  0.00    +0.155 HD
BRANCH  14  15
ATOM     15  C   UNL     1      -7.305 -43.793  10.188  0.00  0.00    +0.037 A 
ATOM     16  C   UNL     1      -6.516 -44.176   9.014  0.00  0.00    +0.013 A 
ATOM     17  C   UNL     1      -6.923 -43.751   7.699  0.00  0.00    +0.005 A 
ATOM     18  C   UNL     1      -8.128 -42.938   7.550  0.00  0.00    -0.033 A 
ATOM     28  C   UNL     1      -8.894 -42.576   8.731  0.00  0.00    +0.005 A 
ATOM     29  C   UNL     1      -8.498 -42.991  10.022  0.00  0.00    +0.013 A 
BRANCH  18  19
ATOM     19  C   UNL     1      -8.625 -42.421   6.187  0.00  0.00    +0.119 C 
BRANCH  19  20
ATOM     20  N   UNL     1      -9.935 -42.943   5.695  0.00  0.00    -0.302 NA
ATOM     21  C   UNL     1      -9.772 -44.231   4.883  0.00  0.00    +0.066 C 
ATOM     22  C   UNL     1     -11.155 -44.775   4.396  0.00  0.00    -0.064 C 
ATOM     23  N   UNL     1     -11.860 -43.699   3.568  0.00  0.00    +0.379 N 
ATOM     24  C   UNL     1     -13.134 -44.227   3.059  0.00  0.00    -0.096 C 
ATOM     25  H   UNL     1     -11.213 -43.471   2.689  0.00  0.00    -0.082 HD
ATOM     26  C   UNL     1     -12.023 -42.413   4.367  0.00  0.00    -0.064 C 
ATOM     27  C   UNL     1     -10.646 -41.897   4.871  0.00  0.00    +0.066 C 
ENDBRANCH  19  20
ENDBRANCH  18  19
ENDBRANCH  14  15
ENDBRANCH  12  13
TORSDOF 6
ENDMDL
MODEL 4
REMARK VINA RESULT:      -7.4      3.957     12.317
REMARK  Name = C:\Users\Docking\Desktop\test protocol\1iep_ligandH.pdb
REMARK  8 active torsions:
REMARK  status: ('A' for Active; 'I' for Inactive)
REMARK    1  A    between atoms: _5  and  _11
REMARK    2  A    between atoms: _19  and  _21
REMARK    3  A    between atoms: _22  and  _66
REMARK    4  A    between atoms: _27  and  _30
REMARK    5  A    between atoms: _32  and  _33
REMARK    6  A    between atoms: _38  and  _43
REMARK    7  A    between atoms: _43  and  _46
REMARK    8  A    between atoms: _53  and  _55
REMARK                            x       y       z     vdW  Elec       q    Type
REMARK                         _______ _______ _______ _____ _____    ______ ____
ROOT
ATOM     10  C   UNL     1     -28.438 -41.499  12.420  0.00  0.00    +0.038 A 
ATOM     11  C   UNL     1     -28.073 -40.732  13.556  0.00  0.00    +0.047 A 
ATOM     12  C   UNL     1     -27.906 -39.290  13.468  0.00  0.00    +0.035 A 
ATOM     32  C   UNL     1     -28.120 -38.661  12.207  0.00  0.00    +0.024 A 
ATOM     33  C   UNL     1     -28.490 -39.425  11.042  0.00  0.00    +0.007 A 
ATOM     34  C   UNL     1     -28.654 -40.848  11.122  0.00  0.00    -0.029 A 
ATOM     35  C   UNL     1     -29.046 -41.618   9.839  0.00  0.00    +0.045 C 
ENDROOT
BRANCH  10   9
ATOM      4  C   UNL     1     -31.004 -45.385  13.582  0.00  0.00    +0.077 A 
ATOM      5  C   UNL     1     -32.139 -44.595  13.964  0.00  0.00    +0.048 A 
ATOM      6  C   UNL     1     -32.018 -43.191  13.854  0.00  0.00    +0.116 A 
ATOM      7  N   UNL     1     -30.846 -42.631  13.394  0.00  0.00    -0.223 NA
ATOM      8  C   UNL     1     -29.771 -43.422  13.035  0.00  0.00    +0.220 A 
ATOM      9  N   UNL     1     -28.585 -42.881  12.562  0.00  0.00    -0.283 N 
ATOM     36  H   UNL     1     -27.812 -43.498  12.314  0.00  0.00    +0.155 HD
ATOM     37  N   UNL     1     -29.860 -44.765  13.132  0.00  0.00    -0.214 NA
BRANCH   4   3
ATOM      1  C   UNL     1     -29.872 -49.115  13.251  0.00  0.00    +0.020 A 
ATOM      2  C   UNL     1     -29.846 -47.672  13.173  0.00  0.00    +0.013 A 
ATOM      3  C   UNL     1     -30.979 -46.881  13.639  0.00  0.00    +0.019 A 
ATOM     38  C   UNL     1     -32.130 -47.586  14.182  0.00  0.00    +0.120 A 
ATOM     39  N   UNL     1     -32.127 -48.976  14.243  0.00  0.00    -0.263 NA
ATOM     40  C   UNL     1     -31.043 -49.748  13.797  0.00  0.00    +0.111 A 
ENDBRANCH   4   3
ENDBRANCH  10   9
BRANCH  12  13
ATOM     13  N   UNL     1     -27.529 -38.460  14.585  0.00  0.00    -0.281 N 
ATOM     14  C   UNL     1     -28.361 -37.781  15.460  0.00  0.00    +0.248 C 
ATOM     30  O   UNL     1     -29.558 -37.610  15.284  0.00  0.00    -0.270 OA
ATOM     31  H   UNL     1     -26.527 -38.362  14.752  0.00  0.00    +0.155 HD
BRANCH  14  15
ATOM     15  C   UNL     1     -27.775 -37.193  16.704  0.00  0.00    +0.037 A 
ATOM     16  C   UNL     1     -26.449 -37.592  17.181  0.00  0.00    +0.013 A 
ATOM     17  C   UNL     1     -25.915 -37.022  18.393  0.00  0.00    +0.005 A 
ATOM     18  C   UNL     1     -26.708 -36.045  19.135  0.00  0.00    -0.033 A 
ATOM     28  C   UNL     1     -28.019 -35.664  18.636  0.00  0.00    +0.005 A 
ATOM     29  C   UNL     1     -28.546 -36.221  17.449  0.00  0.00    +0.013 A 
BRANCH  18  19
ATOM     19  C   UNL     1     -26.226 -35.402  20.449  0.00  0.00    +0.119 C 
BRANCH  19  20
ATOM     20  N   UNL     1     -26.379 -36.204  21.699  0.00  0.00    -0.302 NA
ATOM     21  C   UNL     1     -25.026 -36.602  22.295  0.00  0.00    +0.066 C 
ATOM     22  C   UNL     1     -25.204 -37.422  23.615  0.00  0.00    -0.064 C 
ATOM     23  N   UNL     1     -26.057 -38.659  23.332  0.00  0.00    +0.379 N 
ATOM     24  C   UNL     1     -26.178 -39.462  24.558  0.00  0.00    -0.096 C 
ATOM     25  H   UNL     1     -25.518 -39.276  22.576  0.00  0.00    -0.082 HD
ATOM     26  C   UNL     1     -27.403 -38.272  22.737  0.00  0.00    -0.064 C 
ATOM     27  C   UNL     1     -27.215 -37.434  21.442  0.00  0.00    +0.066 C 
ENDBRANCH  19  20
ENDBRANCH  18  19
ENDBRANCH  14  15
ENDBRANCH  12  13
TORSDOF 6
ENDMDL
MODEL 5
REMARK VINA RESULT:      -7.4     19.744     24.934
REMARK  Name = C:\Users\Docking\Desktop\test protocol\1iep_ligandH.pdb
REMARK  8 active torsions:
REMARK  status: ('A' for Active; 'I' for Inactive)
REMARK    1  A    between atoms: _5  and  _11
REMARK    2  A    between atoms: _19  and  _21
REMARK    3  A    between atoms: _22  and  _66
REMARK    4  A    between atoms: _27  and  _30
REMARK    5  A    between atoms: _32  and  _33
REMARK    6  A    between atoms: _38  and  _43
REMARK    7  A    between atoms: _43  and  _46
REMARK    8  A    between atoms: _53  and  _55
REMARK                            x       y       z     vdW  Elec       q    Type
REMARK                         _______ _______ _______ _____ _____    ______ ____
ROOT
ATOM     10  C   UNL     1      -8.587 -42.564   5.411  0.00  0.00    +0.038 A 
ATOM     11  C   UNL     1      -8.506 -42.653   6.824  0.00  0.00    +0.047 A 
ATOM     12  C   UNL     1      -7.289 -43.102   7.481  0.00  0.00    +0.035 A 
ATOM     32  C   UNL     1      -6.171 -43.451   6.668  0.00  0.00    +0.024 A 
ATOM     33  C   UNL     1      -6.237 -43.367   5.230  0.00  0.00    +0.007 A 
ATOM     34  C   UNL     1      -7.436 -42.927   4.576  0.00  0.00    -0.029 A 
ATOM     35  C   UNL     1      -7.451 -42.863   3.031  0.00  0.00    +0.045 C 
ENDROOT
BRANCH  10   9
ATOM      4  C   UNL     1     -12.881 -43.385   3.430  0.00  0.00    +0.077 A 
ATOM      5  C   UNL     1     -12.722 -44.807   3.530  0.00  0.00    +0.048 A 
ATOM      6  C   UNL     1     -11.517 -45.287   4.092  0.00  0.00    +0.116 A 
ATOM      7  N   UNL     1     -10.551 -44.401   4.517  0.00  0.00    -0.223 NA
ATOM      8  C   UNL     1     -10.736 -43.036   4.404  0.00  0.00    +0.220 A 
ATOM      9  N   UNL     1      -9.781 -42.126   4.833  0.00  0.00    -0.283 N 
ATOM     36  H   UNL     1      -9.952 -41.127   4.725  0.00  0.00    +0.155 HD
ATOM     37  N   UNL     1     -11.877 -42.552   3.870  0.00  0.00    -0.214 NA
BRANCH   4   3
ATOM      1  C   UNL     1     -16.574 -42.235   2.846  0.00  0.00    +0.020 A 
ATOM      2  C   UNL     1     -15.430 -42.895   3.432  0.00  0.00    +0.013 A 
ATOM      3  C   UNL     1     -14.099 -42.725   2.862  0.00  0.00    +0.019 A 
ATOM     38  C   UNL     1     -13.959 -41.873   1.691  0.00  0.00    +0.120 A 
ATOM     39  N   UNL     1     -15.079 -41.251   1.148  0.00  0.00    -0.263 NA
ATOM     40  C   UNL     1     -16.364 -41.409   1.686  0.00  0.00    +0.111 A 
ENDBRANCH   4   3
ENDBRANCH  10   9
BRANCH  12  13
ATOM     13  N   UNL     1      -7.151 -43.220   8.912  0.00  0.00    -0.281 N 
ATOM     14  C   UNL     1      -8.045 -42.817   9.890  0.00  0.00    +0.248 C 
ATOM     30  O   UNL     1      -9.011 -42.096   9.689  0.00  0.00    -0.270 OA
ATOM     31  H   UNL     1      -6.289 -43.653   9.244  0.00  0.00    +0.155 HD
BRANCH  14  15
ATOM     15  C   UNL     1      -7.827 -43.268  11.298  0.00  0.00    +0.037 A 
ATOM     16  C   UNL     1      -8.319 -42.483  12.433  0.00  0.00    +0.013 A 
ATOM     17  C   UNL     1      -8.080 -42.932  13.781  0.00  0.00    +0.005 A 
ATOM     18  C   UNL     1      -7.345 -44.176  14.002  0.00  0.00    -0.033 A 
ATOM     28  C   UNL     1      -6.873 -44.938  12.858  0.00  0.00    +0.005 A 
ATOM     29  C   UNL     1      -7.105 -44.500  11.535  0.00  0.00    +0.013 A 
BRANCH  18  19
ATOM     19  C   UNL     1      -7.026 -44.720  15.407  0.00  0.00    +0.119 C 
BRANCH  19  20
ATOM     20  N   UNL     1      -5.877 -44.103  16.135  0.00  0.00    -0.302 NA
ATOM     21  C   UNL     1      -5.700 -42.624  15.780  0.00  0.00    +0.066 C 
ATOM     22  C   UNL     1      -4.508 -41.988  16.567  0.00  0.00    -0.064 C 
ATOM     23  N   UNL     1      -3.229 -42.773  16.272  0.00  0.00    +0.379 N 
ATOM     24  C   UNL     1      -2.096 -42.143  16.965  0.00  0.00    -0.096 C 
ATOM     25  H   UNL     1      -3.036 -42.705  15.176  0.00  0.00    -0.082 HD
ATOM     26  C   UNL     1      -3.398 -44.245  16.620  0.00  0.00    -0.064 C 
ATOM     27  C   UNL     1      -4.603 -44.860  15.854  0.00  0.00    +0.066 C 
ENDBRANCH  19  20
ENDBRANCH  18  19
ENDBRANCH  14  15
ENDBRANCH  12  13
TORSDOF 6
ENDMDL
