MODEL 1
REMARK VINA RESULT:     -10.0      0.000      0.000
REMARK  Name = C:\Users\Docking\Desktop\test protocol\1iep_ligandH.pdb
REMARK  8 active torsions:
REMARK  status: ('A' for Active; 'I' for Inactive)
REMARK    1  A    between atoms: _5  and  _11
REMARK    2  A    between atoms: _19  and  _21
REMARK    3  A    between atoms: _22  and  _66
REMARK    4  A    between atoms: _27  and  _30
REMARK    5  A    between atoms: _32  and  _33
REMARK    6  A    between atoms: _38  and  _43
REMARK    7  A    between atoms: _43  and  _46
REMARK    8  A    between atoms: _53  and  _55
REMARK                            x       y       z     vdW  Elec       q    Type
REMARK                         _______ _______ _______ _____ _____    ______ ____
ROOT
ATOM     10  C   UNL     1     -13.816  68.449   4.028  0.00  0.00    +0.038 A 
ATOM     11  C   UNL     1     -13.722  67.158   3.446  0.00  0.00    +0.047 A 
ATOM     12  C   UNL     1     -12.440  66.483   3.315  0.00  0.00    +0.035 A 
ATOM     32  C   UNL     1     -11.273  67.151   3.790  0.00  0.00    +0.024 A 
ATOM     33  C   UNL     1     -11.350  68.463   4.383  0.00  0.00    +0.007 A 
ATOM     34  C   UNL     1     -12.612  69.135   4.512  0.00  0.00    -0.029 A 
ATOM     35  C   UNL     1     -12.634  70.544   5.150  0.00  0.00    +0.045 C 
ENDROOT
BRANCH  10   9
ATOM      4  C   UNL     1     -17.175  71.517   2.497  0.00  0.00    +0.077 A 
ATOM      5  C   UNL     1     -16.346  71.979   1.421  0.00  0.00    +0.048 A 
ATOM      6  C   UNL     1     -15.059  71.408   1.301  0.00  0.00    +0.116 A 
ATOM      7  N   UNL     1     -14.643  70.445   2.195  0.00  0.00    -0.223 NA
ATOM      8  C   UNL     1     -15.467  70.023   3.223  0.00  0.00    +0.220 A 
ATOM      9  N   UNL     1     -15.072  69.050   4.129  0.00  0.00    -0.283 N 
ATOM     36  H   UNL     1     -15.706  68.771   4.877  0.00  0.00    +0.155 HD
ATOM     37  N   UNL     1     -16.699  70.554   3.360  0.00  0.00    -0.214 NA
BRANCH   4   3
ATOM      1  C   UNL     1     -20.940  71.724   3.535  0.00  0.00    +0.020 A 
ATOM      2  C   UNL     1     -19.619  71.187   3.306  0.00  0.00    +0.013 A 
ATOM      3  C   UNL     1     -18.560  72.022   2.754  0.00  0.00    +0.019 A 
ATOM     38  C   UNL     1     -18.874  73.408   2.442  0.00  0.00    +0.120 A 
ATOM     39  N   UNL     1     -20.156  73.898   2.672  0.00  0.00    -0.263 NA
ATOM     40  C   UNL     1     -21.183  73.103   3.201  0.00  0.00    +0.111 A 
ENDBRANCH   4   3
ENDBRANCH  10   9
BRANCH  12  13
ATOM     13  N   UNL     1     -12.282  65.177   2.726  0.00  0.00    -0.281 N 
ATOM     14  C   UNL     1     -13.013  64.030   2.990  0.00  0.00    +0.248 C 
ATOM     30  O   UNL     1     -13.779  63.900   3.933  0.00  0.00    -0.270 OA
ATOM     31  H   UNL     1     -11.541  65.086   2.031  0.00  0.00    +0.155 HD
BRANCH  14  15
ATOM     15  C   UNL     1     -12.860  62.852   2.082  0.00  0.00    +0.037 A 
ATOM     16  C   UNL     1     -12.805  61.487   2.612  0.00  0.00    +0.013 A 
ATOM     17  C   UNL     1     -12.640  60.370   1.716  0.00  0.00    +0.005 A 
ATOM     18  C   UNL     1     -12.531  60.614   0.280  0.00  0.00    -0.033 A 
ATOM     28  C   UNL     1     -12.594  61.978  -0.219  0.00  0.00    +0.005 A 
ATOM     29  C   UNL     1     -12.754  63.075   0.656  0.00  0.00    +0.013 A 
BRANCH  18  19
ATOM     19  C   UNL     1     -12.332  59.484  -0.748  0.00  0.00    +0.119 C 
BRANCH  19  20
ATOM     20  N   UNL     1     -13.228  58.294  -0.638  0.00  0.00    -0.302 NA
ATOM     21  C   UNL     1     -12.597  57.175   0.194  0.00  0.00    +0.066 C 
ATOM     22  C   UNL     1     -13.557  55.947   0.317  0.00  0.00    -0.064 C 
ATOM     23  N   UNL     1     -13.919  55.444  -1.081  0.00  0.00    +0.379 N 
ATOM     24  C   UNL     1     -14.776  54.254  -0.968  0.00  0.00    -0.096 C 
ATOM     25  H   UNL     1     -12.974  55.134  -1.584  0.00  0.00    -0.082 HD
ATOM     26  C   UNL     1     -14.545  56.552  -1.917  0.00  0.00    -0.064 C 
ATOM     27  C   UNL     1     -13.595  57.779  -2.008  0.00  0.00    +0.066 C 
ENDBRANCH  19  20
ENDBRANCH  18  19
ENDBRANCH  14  15
ENDBRANCH  12  13
TORSDOF 6
ENDMDL
MODEL 2
REMARK VINA RESULT:      -9.2     31.520     34.015
REMARK  Name = C:\Users\Docking\Desktop\test protocol\1iep_ligandH.pdb
REMARK  8 active torsions:
REMARK  status: ('A' for Active; 'I' for Inactive)
REMARK    1  A    between atoms: _5  and  _11
REMARK    2  A    between atoms: _19  and  _21
REMARK    3  A    between atoms: _22  and  _66
REMARK    4  A    between atoms: _27  and  _30
REMARK    5  A    between atoms: _32  and  _33
REMARK    6  A    between atoms: _38  and  _43
REMARK    7  A    between atoms: _43  and  _46
REMARK    8  A    between atoms: _53  and  _55
REMARK                            x       y       z     vdW  Elec       q    Type
REMARK                         _______ _______ _______ _____ _____    ______ ____
ROOT
ATOM     10  C   UNL     1     -38.562  53.059  14.504  0.00  0.00    +0.038 A 
ATOM     11  C   UNL     1     -39.194  52.768  15.740  0.00  0.00    +0.047 A 
ATOM     12  C   UNL     1     -40.190  51.713  15.846  0.00  0.00    +0.035 A 
ATOM     32  C   UNL     1     -40.517  50.973  14.673  0.00  0.00    +0.024 A 
ATOM     33  C   UNL     1     -39.886  51.256  13.408  0.00  0.00    +0.007 A 
ATOM     34  C   UNL     1     -38.904  52.297  13.297  0.00  0.00    -0.029 A 
ATOM     35  C   UNL     1     -38.265  52.562  11.914  0.00  0.00    +0.045 C 
ENDROOT
BRANCH  10   9
ATOM      4  C   UNL     1     -34.026  54.627  14.488  0.00  0.00    +0.077 A 
ATOM      5  C   UNL     1     -33.503  53.296  14.605  0.00  0.00    +0.048 A 
ATOM      6  C   UNL     1     -34.436  52.236  14.674  0.00  0.00    +0.116 A 
ATOM      7  N   UNL     1     -35.787  52.500  14.627  0.00  0.00    -0.223 NA
ATOM      8  C   UNL     1     -36.258  53.795  14.516  0.00  0.00    +0.220 A 
ATOM      9  N   UNL     1     -37.613  54.083  14.460  0.00  0.00    -0.283 N 
ATOM     36  H   UNL     1     -37.920  55.052  14.385  0.00  0.00    +0.155 HD
ATOM     37  N   UNL     1     -35.388  54.824  14.450  0.00  0.00    -0.214 NA
BRANCH   4   3
ATOM      1  C   UNL     1     -32.574  58.100  13.428  0.00  0.00    +0.020 A 
ATOM      2  C   UNL     1     -33.434  56.940  13.471  0.00  0.00    +0.013 A 
ATOM      3  C   UNL     1     -33.167  55.850  14.401  0.00  0.00    +0.019 A 
ATOM     38  C   UNL     1     -32.015  55.967  15.282  0.00  0.00    +0.120 A 
ATOM     39  N   UNL     1     -31.204  57.095  15.217  0.00  0.00    -0.263 NA
ATOM     40  C   UNL     1     -31.449  58.150  14.324  0.00  0.00    +0.111 A 
ENDBRANCH   4   3
ENDBRANCH  10   9
BRANCH  12  13
ATOM     13  N   UNL     1     -40.870  51.377  17.073  0.00  0.00    -0.281 N 
ATOM     14  C   UNL     1     -42.113  51.810  17.503  0.00  0.00    +0.248 C 
ATOM     30  O   UNL     1     -42.741  52.726  16.992  0.00  0.00    -0.270 OA
ATOM     31  H   UNL     1     -40.374  50.743  17.700  0.00  0.00    +0.155 HD
BRANCH  14  15
ATOM     15  C   UNL     1     -42.745  51.138  18.679  0.00  0.00    +0.037 A 
ATOM     16  C   UNL     1     -42.039  50.095  19.428  0.00  0.00    +0.013 A 
ATOM     17  C   UNL     1     -42.677  49.451  20.548  0.00  0.00    +0.005 A 
ATOM     18  C   UNL     1     -44.031  49.850  20.927  0.00  0.00    -0.033 A 
ATOM     28  C   UNL     1     -44.706  50.891  20.170  0.00  0.00    +0.005 A 
ATOM     29  C   UNL     1     -44.084  51.524  19.071  0.00  0.00    +0.013 A 
BRANCH  18  19
ATOM     19  C   UNL     1     -44.797  49.202  22.096  0.00  0.00    +0.119 C 
BRANCH  19  20
ATOM     20  N   UNL     1     -46.106  49.811  22.476  0.00  0.00    -0.302 NA
ATOM     21  C   UNL     1     -45.954  50.852  23.589  0.00  0.00    +0.066 C 
ATOM     22  C   UNL     1     -47.330  51.495  23.959  0.00  0.00    -0.064 C 
ATOM     23  N   UNL     1     -48.309  50.396  24.376  0.00  0.00    +0.379 N 
ATOM     24  C   UNL     1     -49.585  51.002  24.780  0.00  0.00    -0.096 C 
ATOM     25  H   UNL     1     -47.880  49.883  25.268  0.00  0.00    -0.082 HD
ATOM     26  C   UNL     1     -48.464  49.355  23.276  0.00  0.00    -0.064 C 
ATOM     27  C   UNL     1     -47.087  48.743  22.895  0.00  0.00    +0.066 C 
ENDBRANCH  19  20
ENDBRANCH  18  19
ENDBRANCH  14  15
ENDBRANCH  12  13
TORSDOF 6
ENDMDL
MODEL 3
REMARK VINA RESULT:      -9.2     37.395     42.533
REMARK  Name = C:\Users\Docking\Desktop\test protocol\1iep_ligandH.pdb
REMARK  8 active torsions:
REMARK  status: ('A' for Active; 'I' for Inactive)
REMARK    1  A    between atoms: _5  and  _11
REMARK    2  A    between atoms: _19  and  _21
REMARK    3  A    between atoms: _22  and  _66
REMARK    4  A    between atoms: _27  and  _30
REMARK    5  A    between atoms: _32  and  _33
REMARK    6  A    between atoms: _38  and  _43
REMARK    7  A    between atoms: _43  and  _46
REMARK    8  A    between atoms: _53  and  _55
REMARK                            x       y       z     vdW  Elec       q    Type
REMARK                         _______ _______ _______ _____ _____    ______ ____
ROOT
ATOM     10  C   UNL     1     -39.037  35.895 -13.378  0.00  0.00    +0.038 A 
ATOM     11  C   UNL     1     -39.351  35.727 -12.005  0.00  0.00    +0.047 A 
ATOM     12  C   UNL     1     -40.657  35.242 -11.586  0.00  0.00    +0.035 A 
ATOM     32  C   UNL     1     -41.618  34.935 -12.592  0.00  0.00    +0.024 A 
ATOM     33  C   UNL     1     -41.316  35.101 -13.992  0.00  0.00    +0.007 A 
ATOM     34  C   UNL     1     -40.031  35.581 -14.411  0.00  0.00    -0.029 A 
ATOM     35  C   UNL     1     -39.764  35.746 -15.926  0.00  0.00    +0.045 C 
ENDROOT
BRANCH  10   9
ATOM      4  C   UNL     1     -34.326  35.261 -14.044  0.00  0.00    +0.077 A 
ATOM      5  C   UNL     1     -34.395  33.885 -13.643  0.00  0.00    +0.048 A 
ATOM      6  C   UNL     1     -35.660  33.382 -13.266  0.00  0.00    +0.116 A 
ATOM      7  N   UNL     1     -36.767  34.201 -13.292  0.00  0.00    -0.223 NA
ATOM      8  C   UNL     1     -36.666  35.524 -13.682  0.00  0.00    +0.220 A 
ATOM      9  N   UNL     1     -37.768  36.365 -13.724  0.00  0.00    -0.283 N 
ATOM     36  H   UNL     1     -37.650  37.336 -14.010  0.00  0.00    +0.155 HD
ATOM     37  N   UNL     1     -35.469  36.030 -14.046  0.00  0.00    -0.214 NA
BRANCH   4   3
ATOM      1  C   UNL     1     -30.811  35.957 -15.613  0.00  0.00    +0.020 A 
ATOM      2  C   UNL     1     -32.013  35.257 -15.222  0.00  0.00    +0.013 A 
ATOM      3  C   UNL     1     -33.062  35.938 -14.473  0.00  0.00    +0.019 A 
ATOM     38  C   UNL     1     -32.862  37.339 -14.134  0.00  0.00    +0.120 A 
ATOM     39  N   UNL     1     -31.694  37.987 -14.522  0.00  0.00    -0.263 NA
ATOM     40  C   UNL     1     -30.677  37.341 -15.242  0.00  0.00    +0.111 A 
ENDBRANCH   4   3
ENDBRANCH  10   9
BRANCH  12  13
ATOM     13  N   UNL     1     -41.036  35.059 -10.206  0.00  0.00    -0.281 N 
ATOM     14  C   UNL     1     -40.751  35.882  -9.129  0.00  0.00    +0.248 C 
ATOM     30  O   UNL     1     -39.941  36.797  -9.152  0.00  0.00    -0.270 OA
ATOM     31  H   UNL     1     -41.579  34.221  -9.999  0.00  0.00    +0.155 HD
BRANCH  14  15
ATOM     15  C   UNL     1     -41.459  35.646  -7.834  0.00  0.00    +0.037 A 
ATOM     16  C   UNL     1     -41.589  34.298  -7.273  0.00  0.00    +0.013 A 
ATOM     17  C   UNL     1     -42.291  34.096  -6.031  0.00  0.00    +0.005 A 
ATOM     18  C   UNL     1     -42.868  35.247  -5.339  0.00  0.00    -0.033 A 
ATOM     28  C   UNL     1     -42.720  36.573  -5.915  0.00  0.00    +0.005 A 
ATOM     29  C   UNL     1     -42.034  36.775  -7.133  0.00  0.00    +0.013 A 
BRANCH  18  19
ATOM     19  C   UNL     1     -43.652  35.122  -4.019  0.00  0.00    +0.119 C 
BRANCH  19  20
ATOM     20  N   UNL     1     -45.083  34.703  -4.111  0.00  0.00    -0.302 NA
ATOM     21  C   UNL     1     -45.948  35.762  -4.801  0.00  0.00    +0.066 C 
ATOM     22  C   UNL     1     -47.437  35.298  -4.908  0.00  0.00    -0.064 C 
ATOM     23  N   UNL     1     -47.974  34.988  -3.510  0.00  0.00    +0.379 N 
ATOM     24  C   UNL     1     -49.391  34.607  -3.602  0.00  0.00    -0.096 C 
ATOM     25  H   UNL     1     -47.913  35.925  -2.909  0.00  0.00    -0.082 HD
ATOM     26  C   UNL     1     -47.118  33.938  -2.816  0.00  0.00    -0.064 C 
ATOM     27  C   UNL     1     -45.635  34.396  -2.741  0.00  0.00    +0.066 C 
ENDBRANCH  19  20
ENDBRANCH  18  19
ENDBRANCH  14  15
ENDBRANCH  12  13
TORSDOF 6
ENDMDL
MODEL 4
REMARK VINA RESULT:      -9.1      4.044      7.278
REMARK  Name = C:\Users\Docking\Desktop\test protocol\1iep_ligandH.pdb
REMARK  8 active torsions:
REMARK  status: ('A' for Active; 'I' for Inactive)
REMARK    1  A    between atoms: _5  and  _11
REMARK    2  A    between atoms: _19  and  _21
REMARK    3  A    between atoms: _22  and  _66
REMARK    4  A    between atoms: _27  and  _30
REMARK    5  A    between atoms: _32  and  _33
REMARK    6  A    between atoms: _38  and  _43
REMARK    7  A    between atoms: _43  and  _46
REMARK    8  A    between atoms: _53  and  _55
REMARK                            x       y       z     vdW  Elec       q    Type
REMARK                         _______ _______ _______ _____ _____    ______ ____
ROOT
ATOM     10  C   UNL     1     -11.971  67.655   5.050  0.00  0.00    +0.038 A 
ATOM     11  C   UNL     1     -11.688  66.435   4.386  0.00  0.00    +0.047 A 
ATOM     12  C   UNL     1     -12.568  65.922   3.347  0.00  0.00    +0.035 A 
ATOM     32  C   UNL     1     -13.726  66.680   3.007  0.00  0.00    +0.024 A 
ATOM     33  C   UNL     1     -14.029  67.923   3.673  0.00  0.00    +0.007 A 
ATOM     34  C   UNL     1     -13.167  68.432   4.700  0.00  0.00    -0.029 A 
ATOM     35  C   UNL     1     -13.544  69.766   5.385  0.00  0.00    +0.045 C 
ENDROOT
BRANCH  10   9
ATOM      4  C   UNL     1     -10.187  67.508   9.504  0.00  0.00    +0.077 A 
ATOM      5  C   UNL     1     -11.101  66.476   9.899  0.00  0.00    +0.048 A 
ATOM      6  C   UNL     1     -12.019  66.015   8.929  0.00  0.00    +0.116 A 
ATOM      7  N   UNL     1     -12.014  66.554   7.661  0.00  0.00    -0.223 NA
ATOM      8  C   UNL     1     -11.120  67.550   7.312  0.00  0.00    +0.220 A 
ATOM      9  N   UNL     1     -11.092  68.101   6.040  0.00  0.00    -0.283 N 
ATOM     36  H   UNL     1     -10.423  68.839   5.825  0.00  0.00    +0.155 HD
ATOM     37  N   UNL     1     -10.235  68.008   8.221  0.00  0.00    -0.214 NA
BRANCH   4   3
ATOM      1  C   UNL     1      -7.314  69.738  10.944  0.00  0.00    +0.020 A 
ATOM      2  C   UNL     1      -8.294  69.206  10.025  0.00  0.00    +0.013 A 
ATOM      3  C   UNL     1      -9.155  68.097  10.415  0.00  0.00    +0.019 A 
ATOM     38  C   UNL     1      -8.999  67.545  11.752  0.00  0.00    +0.120 A 
ATOM     39  N   UNL     1      -8.045  68.077  12.615  0.00  0.00    -0.263 NA
ATOM     40  C   UNL     1      -7.209  69.143  12.250  0.00  0.00    +0.111 A 
ENDBRANCH   4   3
ENDBRANCH  10   9
BRANCH  12  13
ATOM     13  N   UNL     1     -12.336  64.685   2.644  0.00  0.00    -0.281 N 
ATOM     14  C   UNL     1     -12.877  63.438   2.913  0.00  0.00    +0.248 C 
ATOM     30  O   UNL     1     -13.481  63.153   3.936  0.00  0.00    -0.270 OA
ATOM     31  H   UNL     1     -11.696  64.734   1.851  0.00  0.00    +0.155 HD
BRANCH  14  15
ATOM     15  C   UNL     1     -12.711  62.346   1.905  0.00  0.00    +0.037 A 
ATOM     16  C   UNL     1     -12.513  62.646   0.485  0.00  0.00    +0.013 A 
ATOM     17  C   UNL     1     -12.373  61.574  -0.468  0.00  0.00    +0.005 A 
ATOM     18  C   UNL     1     -12.429  60.190  -0.003  0.00  0.00    -0.033 A 
ATOM     28  C   UNL     1     -12.622  59.921   1.413  0.00  0.00    +0.005 A 
ATOM     29  C   UNL     1     -12.761  60.970   2.350  0.00  0.00    +0.013 A 
BRANCH  18  19
ATOM     19  C   UNL     1     -12.311  58.983  -0.952  0.00  0.00    +0.119 C 
BRANCH  19  20
ATOM     20  N   UNL     1     -13.211  57.820  -0.695  0.00  0.00    -0.302 NA
ATOM     21  C   UNL     1     -12.507  56.712   0.094  0.00  0.00    +0.066 C 
ATOM     22  C   UNL     1     -13.470  55.513   0.373  0.00  0.00    -0.064 C 
ATOM     23  N   UNL     1     -14.009  54.975  -0.953  0.00  0.00    +0.379 N 
ATOM     24  C   UNL     1     -14.869  53.810  -0.697  0.00  0.00    -0.096 C 
ATOM     25  H   UNL     1     -13.138  54.626  -1.555  0.00  0.00    -0.082 HD
ATOM     26  C   UNL     1     -14.708  56.071  -1.745  0.00  0.00    -0.064 C 
ATOM     27  C   UNL     1     -13.751  57.270  -1.992  0.00  0.00    +0.066 C 
ENDBRANCH  19  20
ENDBRANCH  18  19
ENDBRANCH  14  15
ENDBRANCH  12  13
TORSDOF 6
ENDMDL
MODEL 5
REMARK VINA RESULT:      -9.0      2.242     12.403
REMARK  Name = C:\Users\Docking\Desktop\test protocol\1iep_ligandH.pdb
REMARK  8 active torsions:
REMARK  status: ('A' for Active; 'I' for Inactive)
REMARK    1  A    between atoms: _5  and  _11
REMARK    2  A    between atoms: _19  and  _21
REMARK    3  A    between atoms: _22  and  _66
REMARK    4  A    between atoms: _27  and  _30
REMARK    5  A    between atoms: _32  and  _33
REMARK    6  A    between atoms: _38  and  _43
REMARK    7  A    between atoms: _43  and  _46
REMARK    8  A    between atoms: _53  and  _55
REMARK                            x       y       z     vdW  Elec       q    Type
REMARK                         _______ _______ _______ _____ _____    ______ ____
ROOT
ATOM     10  C   UNL     1     -12.504  66.698   2.858  0.00  0.00    +0.038 A 
ATOM     11  C   UNL     1     -13.761  67.347   2.945  0.00  0.00    +0.047 A 
ATOM     12  C   UNL     1     -13.922  68.579   3.702  0.00  0.00    +0.035 A 
ATOM     32  C   UNL     1     -12.778  69.123   4.356  0.00  0.00    +0.024 A 
ATOM     33  C   UNL     1     -11.492  68.475   4.279  0.00  0.00    +0.007 A 
ATOM     34  C   UNL     1     -11.329  67.259   3.536  0.00  0.00    -0.029 A 
ATOM     35  C   UNL     1      -9.928  66.605   3.493  0.00  0.00    +0.045 C 
ENDROOT
BRANCH  10   9
ATOM      4  C   UNL     1     -12.820  61.927   2.436  0.00  0.00    +0.077 A 
ATOM      5  C   UNL     1     -13.183  61.770   3.815  0.00  0.00    +0.048 A 
ATOM      6  C   UNL     1     -13.270  62.941   4.601  0.00  0.00    +0.116 A 
ATOM      7  N   UNL     1     -13.012  64.173   4.038  0.00  0.00    -0.223 NA
ATOM      8  C   UNL     1     -12.663  64.289   2.705  0.00  0.00    +0.220 A 
ATOM      9  N   UNL     1     -12.407  65.518   2.117  0.00  0.00    -0.283 N 
ATOM     36  H   UNL     1     -12.145  65.560   1.132  0.00  0.00    +0.155 HD
ATOM     37  N   UNL     1     -12.572  63.185   1.935  0.00  0.00    -0.214 NA
BRANCH   4   3
ATOM      1  C   UNL     1     -11.890  59.760  -0.685  0.00  0.00    +0.020 A 
ATOM      2  C   UNL     1     -11.987  60.894   0.205  0.00  0.00    +0.013 A 
ATOM      3  C   UNL     1     -12.690  60.785   1.477  0.00  0.00    +0.019 A 
ATOM     38  C   UNL     1     -13.287  59.503   1.822  0.00  0.00    +0.120 A 
ATOM     39  N   UNL     1     -13.178  58.429   0.944  0.00  0.00    -0.263 NA
ATOM     40  C   UNL     1     -12.506  58.523  -0.283  0.00  0.00    +0.111 A 
ENDBRANCH   4   3
ENDBRANCH  10   9
BRANCH  12  13
ATOM     13  N   UNL     1     -15.176  69.279   3.833  0.00  0.00    -0.281 N 
ATOM     14  C   UNL     1     -15.553  70.469   3.233  0.00  0.00    +0.248 C 
ATOM     30  O   UNL     1     -14.786  71.226   2.657  0.00  0.00    -0.270 OA
ATOM     31  H   UNL     1     -15.869  68.844   4.441  0.00  0.00    +0.155 HD
BRANCH  14  15
ATOM     15  C   UNL     1     -16.987  70.885   3.294  0.00  0.00    +0.037 A 
ATOM     16  C   UNL     1     -17.942  70.195   4.165  0.00  0.00    +0.013 A 
ATOM     17  C   UNL     1     -19.324  70.606   4.192  0.00  0.00    +0.005 A 
ATOM     18  C   UNL     1     -19.758  71.714   3.345  0.00  0.00    -0.033 A 
ATOM     28  C   UNL     1     -18.789  72.383   2.493  0.00  0.00    +0.005 A 
ATOM     29  C   UNL     1     -17.434  71.983   2.464  0.00  0.00    +0.013 A 
BRANCH  18  19
ATOM     19  C   UNL     1     -21.217  72.205   3.293  0.00  0.00    +0.119 C 
BRANCH  19  20
ATOM     20  N   UNL     1     -21.820  72.416   1.944  0.00  0.00    -0.302 NA
ATOM     21  C   UNL     1     -22.104  73.895   1.666  0.00  0.00    +0.066 C 
ATOM     22  C   UNL     1     -22.713  74.101   0.241  0.00  0.00    -0.064 C 
ATOM     23  N   UNL     1     -23.992  73.271   0.112  0.00  0.00    +0.379 N 
ATOM     24  C   UNL     1     -24.599  73.507  -1.206  0.00  0.00    -0.096 C 
ATOM     25  H   UNL     1     -24.709  73.633   0.885  0.00  0.00    -0.082 HD
ATOM     26  C   UNL     1     -23.720  71.799   0.390  0.00  0.00    -0.064 C 
ATOM     27  C   UNL     1     -23.087  71.609   1.796  0.00  0.00    +0.066 C 
ENDBRANCH  19  20
ENDBRANCH  18  19
ENDBRANCH  14  15
ENDBRANCH  12  13
TORSDOF 6
ENDMDL
