MODEL 1
REMARK VINA RESULT:      -7.4      0.000      0.000
REMARK  Name = C:\Users\Docking\Desktop\test protocol\1iep_ligandH.pdb
REMARK  8 active torsions:
REMARK  status: ('A' for Active; 'I' for Inactive)
REMARK    1  A    between atoms: _5  and  _11
REMARK    2  A    between atoms: _19  and  _21
REMARK    3  A    between atoms: _22  and  _66
REMARK    4  A    between atoms: _27  and  _30
REMARK    5  A    between atoms: _32  and  _33
REMARK    6  A    between atoms: _38  and  _43
REMARK    7  A    between atoms: _43  and  _46
REMARK    8  A    between atoms: _53  and  _55
REMARK                            x       y       z     vdW  Elec       q    Type
REMARK                         _______ _______ _______ _____ _____    ______ ____
ROOT
ATOM     10  C   UNL     1      18.264   3.447   7.332  0.00  0.00    +0.038 A 
ATOM     11  C   UNL     1      17.126   3.551   6.491  0.00  0.00    +0.047 A 
ATOM     12  C   UNL     1      17.265   3.671   5.048  0.00  0.00    +0.035 A 
ATOM     32  C   UNL     1      18.578   3.678   4.494  0.00  0.00    +0.024 A 
ATOM     33  C   UNL     1      19.745   3.574   5.334  0.00  0.00    +0.007 A 
ATOM     34  C   UNL     1      19.615   3.459   6.758  0.00  0.00    -0.029 A 
ATOM     35  C   UNL     1      20.902   3.357   7.610  0.00  0.00    +0.045 C 
ENDROOT
BRANCH  10   9
ATOM      4  C   UNL     1      17.655   0.851  11.323  0.00  0.00    +0.077 A 
ATOM      5  C   UNL     1      17.695  -0.385  10.596  0.00  0.00    +0.048 A 
ATOM      6  C   UNL     1      17.866  -0.308   9.195  0.00  0.00    +0.116 A 
ATOM      7  N   UNL     1      17.988   0.918   8.579  0.00  0.00    -0.223 NA
ATOM      8  C   UNL     1      17.944   2.091   9.309  0.00  0.00    +0.220 A 
ATOM      9  N   UNL     1      18.072   3.335   8.711  0.00  0.00    -0.283 N 
ATOM     36  H   UNL     1      18.027   4.177   9.284  0.00  0.00    +0.155 HD
ATOM     37  N   UNL     1      17.780   2.045  10.648  0.00  0.00    -0.214 NA
BRANCH   4   3
ATOM      1  C   UNL     1      18.330   1.428  15.132  0.00  0.00    +0.020 A 
ATOM      2  C   UNL     1      18.548   1.364  13.706  0.00  0.00    +0.013 A 
ATOM      3  C   UNL     1      17.483   0.935  12.808  0.00  0.00    +0.019 A 
ATOM     38  C   UNL     1      16.198   0.577  13.390  0.00  0.00    +0.120 A 
ATOM     39  N   UNL     1      16.018   0.647  14.768  0.00  0.00    -0.263 NA
ATOM     40  C   UNL     1      17.036   1.056  15.642  0.00  0.00    +0.111 A 
ENDBRANCH   4   3
ENDBRANCH  10   9
BRANCH  12  13
ATOM     13  N   UNL     1      16.146   3.788   4.146  0.00  0.00    -0.281 N 
ATOM     14  C   UNL     1      15.510   2.778   3.443  0.00  0.00    +0.248 C 
ATOM     30  O   UNL     1      15.944   1.642   3.320  0.00  0.00    -0.270 OA
ATOM     31  H   UNL     1      15.780   4.730   4.008  0.00  0.00    +0.155 HD
BRANCH  14  15
ATOM     15  C   UNL     1      14.210   3.076   2.769  0.00  0.00    +0.037 A 
ATOM     16  C   UNL     1      13.542   2.077   1.930  0.00  0.00    +0.013 A 
ATOM     17  C   UNL     1      12.297   2.397   1.277  0.00  0.00    +0.005 A 
ATOM     18  C   UNL     1      11.711   3.722   1.462  0.00  0.00    -0.033 A 
ATOM     28  C   UNL     1      12.392   4.692   2.304  0.00  0.00    +0.005 A 
ATOM     29  C   UNL     1      13.612   4.383   2.945  0.00  0.00    +0.013 A 
BRANCH  18  19
ATOM     19  C   UNL     1      10.397   4.157   0.787  0.00  0.00    +0.119 C 
BRANCH  19  20
ATOM     20  N   UNL     1      10.197   3.762  -0.639  0.00  0.00    -0.302 NA
ATOM     21  C   UNL     1      11.400   4.133  -1.512  0.00  0.00    +0.066 C 
ATOM     22  C   UNL     1      11.183   3.692  -2.996  0.00  0.00    -0.064 C 
ATOM     23  N   UNL     1       9.904   4.334  -3.535  0.00  0.00    +0.379 N 
ATOM     24  C   UNL     1       9.729   3.968  -4.948  0.00  0.00    -0.096 C 
ATOM     25  H   UNL     1      10.035   5.440  -3.486  0.00  0.00    -0.082 HD
ATOM     26  C   UNL     1       8.704   3.973  -2.671  0.00  0.00    -0.064 C 
ATOM     27  C   UNL     1       8.941   4.389  -1.193  0.00  0.00    +0.066 C 
ENDBRANCH  19  20
ENDBRANCH  18  19
ENDBRANCH  14  15
ENDBRANCH  12  13
TORSDOF 6
ENDMDL
MODEL 2
REMARK VINA RESULT:      -7.2      3.277      6.002
REMARK  Name = C:\Users\Docking\Desktop\test protocol\1iep_ligandH.pdb
REMARK  8 active torsions:
REMARK  status: ('A' for Active; 'I' for Inactive)
REMARK    1  A    between atoms: _5  and  _11
REMARK    2  A    between atoms: _19  and  _21
REMARK    3  A    between atoms: _22  and  _66
REMARK    4  A    between atoms: _27  and  _30
REMARK    5  A    between atoms: _32  and  _33
REMARK    6  A    between atoms: _38  and  _43
REMARK    7  A    between atoms: _43  and  _46
REMARK    8  A    between atoms: _53  and  _55
REMARK                            x       y       z     vdW  Elec       q    Type
REMARK                         _______ _______ _______ _____ _____    ______ ____
ROOT
ATOM     10  C   UNL     1      18.683   4.134   7.234  0.00  0.00    +0.038 A 
ATOM     11  C   UNL     1      17.883   4.436   6.102  0.00  0.00    +0.047 A 
ATOM     12  C   UNL     1      16.702   3.649   5.784  0.00  0.00    +0.035 A 
ATOM     32  C   UNL     1      16.363   2.562   6.642  0.00  0.00    +0.024 A 
ATOM     33  C   UNL     1      17.166   2.240   7.796  0.00  0.00    +0.007 A 
ATOM     34  C   UNL     1      18.333   3.012   8.113  0.00  0.00    -0.029 A 
ATOM     35  C   UNL     1      19.160   2.618   9.359  0.00  0.00    +0.045 C 
ENDROOT
BRANCH  10   9
ATOM      4  C   UNL     1      23.349   5.145   6.744  0.00  0.00    +0.077 A 
ATOM      5  C   UNL     1      23.575   3.988   5.926  0.00  0.00    +0.048 A 
ATOM      6  C   UNL     1      22.465   3.155   5.661  0.00  0.00    +0.116 A 
ATOM      7  N   UNL     1      21.227   3.466   6.180  0.00  0.00    -0.223 NA
ATOM      8  C   UNL     1      21.044   4.588   6.966  0.00  0.00    +0.220 A 
ATOM      9  N   UNL     1      19.806   4.924   7.492  0.00  0.00    -0.283 N 
ATOM     36  H   UNL     1      19.714   5.756   8.074  0.00  0.00    +0.155 HD
ATOM     37  N   UNL     1      22.088   5.399   7.235  0.00  0.00    -0.214 NA
BRANCH   4   3
ATOM      1  C   UNL     1      25.628   8.323   6.842  0.00  0.00    +0.020 A 
ATOM      2  C   UNL     1      24.575   7.414   6.450  0.00  0.00    +0.013 A 
ATOM      3  C   UNL     1      24.421   6.124   7.110  0.00  0.00    +0.019 A 
ATOM     38  C   UNL     1      25.356   5.781   8.172  0.00  0.00    +0.120 A 
ATOM     39  N   UNL     1      26.360   6.676   8.527  0.00  0.00    -0.263 NA
ATOM     40  C   UNL     1      26.519   7.920   7.898  0.00  0.00    +0.111 A 
ENDBRANCH   4   3
ENDBRANCH  10   9
BRANCH  12  13
ATOM     13  N   UNL     1      15.856   3.903   4.644  0.00  0.00    -0.281 N 
ATOM     14  C   UNL     1      15.801   3.201   3.451  0.00  0.00    +0.248 C 
ATOM     30  O   UNL     1      16.626   2.372   3.098  0.00  0.00    -0.270 OA
ATOM     31  H   UNL     1      15.221   4.697   4.727  0.00  0.00    +0.155 HD
BRANCH  14  15
ATOM     15  C   UNL     1      14.673   3.469   2.508  0.00  0.00    +0.037 A 
ATOM     16  C   UNL     1      14.753   3.078   1.098  0.00  0.00    +0.013 A 
ATOM     17  C   UNL     1      13.657   3.364   0.205  0.00  0.00    +0.005 A 
ATOM     18  C   UNL     1      12.472   4.043   0.721  0.00  0.00    -0.033 A 
ATOM     28  C   UNL     1      12.417   4.415   2.125  0.00  0.00    +0.005 A 
ATOM     29  C   UNL     1      13.489   4.138   3.003  0.00  0.00    +0.013 A 
BRANCH  18  19
ATOM     19  C   UNL     1      11.265   4.407  -0.164  0.00  0.00    +0.119 C 
BRANCH  19  20
ATOM     20  N   UNL     1      10.553   3.284  -0.845  0.00  0.00    -0.302 NA
ATOM     21  C   UNL     1       9.329   3.769  -1.626  0.00  0.00    +0.066 C 
ATOM     22  C   UNL     1       8.610   2.585  -2.350  0.00  0.00    -0.064 C 
ATOM     23  N   UNL     1       8.210   1.527  -1.320  0.00  0.00    +0.379 N 
ATOM     24  C   UNL     1       7.483   0.440  -1.990  0.00  0.00    -0.096 C 
ATOM     25  H   UNL     1       7.511   2.007  -0.596  0.00  0.00    -0.082 HD
ATOM     26  C   UNL     1       9.422   1.041  -0.537  0.00  0.00    -0.064 C 
ATOM     27  C   UNL     1      10.146   2.230   0.155  0.00  0.00    +0.066 C 
ENDBRANCH  19  20
ENDBRANCH  18  19
ENDBRANCH  14  15
ENDBRANCH  12  13
TORSDOF 6
ENDMDL
MODEL 3
REMARK VINA RESULT:      -7.2     11.262     13.394
REMARK  Name = C:\Users\Docking\Desktop\test protocol\1iep_ligandH.pdb
REMARK  8 active torsions:
REMARK  status: ('A' for Active; 'I' for Inactive)
REMARK    1  A    between atoms: _5  and  _11
REMARK    2  A    between atoms: _19  and  _21
REMARK    3  A    between atoms: _22  and  _66
REMARK    4  A    between atoms: _27  and  _30
REMARK    5  A    between atoms: _32  and  _33
REMARK    6  A    between atoms: _38  and  _43
REMARK    7  A    between atoms: _43  and  _46
REMARK    8  A    between atoms: _53  and  _55
REMARK                            x       y       z     vdW  Elec       q    Type
REMARK                         _______ _______ _______ _____ _____    ______ ____
ROOT
ATOM     10  C   UNL     1       9.795  -0.040  13.740  0.00  0.00    +0.038 A 
ATOM     11  C   UNL     1       8.415   0.168  13.489  0.00  0.00    +0.047 A 
ATOM     12  C   UNL     1       7.711  -0.599  12.473  0.00  0.00    +0.035 A 
ATOM     32  C   UNL     1       8.444  -1.573  11.733  0.00  0.00    +0.024 A 
ATOM     33  C   UNL     1       9.848  -1.797  11.975  0.00  0.00    +0.007 A 
ATOM     34  C   UNL     1      10.548  -1.041  12.974  0.00  0.00    -0.029 A 
ATOM     35  C   UNL     1      12.054  -1.319  13.187  0.00  0.00    +0.045 C 
ENDROOT
BRANCH  10   9
ATOM      4  C   UNL     1      11.067   0.766  18.298  0.00  0.00    +0.077 A 
ATOM      5  C   UNL     1      10.406  -0.423  18.755  0.00  0.00    +0.048 A 
ATOM      6  C   UNL     1       9.745  -1.210  17.786  0.00  0.00    +0.116 A 
ATOM      7  N   UNL     1       9.750  -0.828  16.462  0.00  0.00    -0.223 NA
ATOM      8  C   UNL     1      10.396   0.325  16.055  0.00  0.00    +0.220 A 
ATOM      9  N   UNL     1      10.421   0.724  14.728  0.00  0.00    -0.283 N 
ATOM     36  H   UNL     1      10.902   1.585  14.469  0.00  0.00    +0.155 HD
ATOM     37  N   UNL     1      11.033   1.095  16.961  0.00  0.00    -0.214 NA
BRANCH   4   3
ATOM      1  C   UNL     1      11.971   3.762  20.645  0.00  0.00    +0.020 A 
ATOM      2  C   UNL     1      11.207   2.893  19.779  0.00  0.00    +0.013 A 
ATOM      3  C   UNL     1      11.812   1.700  19.200  0.00  0.00    +0.019 A 
ATOM     38  C   UNL     1      13.202   1.412  19.521  0.00  0.00    +0.120 A 
ATOM     39  N   UNL     1      13.912   2.267  20.357  0.00  0.00    -0.263 NA
ATOM     40  C   UNL     1      13.342   3.419  20.918  0.00  0.00    +0.111 A 
ENDBRANCH   4   3
ENDBRANCH  10   9
BRANCH  12  13
ATOM     13  N   UNL     1       6.313  -0.426  12.168  0.00  0.00    -0.281 N 
ATOM     14  C   UNL     1       5.226  -1.022  12.787  0.00  0.00    +0.248 C 
ATOM     30  O   UNL     1       5.302  -1.963  13.562  0.00  0.00    -0.270 OA
ATOM     31  H   UNL     1       6.098   0.213  11.402  0.00  0.00    +0.155 HD
BRANCH  14  15
ATOM     15  C   UNL     1       3.855  -0.506  12.491  0.00  0.00    +0.037 A 
ATOM     16  C   UNL     1       2.743  -0.726  13.420  0.00  0.00    +0.013 A 
ATOM     17  C   UNL     1       1.426  -0.233  13.102  0.00  0.00    +0.005 A 
ATOM     18  C   UNL     1       1.215   0.487  11.848  0.00  0.00    -0.033 A 
ATOM     28  C   UNL     1       2.336   0.695  10.947  0.00  0.00    +0.005 A 
ATOM     29  C   UNL     1       3.628   0.212  11.255  0.00  0.00    +0.013 A 
BRANCH  18  19
ATOM     19  C   UNL     1      -0.161   1.029  11.417  0.00  0.00    +0.119 C 
BRANCH  19  20
ATOM     20  N   UNL     1      -0.289   2.507  11.242  0.00  0.00    -0.302 NA
ATOM     21  C   UNL     1      -0.596   3.217  12.564  0.00  0.00    +0.066 C 
ATOM     22  C   UNL     1      -0.704   4.764  12.366  0.00  0.00    -0.064 C 
ATOM     23  N   UNL     1      -1.782   5.069  11.324  0.00  0.00    +0.379 N 
ATOM     24  C   UNL     1      -1.926   6.525  11.179  0.00  0.00    -0.096 C 
ATOM     25  H   UNL     1      -2.748   4.670  11.711  0.00  0.00    -0.082 HD
ATOM     26  C   UNL     1      -1.485   4.364  10.008  0.00  0.00    -0.064 C 
ATOM     27  C   UNL     1      -1.351   2.830  10.220  0.00  0.00    +0.066 C 
ENDBRANCH  19  20
ENDBRANCH  18  19
ENDBRANCH  14  15
ENDBRANCH  12  13
TORSDOF 6
ENDMDL
MODEL 4
REMARK VINA RESULT:      -7.1      1.279      1.698
REMARK  Name = C:\Users\Docking\Desktop\test protocol\1iep_ligandH.pdb
REMARK  8 active torsions:
REMARK  status: ('A' for Active; 'I' for Inactive)
REMARK    1  A    between atoms: _5  and  _11
REMARK    2  A    between atoms: _19  and  _21
REMARK    3  A    between atoms: _22  and  _66
REMARK    4  A    between atoms: _27  and  _30
REMARK    5  A    between atoms: _32  and  _33
REMARK    6  A    between atoms: _38  and  _43
REMARK    7  A    between atoms: _43  and  _46
REMARK    8  A    between atoms: _53  and  _55
REMARK                            x       y       z     vdW  Elec       q    Type
REMARK                         _______ _______ _______ _____ _____    ______ ____
ROOT
ATOM     10  C   UNL     1      18.289   3.445   7.177  0.00  0.00    +0.038 A 
ATOM     11  C   UNL     1      17.226   3.644   6.259  0.00  0.00    +0.047 A 
ATOM     12  C   UNL     1      17.481   3.804   4.835  0.00  0.00    +0.035 A 
ATOM     32  C   UNL     1      18.831   3.752   4.381  0.00  0.00    +0.024 A 
ATOM     33  C   UNL     1      19.924   3.552   5.301  0.00  0.00    +0.007 A 
ATOM     34  C   UNL     1      19.678   3.396   6.706  0.00  0.00    -0.029 A 
ATOM     35  C   UNL     1      20.888   3.191   7.647  0.00  0.00    +0.045 C 
ENDROOT
BRANCH  10   9
ATOM      4  C   UNL     1      17.367   0.749  11.039  0.00  0.00    +0.077 A 
ATOM      5  C   UNL     1      17.469  -0.468  10.287  0.00  0.00    +0.048 A 
ATOM      6  C   UNL     1      17.754  -0.357   8.908  0.00  0.00    +0.116 A 
ATOM      7  N   UNL     1      17.921   0.885   8.334  0.00  0.00    -0.223 NA
ATOM      8  C   UNL     1      17.814   2.039   9.087  0.00  0.00    +0.220 A 
ATOM      9  N   UNL     1      17.986   3.298   8.532  0.00  0.00    -0.283 N 
ATOM     36  H   UNL     1      17.891   4.126   9.120  0.00  0.00    +0.155 HD
ATOM     37  N   UNL     1      17.541   1.959  10.406  0.00  0.00    -0.214 NA
BRANCH   4   3
ATOM      1  C   UNL     1      17.673   1.370  14.889  0.00  0.00    +0.020 A 
ATOM      2  C   UNL     1      18.004   1.349  13.483  0.00  0.00    +0.013 A 
ATOM      3  C   UNL     1      17.074   0.796  12.507  0.00  0.00    +0.019 A 
ATOM     38  C   UNL     1      15.807   0.268  12.990  0.00  0.00    +0.120 A 
ATOM     39  N   UNL     1      15.516   0.301  14.350  0.00  0.00    -0.263 NA
ATOM     40  C   UNL     1      16.404   0.829  15.299  0.00  0.00    +0.111 A 
ENDBRANCH   4   3
ENDBRANCH  10   9
BRANCH  12  13
ATOM     13  N   UNL     1      16.444   4.017   3.857  0.00  0.00    -0.281 N 
ATOM     14  C   UNL     1      15.876   3.087   3.001  0.00  0.00    +0.248 C 
ATOM     30  O   UNL     1      16.327   1.969   2.798  0.00  0.00    -0.270 OA
ATOM     31  H   UNL     1      16.084   4.968   3.787  0.00  0.00    +0.155 HD
BRANCH  14  15
ATOM     15  C   UNL     1      14.637   3.457   2.252  0.00  0.00    +0.037 A 
ATOM     16  C   UNL     1      13.498   4.081   2.929  0.00  0.00    +0.013 A 
ATOM     17  C   UNL     1      12.308   4.412   2.186  0.00  0.00    +0.005 A 
ATOM     18  C   UNL     1      12.252   4.120   0.756  0.00  0.00    -0.033 A 
ATOM     28  C   UNL     1      13.398   3.505   0.109  0.00  0.00    +0.005 A 
ATOM     29  C   UNL     1      14.566   3.178   0.834  0.00  0.00    +0.013 A 
BRANCH  18  19
ATOM     19  C   UNL     1      11.015   4.420  -0.111  0.00  0.00    +0.119 C 
BRANCH  19  20
ATOM     20  N   UNL     1      10.422   3.281  -0.873  0.00  0.00    -0.302 NA
ATOM     21  C   UNL     1       9.214   3.715  -1.708  0.00  0.00    +0.066 C 
ATOM     22  C   UNL     1       8.620   2.516  -2.516  0.00  0.00    -0.064 C 
ATOM     23  N   UNL     1       8.235   1.394  -1.550  0.00  0.00    +0.379 N 
ATOM     24  C   UNL     1       7.622   0.289  -2.301  0.00  0.00    -0.096 C 
ATOM     25  H   UNL     1       7.464   1.798  -0.854  0.00  0.00    -0.082 HD
ATOM     26  C   UNL     1       9.429   0.958  -0.714  0.00  0.00    -0.064 C 
ATOM     27  C   UNL     1      10.030   2.163   0.062  0.00  0.00    +0.066 C 
ENDBRANCH  19  20
ENDBRANCH  18  19
ENDBRANCH  14  15
ENDBRANCH  12  13
TORSDOF 6
ENDMDL
MODEL 5
REMARK VINA RESULT:      -6.9      6.487      9.560
REMARK  Name = C:\Users\Docking\Desktop\test protocol\1iep_ligandH.pdb
REMARK  8 active torsions:
REMARK  status: ('A' for Active; 'I' for Inactive)
REMARK    1  A    between atoms: _5  and  _11
REMARK    2  A    between atoms: _19  and  _21
REMARK    3  A    between atoms: _22  and  _66
REMARK    4  A    between atoms: _27  and  _30
REMARK    5  A    between atoms: _32  and  _33
REMARK    6  A    between atoms: _38  and  _43
REMARK    7  A    between atoms: _43  and  _46
REMARK    8  A    between atoms: _53  and  _55
REMARK                            x       y       z     vdW  Elec       q    Type
REMARK                         _______ _______ _______ _____ _____    ______ ____
ROOT
ATOM     10  C   UNL     1      25.299   5.498   7.476  0.00  0.00    +0.038 A 
ATOM     11  C   UNL     1      23.918   5.248   7.271  0.00  0.00    +0.047 A 
ATOM     12  C   UNL     1      23.468   4.260   6.303  0.00  0.00    +0.035 A 
ATOM     32  C   UNL     1      24.453   3.543   5.562  0.00  0.00    +0.024 A 
ATOM     33  C   UNL     1      25.860   3.785   5.757  0.00  0.00    +0.007 A 
ATOM     34  C   UNL     1      26.310   4.760   6.709  0.00  0.00    -0.029 A 
ATOM     35  C   UNL     1      27.832   4.983   6.872  0.00  0.00    +0.045 C 
ENDROOT
BRANCH  10   9
ATOM      4  C   UNL     1      26.226  10.027   8.768  0.00  0.00    +0.077 A 
ATOM      5  C   UNL     1      25.965  10.520   7.447  0.00  0.00    +0.048 A 
ATOM      6  C   UNL     1      25.602   9.574   6.461  0.00  0.00    +0.116 A 
ATOM      7  N   UNL     1      25.510   8.238   6.785  0.00  0.00    -0.223 NA
ATOM      8  C   UNL     1      25.770   7.796   8.069  0.00  0.00    +0.220 A 
ATOM      9  N   UNL     1      25.675   6.457   8.419  0.00  0.00    -0.283 N 
ATOM     36  H   UNL     1      25.882   6.170   9.376  0.00  0.00    +0.155 HD
ATOM     37  N   UNL     1      26.119   8.678   9.028  0.00  0.00    -0.214 NA
BRANCH   4   3
ATOM      1  C   UNL     1      26.528  11.574  12.348  0.00  0.00    +0.020 A 
ATOM      2  C   UNL     1      26.119  10.700  11.273  0.00  0.00    +0.013 A 
ATOM      3  C   UNL     1      26.617  10.902   9.918  0.00  0.00    +0.019 A 
ATOM     38  C   UNL     1      27.535  12.006   9.683  0.00  0.00    +0.120 A 
ATOM     39  N   UNL     1      27.910  12.833  10.738  0.00  0.00    -0.263 NA
ATOM     40  C   UNL     1      27.436  12.649  12.046  0.00  0.00    +0.111 A 
ENDBRANCH   4   3
ENDBRANCH  10   9
BRANCH  12  13
ATOM     13  N   UNL     1      22.080   3.969   6.045  0.00  0.00    -0.281 N 
ATOM     14  C   UNL     1      21.124   3.517   6.941  0.00  0.00    +0.248 C 
ATOM     30  O   UNL     1      21.372   3.088   8.058  0.00  0.00    -0.270 OA
ATOM     31  H   UNL     1      21.763   4.114   5.087  0.00  0.00    +0.155 HD
BRANCH  14  15
ATOM     15  C   UNL     1      19.687   3.529   6.531  0.00  0.00    +0.037 A 
ATOM     16  C   UNL     1      19.299   3.695   5.128  0.00  0.00    +0.013 A 
ATOM     17  C   UNL     1      17.905   3.720   4.762  0.00  0.00    +0.005 A 
ATOM     18  C   UNL     1      16.888   3.578   5.801  0.00  0.00    -0.033 A 
ATOM     28  C   UNL     1      17.302   3.410   7.185  0.00  0.00    +0.005 A 
ATOM     29  C   UNL     1      18.667   3.386   7.548  0.00  0.00    +0.013 A 
BRANCH  18  19
ATOM     19  C   UNL     1      15.377   3.615   5.505  0.00  0.00    +0.119 C 
BRANCH  19  20
ATOM     20  N   UNL     1      14.943   3.252   4.123  0.00  0.00    -0.302 NA
ATOM     21  C   UNL     1      13.762   4.104   3.649  0.00  0.00    +0.066 C 
ATOM     22  C   UNL     1      13.335   3.726   2.193  0.00  0.00    -0.064 C 
ATOM     23  N   UNL     1      12.986   2.237   2.138  0.00  0.00    +0.379 N 
ATOM     24  C   UNL     1      12.528   1.891   0.784  0.00  0.00    -0.096 C 
ATOM     25  H   UNL     1      12.135   2.063   2.837  0.00  0.00    -0.082 HD
ATOM     26  C   UNL     1      14.154   1.383   2.609  0.00  0.00    -0.064 C 
ATOM     27  C   UNL     1      14.589   1.787   4.046  0.00  0.00    +0.066 C 
ENDBRANCH  19  20
ENDBRANCH  18  19
ENDBRANCH  14  15
ENDBRANCH  12  13
TORSDOF 6
ENDMDL
