MODEL 1
REMARK VINA RESULT:      -9.1      0.000      0.000
REMARK  Name = C:\Users\Docking\Desktop\test protocol\1iep_ligandH.pdb
REMARK  8 active torsions:
REMARK  status: ('A' for Active; 'I' for Inactive)
REMARK    1  A    between atoms: _5  and  _11
REMARK    2  A    between atoms: _19  and  _21
REMARK    3  A    between atoms: _22  and  _66
REMARK    4  A    between atoms: _27  and  _30
REMARK    5  A    between atoms: _32  and  _33
REMARK    6  A    between atoms: _38  and  _43
REMARK    7  A    between atoms: _43  and  _46
REMARK    8  A    between atoms: _53  and  _55
REMARK                            x       y       z     vdW  Elec       q    Type
REMARK                         _______ _______ _______ _____ _____    ______ ____
ROOT
ATOM     10  C   UNL     1      28.157  21.080 -13.580  0.00  0.00    +0.038 A 
ATOM     11  C   UNL     1      28.322  21.643 -12.289  0.00  0.00    +0.047 A 
ATOM     12  C   UNL     1      29.004  22.915 -12.104  0.00  0.00    +0.035 A 
ATOM     32  C   UNL     1      29.502  23.588 -13.258  0.00  0.00    +0.024 A 
ATOM     33  C   UNL     1      29.344  23.029 -14.577  0.00  0.00    +0.007 A 
ATOM     34  C   UNL     1      28.674  21.774 -14.765  0.00  0.00    -0.029 A 
ATOM     35  C   UNL     1      28.539  21.219 -16.202  0.00  0.00    +0.045 C 
ENDROOT
BRANCH  10   9
ATOM      4  C   UNL     1      24.172  18.460 -14.119  0.00  0.00    +0.077 A 
ATOM      5  C   UNL     1      23.337  19.626 -14.139  0.00  0.00    +0.048 A 
ATOM      6  C   UNL     1      23.971  20.881 -14.000  0.00  0.00    +0.116 A 
ATOM      7  N   UNL     1      25.339  20.952 -13.854  0.00  0.00    -0.223 NA
ATOM      8  C   UNL     1      26.115  19.808 -13.837  0.00  0.00    +0.220 A 
ATOM      9  N   UNL     1      27.494  19.856 -13.699  0.00  0.00    -0.283 N 
ATOM     36  H   UNL     1      28.030  18.989 -13.684  0.00  0.00    +0.155 HD
ATOM     37  N   UNL     1      25.533  18.597 -13.966  0.00  0.00    -0.214 NA
BRANCH   4   3
ATOM      1  C   UNL     1      22.244  15.115 -13.490  0.00  0.00    +0.020 A 
ATOM      2  C   UNL     1      22.717  16.468 -13.310  0.00  0.00    +0.013 A 
ATOM      3  C   UNL     1      23.650  17.063 -14.258  0.00  0.00    +0.019 A 
ATOM     38  C   UNL     1      24.087  16.256 -15.387  0.00  0.00    +0.120 A 
ATOM     39  N   UNL     1      23.616  14.955 -15.534  0.00  0.00    -0.263 NA
ATOM     40  C   UNL     1      22.719  14.372 -14.627  0.00  0.00    +0.111 A 
ENDBRANCH   4   3
ENDBRANCH  10   9
BRANCH  12  13
ATOM     13  N   UNL     1      29.209  23.532 -10.817  0.00  0.00    -0.281 N 
ATOM     14  C   UNL     1      29.818  22.987  -9.699  0.00  0.00    +0.248 C 
ATOM     30  O   UNL     1      30.091  21.803  -9.569  0.00  0.00    -0.270 OA
ATOM     31  H   UNL     1      28.863  24.486 -10.719  0.00  0.00    +0.155 HD
BRANCH  14  15
ATOM     15  C   UNL     1      30.161  23.884  -8.554  0.00  0.00    +0.037 A 
ATOM     16  C   UNL     1      30.021  23.434  -7.167  0.00  0.00    +0.013 A 
ATOM     17  C   UNL     1      30.342  24.325  -6.081  0.00  0.00    +0.005 A 
ATOM     18  C   UNL     1      30.810  25.677  -6.378  0.00  0.00    -0.033 A 
ATOM     28  C   UNL     1      30.945  26.096  -7.764  0.00  0.00    +0.005 A 
ATOM     29  C   UNL     1      30.630  25.225  -8.831  0.00  0.00    +0.013 A 
BRANCH  18  19
ATOM     19  C   UNL     1      31.156  26.703  -5.283  0.00  0.00    +0.119 C 
BRANCH  19  20
ATOM     20  N   UNL     1      31.462  26.171  -3.921  0.00  0.00    -0.302 NA
ATOM     21  C   UNL     1      31.168  27.199  -2.824  0.00  0.00    +0.066 C 
ATOM     22  C   UNL     1      31.473  26.618  -1.405  0.00  0.00    -0.064 C 
ATOM     23  N   UNL     1      32.932  26.164  -1.345  0.00  0.00    +0.379 N 
ATOM     24  C   UNL     1      33.237  25.672   0.007  0.00  0.00    -0.096 C 
ATOM     25  H   UNL     1      33.572  27.058  -1.532  0.00  0.00    -0.082 HD
ATOM     26  C   UNL     1      33.233  25.145  -2.434  0.00  0.00    -0.064 C 
ATOM     27  C   UNL     1      32.900  25.721  -3.838  0.00  0.00    +0.066 C 
ENDBRANCH  19  20
ENDBRANCH  18  19
ENDBRANCH  14  15
ENDBRANCH  12  13
TORSDOF 6
ENDMDL
MODEL 2
REMARK VINA RESULT:      -9.1     29.746     33.075
REMARK  Name = C:\Users\Docking\Desktop\test protocol\1iep_ligandH.pdb
REMARK  8 active torsions:
REMARK  status: ('A' for Active; 'I' for Inactive)
REMARK    1  A    between atoms: _5  and  _11
REMARK    2  A    between atoms: _19  and  _21
REMARK    3  A    between atoms: _22  and  _66
REMARK    4  A    between atoms: _27  and  _30
REMARK    5  A    between atoms: _32  and  _33
REMARK    6  A    between atoms: _38  and  _43
REMARK    7  A    between atoms: _43  and  _46
REMARK    8  A    between atoms: _53  and  _55
REMARK                            x       y       z     vdW  Elec       q    Type
REMARK                         _______ _______ _______ _____ _____    ______ ____
ROOT
ATOM     10  C   UNL     1       4.935  33.063   9.785  0.00  0.00    +0.038 A 
ATOM     11  C   UNL     1       5.826  34.150   9.977  0.00  0.00    +0.047 A 
ATOM     12  C   UNL     1       5.482  35.259  10.853  0.00  0.00    +0.035 A 
ATOM     32  C   UNL     1       4.223  35.227  11.521  0.00  0.00    +0.024 A 
ATOM     33  C   UNL     1       3.305  34.131  11.336  0.00  0.00    +0.007 A 
ATOM     34  C   UNL     1       3.638  33.035  10.471  0.00  0.00    -0.029 A 
ATOM     35  C   UNL     1       2.613  31.889  10.306  0.00  0.00    +0.045 C 
ENDROOT
BRANCH  10   9
ATOM      4  C   UNL     1       7.300  28.987   8.873  0.00  0.00    +0.077 A 
ATOM      5  C   UNL     1       7.843  28.936  10.200  0.00  0.00    +0.048 A 
ATOM      6  C   UNL     1       7.495  29.981  11.084  0.00  0.00    +0.116 A 
ATOM      7  N   UNL     1       6.665  30.997  10.662  0.00  0.00    -0.223 NA
ATOM      8  C   UNL     1       6.160  31.017   9.375  0.00  0.00    +0.220 A 
ATOM      9  N   UNL     1       5.317  32.025   8.932  0.00  0.00    -0.283 N 
ATOM     36  H   UNL     1       4.971  32.007   7.973  0.00  0.00    +0.155 HD
ATOM     37  N   UNL     1       6.478  30.031   8.512  0.00  0.00    -0.214 NA
BRANCH   4   3
ATOM      1  C   UNL     1       7.173  26.897   5.569  0.00  0.00    +0.020 A 
ATOM      2  C   UNL     1       6.871  27.916   6.548  0.00  0.00    +0.013 A 
ATOM      3  C   UNL     1       7.572  27.953   7.825  0.00  0.00    +0.019 A 
ATOM     38  C   UNL     1       8.581  26.936   8.083  0.00  0.00    +0.120 A 
ATOM     39  N   UNL     1       8.849  25.966   7.122  0.00  0.00    -0.263 NA
ATOM     40  C   UNL     1       8.180  25.920   5.890  0.00  0.00    +0.111 A 
ENDBRANCH   4   3
ENDBRANCH  10   9
BRANCH  12  13
ATOM     13  N   UNL     1       6.343  36.393  11.080  0.00  0.00    -0.281 N 
ATOM     14  C   UNL     1       6.378  37.589  10.381  0.00  0.00    +0.248 C 
ATOM     30  O   UNL     1       5.818  37.781   9.313  0.00  0.00    -0.270 OA
ATOM     31  H   UNL     1       7.006  36.304  11.850  0.00  0.00    +0.155 HD
BRANCH  14  15
ATOM     15  C   UNL     1       7.162  38.731  10.943  0.00  0.00    +0.037 A 
ATOM     16  C   UNL     1       7.459  38.817  12.375  0.00  0.00    +0.013 A 
ATOM     17  C   UNL     1       8.202  39.938  12.894  0.00  0.00    +0.005 A 
ATOM     18  C   UNL     1       8.655  40.982  11.978  0.00  0.00    -0.033 A 
ATOM     28  C   UNL     1       8.351  40.869  10.561  0.00  0.00    +0.005 A 
ATOM     29  C   UNL     1       7.622  39.772  10.049  0.00  0.00    +0.013 A 
BRANCH  18  19
ATOM     19  C   UNL     1       9.435  42.225  12.446  0.00  0.00    +0.119 C 
BRANCH  19  20
ATOM     20  N   UNL     1       9.436  42.520  13.910  0.00  0.00    -0.302 NA
ATOM     21  C   UNL     1       8.267  43.423  14.314  0.00  0.00    +0.066 C 
ATOM     22  C   UNL     1       8.270  43.704  15.852  0.00  0.00    -0.064 C 
ATOM     23  N   UNL     1       9.605  44.335  16.250  0.00  0.00    +0.379 N 
ATOM     24  C   UNL     1       9.588  44.654  17.685  0.00  0.00    -0.096 C 
ATOM     25  H   UNL     1       9.704  45.295  15.692  0.00  0.00    -0.082 HD
ATOM     26  C   UNL     1      10.773  43.445  15.849  0.00  0.00    -0.064 C 
ATOM     27  C   UNL     1      10.744  43.149  14.324  0.00  0.00    +0.066 C 
ENDBRANCH  19  20
ENDBRANCH  18  19
ENDBRANCH  14  15
ENDBRANCH  12  13
TORSDOF 6
ENDMDL
MODEL 3
REMARK VINA RESULT:      -9.0     28.756     31.537
REMARK  Name = C:\Users\Docking\Desktop\test protocol\1iep_ligandH.pdb
REMARK  8 active torsions:
REMARK  status: ('A' for Active; 'I' for Inactive)
REMARK    1  A    between atoms: _5  and  _11
REMARK    2  A    between atoms: _19  and  _21
REMARK    3  A    between atoms: _22  and  _66
REMARK    4  A    between atoms: _27  and  _30
REMARK    5  A    between atoms: _32  and  _33
REMARK    6  A    between atoms: _38  and  _43
REMARK    7  A    between atoms: _43  and  _46
REMARK    8  A    between atoms: _53  and  _55
REMARK                            x       y       z     vdW  Elec       q    Type
REMARK                         _______ _______ _______ _____ _____    ______ ____
ROOT
ATOM     10  C   UNL     1       5.201  31.983   6.357  0.00  0.00    +0.038 A 
ATOM     11  C   UNL     1       5.739  32.675   7.472  0.00  0.00    +0.047 A 
ATOM     12  C   UNL     1       5.156  33.924   7.936  0.00  0.00    +0.035 A 
ATOM     32  C   UNL     1       4.021  34.438   7.243  0.00  0.00    +0.024 A 
ATOM     33  C   UNL     1       3.461  33.748   6.107  0.00  0.00    +0.007 A 
ATOM     34  C   UNL     1       4.034  32.517   5.644  0.00  0.00    -0.029 A 
ATOM     35  C   UNL     1       3.396  31.823   4.417  0.00  0.00    +0.045 C 
ENDROOT
BRANCH  10   9
ATOM      4  C   UNL     1       7.598  27.929   7.282  0.00  0.00    +0.077 A 
ATOM      5  C   UNL     1       7.685  28.230   8.682  0.00  0.00    +0.048 A 
ATOM      6  C   UNL     1       7.107  29.442   9.122  0.00  0.00    +0.116 A 
ATOM      7  N   UNL     1       6.489  30.282   8.221  0.00  0.00    -0.223 NA
ATOM      8  C   UNL     1       6.424  29.962   6.877  0.00  0.00    +0.220 A 
ATOM      9  N   UNL     1       5.801  30.788   5.955  0.00  0.00    -0.283 N 
ATOM     36  H   UNL     1       5.780  30.520   4.971  0.00  0.00    +0.155 HD
ATOM     37  N   UNL     1       6.970  28.811   6.432  0.00  0.00    -0.214 NA
BRANCH   4   3
ATOM      1  C   UNL     1       8.177  24.874   4.908  0.00  0.00    +0.020 A 
ATOM      2  C   UNL     1       7.598  26.075   5.465  0.00  0.00    +0.013 A 
ATOM      3  C   UNL     1       8.158  26.685   6.664  0.00  0.00    +0.019 A 
ATOM     38  C   UNL     1       9.313  26.050   7.281  0.00  0.00    +0.120 A 
ATOM     39  N   UNL     1       9.848  24.894   6.724  0.00  0.00    -0.263 NA
ATOM     40  C   UNL     1       9.317  24.297   5.570  0.00  0.00    +0.111 A 
ENDBRANCH   4   3
ENDBRANCH  10   9
BRANCH  12  13
ATOM     13  N   UNL     1       5.665  34.676   9.056  0.00  0.00    -0.281 N 
ATOM     14  C   UNL     1       6.440  35.823   9.030  0.00  0.00    +0.248 C 
ATOM     30  O   UNL     1       6.996  36.260   8.033  0.00  0.00    -0.270 OA
ATOM     31  H   UNL     1       5.424  34.318   9.981  0.00  0.00    +0.155 HD
BRANCH  14  15
ATOM     15  C   UNL     1       6.639  36.589  10.298  0.00  0.00    +0.037 A 
ATOM     16  C   UNL     1       6.354  35.986  11.603  0.00  0.00    +0.013 A 
ATOM     17  C   UNL     1       6.538  36.752  12.810  0.00  0.00    +0.005 A 
ATOM     18  C   UNL     1       7.012  38.131  12.717  0.00  0.00    -0.033 A 
ATOM     28  C   UNL     1       7.292  38.703  11.410  0.00  0.00    +0.005 A 
ATOM     29  C   UNL     1       7.112  37.955  10.225  0.00  0.00    +0.013 A 
BRANCH  18  19
ATOM     19  C   UNL     1       7.217  39.030  13.951  0.00  0.00    +0.119 C 
BRANCH  19  20
ATOM     20  N   UNL     1       8.069  40.245  13.778  0.00  0.00    -0.302 NA
ATOM     21  C   UNL     1       9.198  40.306  14.811  0.00  0.00    +0.066 C 
ATOM     22  C   UNL     1      10.092  41.572  14.602  0.00  0.00    -0.064 C 
ATOM     23  N   UNL     1       9.221  42.827  14.676  0.00  0.00    +0.379 N 
ATOM     24  C   UNL     1      10.067  44.021  14.538  0.00  0.00    -0.096 C 
ATOM     25  H   UNL     1       8.757  42.856  15.689  0.00  0.00    -0.082 HD
ATOM     26  C   UNL     1       8.094  42.772  13.654  0.00  0.00    -0.064 C 
ATOM     27  C   UNL     1       7.229  41.496  13.852  0.00  0.00    +0.066 C 
ENDBRANCH  19  20
ENDBRANCH  18  19
ENDBRANCH  14  15
ENDBRANCH  12  13
TORSDOF 6
ENDMDL
MODEL 4
REMARK VINA RESULT:      -8.9     30.013     33.535
REMARK  Name = C:\Users\Docking\Desktop\test protocol\1iep_ligandH.pdb
REMARK  8 active torsions:
REMARK  status: ('A' for Active; 'I' for Inactive)
REMARK    1  A    between atoms: _5  and  _11
REMARK    2  A    between atoms: _19  and  _21
REMARK    3  A    between atoms: _22  and  _66
REMARK    4  A    between atoms: _27  and  _30
REMARK    5  A    between atoms: _32  and  _33
REMARK    6  A    between atoms: _38  and  _43
REMARK    7  A    between atoms: _43  and  _46
REMARK    8  A    between atoms: _53  and  _55
REMARK                            x       y       z     vdW  Elec       q    Type
REMARK                         _______ _______ _______ _____ _____    ______ ____
ROOT
ATOM     10  C   UNL     1       5.898  32.713  12.183  0.00  0.00    +0.038 A 
ATOM     11  C   UNL     1       6.646  33.910  12.055  0.00  0.00    +0.047 A 
ATOM     12  C   UNL     1       6.210  35.142  12.693  0.00  0.00    +0.035 A 
ATOM     32  C   UNL     1       5.007  35.118  13.457  0.00  0.00    +0.024 A 
ATOM     33  C   UNL     1       4.233  33.910  13.597  0.00  0.00    +0.007 A 
ATOM     34  C   UNL     1       4.657  32.692  12.967  0.00  0.00    -0.029 A 
ATOM     35  C   UNL     1       3.784  31.428  13.146  0.00  0.00    +0.045 C 
ENDROOT
BRANCH  10   9
ATOM      4  C   UNL     1       6.445  29.944   8.301  0.00  0.00    +0.077 A 
ATOM      5  C   UNL     1       5.719  30.861   7.471  0.00  0.00    +0.048 A 
ATOM      6  C   UNL     1       5.215  32.031   8.083  0.00  0.00    +0.116 A 
ATOM      7  N   UNL     1       5.428  32.255   9.426  0.00  0.00    -0.223 NA
ATOM      8  C   UNL     1       6.131  31.349  10.198  0.00  0.00    +0.220 A 
ATOM      9  N   UNL     1       6.363  31.558  11.549  0.00  0.00    -0.283 N 
ATOM     36  H   UNL     1       6.880  30.862  12.086  0.00  0.00    +0.155 HD
ATOM     37  N   UNL     1       6.621  30.224   9.637  0.00  0.00    -0.214 NA
BRANCH   4   3
ATOM      1  C   UNL     1       7.343  26.874   6.049  0.00  0.00    +0.020 A 
ATOM      2  C   UNL     1       6.739  28.112   6.485  0.00  0.00    +0.013 A 
ATOM      3  C   UNL     1       7.042  28.665   7.799  0.00  0.00    +0.019 A 
ATOM     38  C   UNL     1       7.967  27.937   8.653  0.00  0.00    +0.120 A 
ATOM     39  N   UNL     1       8.533  26.746   8.207  0.00  0.00    -0.263 NA
ATOM     40  C   UNL     1       8.248  26.203   6.945  0.00  0.00    +0.111 A 
ENDBRANCH   4   3
ENDBRANCH  10   9
BRANCH  12  13
ATOM     13  N   UNL     1       6.925  36.391  12.591  0.00  0.00    -0.281 N 
ATOM     14  C   UNL     1       6.728  37.413  11.677  0.00  0.00    +0.248 C 
ATOM     30  O   UNL     1       6.045  37.316  10.669  0.00  0.00    -0.270 OA
ATOM     31  H   UNL     1       7.666  36.539  13.277  0.00  0.00    +0.155 HD
BRANCH  14  15
ATOM     15  C   UNL     1       7.398  38.728  11.910  0.00  0.00    +0.037 A 
ATOM     16  C   UNL     1       7.541  39.281  13.259  0.00  0.00    +0.013 A 
ATOM     17  C   UNL     1       8.177  40.560  13.454  0.00  0.00    +0.005 A 
ATOM     18  C   UNL     1       8.676  41.295  12.294  0.00  0.00    -0.033 A 
ATOM     28  C   UNL     1       8.526  40.721  10.967  0.00  0.00    +0.005 A 
ATOM     29  C   UNL     1       7.903  39.468  10.773  0.00  0.00    +0.013 A 
BRANCH  18  19
ATOM     19  C   UNL     1       9.349  42.676  12.406  0.00  0.00    +0.119 C 
BRANCH  19  20
ATOM     20  N   UNL     1       9.387  43.310  13.757  0.00  0.00    -0.302 NA
ATOM     21  C   UNL     1       9.062  44.805  13.700  0.00  0.00    +0.066 C 
ATOM     22  C   UNL     1       9.084  45.448  15.125  0.00  0.00    -0.064 C 
ATOM     23  N   UNL     1      10.455  45.217  15.764  0.00  0.00    +0.379 N 
ATOM     24  C   UNL     1      10.499  45.870  17.080  0.00  0.00    -0.096 C 
ATOM     25  H   UNL     1      11.217  45.709  15.116  0.00  0.00    -0.082 HD
ATOM     26  C   UNL     1      10.788  43.733  15.823  0.00  0.00    -0.064 C 
ATOM     27  C   UNL     1      10.733  43.098  14.405  0.00  0.00    +0.066 C 
ENDBRANCH  19  20
ENDBRANCH  18  19
ENDBRANCH  14  15
ENDBRANCH  12  13
TORSDOF 6
ENDMDL
MODEL 5
REMARK VINA RESULT:      -8.9     29.796     33.380
REMARK  Name = C:\Users\Docking\Desktop\test protocol\1iep_ligandH.pdb
REMARK  8 active torsions:
REMARK  status: ('A' for Active; 'I' for Inactive)
REMARK    1  A    between atoms: _5  and  _11
REMARK    2  A    between atoms: _19  and  _21
REMARK    3  A    between atoms: _22  and  _66
REMARK    4  A    between atoms: _27  and  _30
REMARK    5  A    between atoms: _32  and  _33
REMARK    6  A    between atoms: _38  and  _43
REMARK    7  A    between atoms: _43  and  _46
REMARK    8  A    between atoms: _53  and  _55
REMARK                            x       y       z     vdW  Elec       q    Type
REMARK                         _______ _______ _______ _____ _____    ______ ____
ROOT
ATOM     10  C   UNL     1       5.995  36.022   8.938  0.00  0.00    +0.038 A 
ATOM     11  C   UNL     1       6.948  36.739   9.705  0.00  0.00    +0.047 A 
ATOM     12  C   UNL     1       6.587  37.967  10.396  0.00  0.00    +0.035 A 
ATOM     32  C   UNL     1       5.245  38.435  10.287  0.00  0.00    +0.024 A 
ATOM     33  C   UNL     1       4.264  37.718   9.511  0.00  0.00    +0.007 A 
ATOM     34  C   UNL     1       4.614  36.508   8.825  0.00  0.00    -0.029 A 
ATOM     35  C   UNL     1       3.522  35.785   8.002  0.00  0.00    +0.045 C 
ENDROOT
BRANCH  10   9
ATOM      4  C   UNL     1       6.607  31.263   8.810  0.00  0.00    +0.077 A 
ATOM      5  C   UNL     1       6.112  31.104  10.147  0.00  0.00    +0.048 A 
ATOM      6  C   UNL     1       5.717  32.272  10.836  0.00  0.00    +0.116 A 
ATOM      7  N   UNL     1       5.813  33.503  10.223  0.00  0.00    -0.223 NA
ATOM      8  C   UNL     1       6.297  33.622   8.933  0.00  0.00    +0.220 A 
ATOM      9  N   UNL     1       6.395  34.848   8.295  0.00  0.00    -0.283 N 
ATOM     36  H   UNL     1       6.764  34.895   7.346  0.00  0.00    +0.155 HD
ATOM     37  N   UNL     1       6.682  32.521   8.255  0.00  0.00    -0.214 NA
BRANCH   4   3
ATOM      1  C   UNL     1       7.548  27.680   7.553  0.00  0.00    +0.020 A 
ATOM      2  C   UNL     1       7.102  28.744   8.423  0.00  0.00    +0.013 A 
ATOM      3  C   UNL     1       7.061  30.123   7.952  0.00  0.00    +0.019 A 
ATOM     38  C   UNL     1       7.480  30.393   6.585  0.00  0.00    +0.120 A 
ATOM     39  N   UNL     1       7.906  29.348   5.771  0.00  0.00    -0.263 NA
ATOM     40  C   UNL     1       7.952  28.017   6.214  0.00  0.00    +0.111 A 
ENDBRANCH   4   3
ENDBRANCH  10   9
BRANCH  12  13
ATOM     13  N   UNL     1       7.514  38.742  11.183  0.00  0.00    -0.281 N 
ATOM     14  C   UNL     1       8.063  39.978  10.879  0.00  0.00    +0.248 C 
ATOM     30  O   UNL     1       8.005  40.509   9.780  0.00  0.00    -0.270 OA
ATOM     31  H   UNL     1       7.801  38.331  12.071  0.00  0.00    +0.155 HD
BRANCH  14  15
ATOM     15  C   UNL     1       8.796  40.724  11.947  0.00  0.00    +0.037 A 
ATOM     16  C   UNL     1       9.067  40.114  13.251  0.00  0.00    +0.013 A 
ATOM     17  C   UNL     1       9.760  40.863  14.270  0.00  0.00    +0.005 A 
ATOM     18  C   UNL     1      10.189  42.231  13.986  0.00  0.00    -0.033 A 
ATOM     28  C   UNL     1       9.911  42.809  12.682  0.00  0.00    +0.005 A 
ATOM     29  C   UNL     1       9.231  42.079  11.682  0.00  0.00    +0.013 A 
BRANCH  18  19
ATOM     19  C   UNL     1      10.916  43.110  15.021  0.00  0.00    +0.119 C 
BRANCH  19  20
ATOM     20  N   UNL     1      11.164  42.518  16.369  0.00  0.00    -0.302 NA
ATOM     21  C   UNL     1      10.634  43.410  17.495  0.00  0.00    +0.066 C 
ATOM     22  C   UNL     1      10.881  42.764  18.897  0.00  0.00    -0.064 C 
ATOM     23  N   UNL     1      12.377  42.498  19.076  0.00  0.00    +0.379 N 
ATOM     24  C   UNL     1      12.620  41.944  20.416  0.00  0.00    -0.096 C 
ATOM     25  H   UNL     1      12.905  43.478  19.013  0.00  0.00    -0.082 HD
ATOM     26  C   UNL     1      12.913  41.613  17.958  0.00  0.00    -0.064 C 
ATOM     27  C   UNL     1      12.635  42.250  16.568  0.00  0.00    +0.066 C 
ENDBRANCH  19  20
ENDBRANCH  18  19
ENDBRANCH  14  15
ENDBRANCH  12  13
TORSDOF 6
ENDMDL
