MODEL 1
REMARK VINA RESULT:      -8.9      0.000      0.000
REMARK  Name = C:\Users\Docking\Desktop\test protocol\1iep_ligandH.pdb
REMARK  8 active torsions:
REMARK  status: ('A' for Active; 'I' for Inactive)
REMARK    1  A    between atoms: _5  and  _11
REMARK    2  A    between atoms: _19  and  _21
REMARK    3  A    between atoms: _22  and  _66
REMARK    4  A    between atoms: _27  and  _30
REMARK    5  A    between atoms: _32  and  _33
REMARK    6  A    between atoms: _38  and  _43
REMARK    7  A    between atoms: _43  and  _46
REMARK    8  A    between atoms: _53  and  _55
REMARK                            x       y       z     vdW  Elec       q    Type
REMARK                         _______ _______ _______ _____ _____    ______ ____
ROOT
ATOM     10  C   UNL     1      49.602  24.749  36.562  0.00  0.00    +0.038 A 
ATOM     11  C   UNL     1      48.746  25.488  37.419  0.00  0.00    +0.047 A 
ATOM     12  C   UNL     1      49.080  26.842  37.832  0.00  0.00    +0.035 A 
ATOM     32  C   UNL     1      50.294  27.415  37.352  0.00  0.00    +0.024 A 
ATOM     33  C   UNL     1      51.176  26.678  36.482  0.00  0.00    +0.007 A 
ATOM     34  C   UNL     1      50.853  25.341  36.073  0.00  0.00    -0.029 A 
ATOM     35  C   UNL     1      51.840  24.596  35.144  0.00  0.00    +0.045 C 
ENDROOT
BRANCH  10   9
ATOM      4  C   UNL     1      49.408  20.020  37.359  0.00  0.00    +0.077 A 
ATOM      5  C   UNL     1      50.127  20.139  38.594  0.00  0.00    +0.048 A 
ATOM      6  C   UNL     1      50.536  21.434  38.985  0.00  0.00    +0.116 A 
ATOM      7  N   UNL     1      50.241  22.522  38.193  0.00  0.00    -0.223 NA
ATOM      8  C   UNL     1      49.547  22.372  37.006  0.00  0.00    +0.220 A 
ATOM      9  N   UNL     1      49.232  23.453  36.197  0.00  0.00    -0.283 N 
ATOM     36  H   UNL     1      48.725  23.300  35.326  0.00  0.00    +0.155 HD
ATOM     37  N   UNL     1      49.147  21.146  36.610  0.00  0.00    -0.214 NA
BRANCH   4   3
ATOM      1  C   UNL     1      49.225  16.317  36.111  0.00  0.00    +0.020 A 
ATOM      2  C   UNL     1      49.759  17.550  36.643  0.00  0.00    +0.013 A 
ATOM      3  C   UNL     1      48.906  18.720  36.812  0.00  0.00    +0.019 A 
ATOM     38  C   UNL     1      47.506  18.608  36.432  0.00  0.00    +0.120 A 
ATOM     39  N   UNL     1      47.020  17.409  35.921  0.00  0.00    -0.263 NA
ATOM     40  C   UNL     1      47.831  16.277  35.752  0.00  0.00    +0.111 A 
ENDBRANCH   4   3
ENDBRANCH  10   9
BRANCH  12  13
ATOM     13  N   UNL     1      48.253  27.637  38.706  0.00  0.00    -0.281 N 
ATOM     14  C   UNL     1      48.357  27.778  40.080  0.00  0.00    +0.248 C 
ATOM     30  O   UNL     1      49.048  27.071  40.798  0.00  0.00    -0.270 OA
ATOM     31  H   UNL     1      47.500  28.158  38.257  0.00  0.00    +0.155 HD
BRANCH  14  15
ATOM     15  C   UNL     1      47.567  28.852  40.757  0.00  0.00    +0.037 A 
ATOM     16  C   UNL     1      47.362  28.844  42.207  0.00  0.00    +0.013 A 
ATOM     17  C   UNL     1      46.582  29.883  42.833  0.00  0.00    +0.005 A 
ATOM     18  C   UNL     1      46.002  30.939  42.007  0.00  0.00    -0.033 A 
ATOM     28  C   UNL     1      46.226  30.925  40.571  0.00  0.00    +0.005 A 
ATOM     29  C   UNL     1      46.989  29.908  39.954  0.00  0.00    +0.013 A 
BRANCH  18  19
ATOM     19  C   UNL     1      45.138  32.075  42.586  0.00  0.00    +0.119 C 
BRANCH  19  20
ATOM     20  N   UNL     1      45.826  33.361  42.907  0.00  0.00    -0.302 NA
ATOM     21  C   UNL     1      45.471  33.868  44.308  0.00  0.00    +0.066 C 
ATOM     22  C   UNL     1      46.216  35.202  44.636  0.00  0.00    -0.064 C 
ATOM     23  N   UNL     1      45.870  36.250  43.577  0.00  0.00    +0.379 N 
ATOM     24  C   UNL     1      46.523  37.523  43.915  0.00  0.00    -0.096 C 
ATOM     25  H   UNL     1      44.768  36.416  43.613  0.00  0.00    -0.082 HD
ATOM     26  C   UNL     1      46.217  35.753  42.181  0.00  0.00    -0.064 C 
ATOM     27  C   UNL     1      45.494  34.412  41.876  0.00  0.00    +0.066 C 
ENDBRANCH  19  20
ENDBRANCH  18  19
ENDBRANCH  14  15
ENDBRANCH  12  13
TORSDOF 6
ENDMDL
MODEL 2
REMARK VINA RESULT:      -8.8      1.549      2.388
REMARK  Name = C:\Users\Docking\Desktop\test protocol\1iep_ligandH.pdb
REMARK  8 active torsions:
REMARK  status: ('A' for Active; 'I' for Inactive)
REMARK    1  A    between atoms: _5  and  _11
REMARK    2  A    between atoms: _19  and  _21
REMARK    3  A    between atoms: _22  and  _66
REMARK    4  A    between atoms: _27  and  _30
REMARK    5  A    between atoms: _32  and  _33
REMARK    6  A    between atoms: _38  and  _43
REMARK    7  A    between atoms: _43  and  _46
REMARK    8  A    between atoms: _53  and  _55
REMARK                            x       y       z     vdW  Elec       q    Type
REMARK                         _______ _______ _______ _____ _____    ______ ____
ROOT
ATOM     10  C   UNL     1      49.154  26.430  37.482  0.00  0.00    +0.038 A 
ATOM     11  C   UNL     1      48.251  27.278  38.171  0.00  0.00    +0.047 A 
ATOM     12  C   UNL     1      48.664  28.590  38.645  0.00  0.00    +0.035 A 
ATOM     32  C   UNL     1      50.004  29.007  38.397  0.00  0.00    +0.024 A 
ATOM     33  C   UNL     1      50.936  28.157  37.699  0.00  0.00    +0.007 A 
ATOM     34  C   UNL     1      50.535  26.860  37.231  0.00  0.00    -0.029 A 
ATOM     35  C   UNL     1      51.578  25.988  36.494  0.00  0.00    +0.045 C 
ENDROOT
BRANCH  10   9
ATOM      4  C   UNL     1      48.215  21.781  38.219  0.00  0.00    +0.077 A 
ATOM      5  C   UNL     1      48.685  21.840  39.573  0.00  0.00    +0.048 A 
ATOM      6  C   UNL     1      49.167  23.083  40.039  0.00  0.00    +0.116 A 
ATOM      7  N   UNL     1      49.174  24.180  39.204  0.00  0.00    -0.223 NA
ATOM      8  C   UNL     1      48.714  24.088  37.903  0.00  0.00    +0.220 A 
ATOM      9  N   UNL     1      48.704  25.180  37.049  0.00  0.00    -0.283 N 
ATOM     36  H   UNL     1      48.364  25.070  36.094  0.00  0.00    +0.155 HD
ATOM     37  N   UNL     1      48.250  22.911  37.434  0.00  0.00    -0.214 NA
BRANCH   4   3
ATOM      1  C   UNL     1      45.779  19.002  36.934  0.00  0.00    +0.020 A 
ATOM      2  C   UNL     1      46.252  20.215  37.563  0.00  0.00    +0.013 A 
ATOM      3  C   UNL     1      47.672  20.539  37.582  0.00  0.00    +0.019 A 
ATOM     38  C   UNL     1      48.596  19.609  36.951  0.00  0.00    +0.120 A 
ATOM     39  N   UNL     1      48.113  18.448  36.355  0.00  0.00    -0.263 NA
ATOM     40  C   UNL     1      46.748  18.125  36.331  0.00  0.00    +0.111 A 
ENDBRANCH   4   3
ENDBRANCH  10   9
BRANCH  12  13
ATOM     13  N   UNL     1      47.793  29.492  39.358  0.00  0.00    -0.281 N 
ATOM     14  C   UNL     1      47.392  29.419  40.682  0.00  0.00    +0.248 C 
ATOM     30  O   UNL     1      47.551  28.443  41.400  0.00  0.00    -0.270 OA
ATOM     31  H   UNL     1      47.429  30.280  38.822  0.00  0.00    +0.155 HD
BRANCH  14  15
ATOM     15  C   UNL     1      46.700  30.596  41.292  0.00  0.00    +0.037 A 
ATOM     16  C   UNL     1      45.963  30.474  42.552  0.00  0.00    +0.013 A 
ATOM     17  C   UNL     1      45.291  31.621  43.111  0.00  0.00    +0.005 A 
ATOM     18  C   UNL     1      45.355  32.900  42.408  0.00  0.00    -0.033 A 
ATOM     28  C   UNL     1      46.097  32.994  41.162  0.00  0.00    +0.005 A 
ATOM     29  C   UNL     1      46.756  31.872  40.611  0.00  0.00    +0.013 A 
BRANCH  18  19
ATOM     19  C   UNL     1      44.650  34.171  42.919  0.00  0.00    +0.119 C 
BRANCH  19  20
ATOM     20  N   UNL     1      45.504  35.216  43.559  0.00  0.00    -0.302 NA
ATOM     21  C   UNL     1      46.232  36.076  42.523  0.00  0.00    +0.066 C 
ATOM     22  C   UNL     1      47.103  37.179  43.209  0.00  0.00    -0.064 C 
ATOM     23  N   UNL     1      48.101  36.517  44.161  0.00  0.00    +0.379 N 
ATOM     24  C   UNL     1      48.960  37.546  44.764  0.00  0.00    -0.096 C 
ATOM     25  H   UNL     1      48.752  35.846  43.555  0.00  0.00    -0.082 HD
ATOM     26  C   UNL     1      47.385  35.657  45.193  0.00  0.00    -0.064 C 
ATOM     27  C   UNL     1      46.499  34.584  44.501  0.00  0.00    +0.066 C 
ENDBRANCH  19  20
ENDBRANCH  18  19
ENDBRANCH  14  15
ENDBRANCH  12  13
TORSDOF 6
ENDMDL
MODEL 3
REMARK VINA RESULT:      -8.7     12.562     18.440
REMARK  Name = C:\Users\Docking\Desktop\test protocol\1iep_ligandH.pdb
REMARK  8 active torsions:
REMARK  status: ('A' for Active; 'I' for Inactive)
REMARK    1  A    between atoms: _5  and  _11
REMARK    2  A    between atoms: _19  and  _21
REMARK    3  A    between atoms: _22  and  _66
REMARK    4  A    between atoms: _27  and  _30
REMARK    5  A    between atoms: _32  and  _33
REMARK    6  A    between atoms: _38  and  _43
REMARK    7  A    between atoms: _43  and  _46
REMARK    8  A    between atoms: _53  and  _55
REMARK                            x       y       z     vdW  Elec       q    Type
REMARK                         _______ _______ _______ _____ _____    ______ ____
ROOT
ATOM     10  C   UNL     1      58.498  23.129  29.535  0.00  0.00    +0.038 A 
ATOM     11  C   UNL     1      58.516  23.759  28.265  0.00  0.00    +0.047 A 
ATOM     12  C   UNL     1      59.155  23.127  27.121  0.00  0.00    +0.035 A 
ATOM     32  C   UNL     1      59.764  21.852  27.306  0.00  0.00    +0.024 A 
ATOM     33  C   UNL     1      59.756  21.198  28.591  0.00  0.00    +0.007 A 
ATOM     34  C   UNL     1      59.129  21.817  29.723  0.00  0.00    -0.029 A 
ATOM     35  C   UNL     1      59.157  21.072  31.079  0.00  0.00    +0.045 C 
ENDROOT
BRANCH  10   9
ATOM      4  C   UNL     1      54.590  24.340  32.045  0.00  0.00    +0.077 A 
ATOM      5  C   UNL     1      53.722  23.637  31.144  0.00  0.00    +0.048 A 
ATOM      6  C   UNL     1      54.320  22.983  30.044  0.00  0.00    +0.116 A 
ATOM      7  N   UNL     1      55.686  23.034  29.867  0.00  0.00    -0.223 NA
ATOM      8  C   UNL     1      56.494  23.722  30.753  0.00  0.00    +0.220 A 
ATOM      9  N   UNL     1      57.871  23.781  30.599  0.00  0.00    -0.283 N 
ATOM     36  H   UNL     1      58.431  24.305  31.271  0.00  0.00    +0.155 HD
ATOM     37  N   UNL     1      55.947  24.356  31.811  0.00  0.00    -0.214 NA
BRANCH   4   3
ATOM      1  C   UNL     1      53.764  27.184  34.600  0.00  0.00    +0.020 A 
ATOM      2  C   UNL     1      54.247  26.520  33.411  0.00  0.00    +0.013 A 
ATOM      3  C   UNL     1      54.108  25.077  33.255  0.00  0.00    +0.019 A 
ATOM     38  C   UNL     1      53.471  24.330  34.329  0.00  0.00    +0.120 A 
ATOM     39  N   UNL     1      53.017  24.996  35.463  0.00  0.00    -0.263 NA
ATOM     40  C   UNL     1      53.147  26.383  35.625  0.00  0.00    +0.111 A 
ENDBRANCH   4   3
ENDBRANCH  10   9
BRANCH  12  13
ATOM     13  N   UNL     1      59.212  23.723  25.809  0.00  0.00    -0.281 N 
ATOM     14  C   UNL     1      58.229  23.729  24.833  0.00  0.00    +0.248 C 
ATOM     30  O   UNL     1      57.223  23.035  24.861  0.00  0.00    -0.270 OA
ATOM     31  H   UNL     1      60.083  24.197  25.570  0.00  0.00    +0.155 HD
BRANCH  14  15
ATOM     15  C   UNL     1      58.393  24.624  23.648  0.00  0.00    +0.037 A 
ATOM     16  C   UNL     1      59.425  24.369  22.640  0.00  0.00    +0.013 A 
ATOM     17  C   UNL     1      59.573  25.259  21.515  0.00  0.00    +0.005 A 
ATOM     18  C   UNL     1      58.685  26.412  21.392  0.00  0.00    -0.033 A 
ATOM     28  C   UNL     1      57.666  26.638  22.404  0.00  0.00    +0.005 A 
ATOM     29  C   UNL     1      57.519  25.769  23.508  0.00  0.00    +0.013 A 
BRANCH  18  19
ATOM     19  C   UNL     1      58.785  27.425  20.237  0.00  0.00    +0.119 C 
BRANCH  19  20
ATOM     20  N   UNL     1      59.947  28.363  20.248  0.00  0.00    -0.302 NA
ATOM     21  C   UNL     1      60.242  28.895  21.654  0.00  0.00    +0.066 C 
ATOM     22  C   UNL     1      61.475  29.857  21.651  0.00  0.00    -0.064 C 
ATOM     23  N   UNL     1      61.216  31.009  20.679  0.00  0.00    +0.379 N 
ATOM     24  C   UNL     1      62.349  31.946  20.717  0.00  0.00    -0.096 C 
ATOM     25  H   UNL     1      60.313  31.556  21.036  0.00  0.00    -0.082 HD
ATOM     26  C   UNL     1      60.919  30.489  19.280  0.00  0.00    -0.064 C 
ATOM     27  C   UNL     1      59.711  29.512  19.298  0.00  0.00    +0.066 C 
ENDBRANCH  19  20
ENDBRANCH  18  19
ENDBRANCH  14  15
ENDBRANCH  12  13
TORSDOF 6
ENDMDL
MODEL 4
REMARK VINA RESULT:      -8.4     10.675     14.110
REMARK  Name = C:\Users\Docking\Desktop\test protocol\1iep_ligandH.pdb
REMARK  8 active torsions:
REMARK  status: ('A' for Active; 'I' for Inactive)
REMARK    1  A    between atoms: _5  and  _11
REMARK    2  A    between atoms: _19  and  _21
REMARK    3  A    between atoms: _22  and  _66
REMARK    4  A    between atoms: _27  and  _30
REMARK    5  A    between atoms: _32  and  _33
REMARK    6  A    between atoms: _38  and  _43
REMARK    7  A    between atoms: _43  and  _46
REMARK    8  A    between atoms: _53  and  _55
REMARK                            x       y       z     vdW  Elec       q    Type
REMARK                         _______ _______ _______ _____ _____    ______ ____
ROOT
ATOM     10  C   UNL     1      59.234  21.288  28.070  0.00  0.00    +0.038 A 
ATOM     11  C   UNL     1      58.381  22.200  28.743  0.00  0.00    +0.047 A 
ATOM     12  C   UNL     1      58.420  22.340  30.190  0.00  0.00    +0.035 A 
ATOM     32  C   UNL     1      59.344  21.537  30.922  0.00  0.00    +0.024 A 
ATOM     33  C   UNL     1      60.217  20.604  30.254  0.00  0.00    +0.007 A 
ATOM     34  C   UNL     1      60.181  20.460  28.827  0.00  0.00    -0.029 A 
ATOM     35  C   UNL     1      61.136  19.439  28.165  0.00  0.00    +0.045 C 
ENDROOT
BRANCH  10   9
ATOM      4  C   UNL     1      57.338  19.470  24.053  0.00  0.00    +0.077 A 
ATOM      5  C   UNL     1      56.451  18.615  24.788  0.00  0.00    +0.048 A 
ATOM      6  C   UNL     1      56.519  18.668  26.198  0.00  0.00    +0.116 A 
ATOM      7  N   UNL     1      57.411  19.517  26.817  0.00  0.00    -0.223 NA
ATOM      8  C   UNL     1      58.254  20.327  26.078  0.00  0.00    +0.220 A 
ATOM      9  N   UNL     1      59.154  21.194  26.679  0.00  0.00    -0.283 N 
ATOM     36  H   UNL     1      59.764  21.770  26.099  0.00  0.00    +0.155 HD
ATOM     37  N   UNL     1      58.210  20.294  24.730  0.00  0.00    -0.214 NA
BRANCH   4   3
ATOM      1  C   UNL     1      56.793  18.656  20.266  0.00  0.00    +0.020 A 
ATOM      2  C   UNL     1      56.719  18.552  21.705  0.00  0.00    +0.013 A 
ATOM      3  C   UNL     1      57.383  19.530  22.557  0.00  0.00    +0.019 A 
ATOM     38  C   UNL     1      58.119  20.610  21.917  0.00  0.00    +0.120 A 
ATOM     39  N   UNL     1      58.174  20.684  20.529  0.00  0.00    -0.263 NA
ATOM     40  C   UNL     1      57.540  19.748  19.698  0.00  0.00    +0.111 A 
ENDBRANCH   4   3
ENDBRANCH  10   9
BRANCH  12  13
ATOM     13  N   UNL     1      57.573  23.243  30.928  0.00  0.00    -0.281 N 
ATOM     14  C   UNL     1      56.190  23.238  31.011  0.00  0.00    +0.248 C 
ATOM     30  O   UNL     1      55.457  22.582  30.286  0.00  0.00    -0.270 OA
ATOM     31  H   UNL     1      58.051  23.975  31.454  0.00  0.00    +0.155 HD
BRANCH  14  15
ATOM     15  C   UNL     1      55.525  24.097  32.037  0.00  0.00    +0.037 A 
ATOM     16  C   UNL     1      54.116  23.905  32.391  0.00  0.00    +0.013 A 
ATOM     17  C   UNL     1      53.494  24.759  33.372  0.00  0.00    +0.005 A 
ATOM     18  C   UNL     1      54.282  25.812  34.007  0.00  0.00    -0.033 A 
ATOM     28  C   UNL     1      55.679  25.978  33.640  0.00  0.00    +0.005 A 
ATOM     29  C   UNL     1      56.292  25.143  32.679  0.00  0.00    +0.013 A 
BRANCH  18  19
ATOM     19  C   UNL     1      53.695  26.783  35.048  0.00  0.00    +0.119 C 
BRANCH  19  20
ATOM     20  N   UNL     1      54.633  27.762  35.676  0.00  0.00    -0.302 NA
ATOM     21  C   UNL     1      54.285  28.032  37.142  0.00  0.00    +0.066 C 
ATOM     22  C   UNL     1      55.289  29.041  37.789  0.00  0.00    -0.064 C 
ATOM     23  N   UNL     1      55.290  30.342  36.985  0.00  0.00    +0.379 N 
ATOM     24  C   UNL     1      56.190  31.313  37.624  0.00  0.00    -0.096 C 
ATOM     25  H   UNL     1      54.258  30.762  37.020  0.00  0.00    -0.082 HD
ATOM     26  C   UNL     1      55.633  30.082  35.525  0.00  0.00    -0.064 C 
ATOM     27  C   UNL     1      54.647  29.056  34.899  0.00  0.00    +0.066 C 
ENDBRANCH  19  20
ENDBRANCH  18  19
ENDBRANCH  14  15
ENDBRANCH  12  13
TORSDOF 6
ENDMDL
MODEL 5
REMARK VINA RESULT:      -8.4      7.665     14.743
REMARK  Name = C:\Users\Docking\Desktop\test protocol\1iep_ligandH.pdb
REMARK  8 active torsions:
REMARK  status: ('A' for Active; 'I' for Inactive)
REMARK    1  A    between atoms: _5  and  _11
REMARK    2  A    between atoms: _19  and  _21
REMARK    3  A    between atoms: _22  and  _66
REMARK    4  A    between atoms: _27  and  _30
REMARK    5  A    between atoms: _32  and  _33
REMARK    6  A    between atoms: _38  and  _43
REMARK    7  A    between atoms: _43  and  _46
REMARK    8  A    between atoms: _53  and  _55
REMARK                            x       y       z     vdW  Elec       q    Type
REMARK                         _______ _______ _______ _____ _____    ______ ____
ROOT
ATOM     10  C   UNL     1      52.349  24.809  34.348  0.00  0.00    +0.038 A 
ATOM     11  C   UNL     1      53.279  24.420  33.351  0.00  0.00    +0.047 A 
ATOM     12  C   UNL     1      54.389  25.282  32.978  0.00  0.00    +0.035 A 
ATOM     32  C   UNL     1      54.524  26.535  33.645  0.00  0.00    +0.024 A 
ATOM     33  C   UNL     1      53.588  26.947  34.661  0.00  0.00    +0.007 A 
ATOM     34  C   UNL     1      52.489  26.102  35.030  0.00  0.00    -0.029 A 
ATOM     35  C   UNL     1      51.512  26.598  36.121  0.00  0.00    +0.045 C 
ENDROOT
BRANCH  10   9
ATOM      4  C   UNL     1      50.243  21.588  37.216  0.00  0.00    +0.077 A 
ATOM      5  C   UNL     1      51.335  21.615  38.147  0.00  0.00    +0.048 A 
ATOM      6  C   UNL     1      52.422  22.467  37.847  0.00  0.00    +0.116 A 
ATOM      7  N   UNL     1      52.408  23.229  36.699  0.00  0.00    -0.223 NA
ATOM      8  C   UNL     1      51.340  23.178  35.822  0.00  0.00    +0.220 A 
ATOM      9  N   UNL     1      51.301  23.942  34.666  0.00  0.00    -0.283 N 
ATOM     36  H   UNL     1      50.499  23.870  34.041  0.00  0.00    +0.155 HD
ATOM     37  N   UNL     1      50.291  22.372  36.085  0.00  0.00    -0.214 NA
BRANCH   4   3
ATOM      1  C   UNL     1      47.788  18.543  37.289  0.00  0.00    +0.020 A 
ATOM      2  C   UNL     1      48.995  19.315  37.099  0.00  0.00    +0.013 A 
ATOM      3  C   UNL     1      49.021  20.742  37.396  0.00  0.00    +0.019 A 
ATOM     38  C   UNL     1      47.801  21.362  37.889  0.00  0.00    +0.120 A 
ATOM     39  N   UNL     1      46.653  20.594  38.062  0.00  0.00    -0.263 NA
ATOM     40  C   UNL     1      46.616  19.220  37.777  0.00  0.00    +0.111 A 
ENDBRANCH   4   3
ENDBRANCH  10   9
BRANCH  12  13
ATOM     13  N   UNL     1      55.360  24.943  31.967  0.00  0.00    -0.281 N 
ATOM     14  C   UNL     1      56.380  24.009  32.045  0.00  0.00    +0.248 C 
ATOM     30  O   UNL     1      56.747  23.472  33.079  0.00  0.00    -0.270 OA
ATOM     31  H   UNL     1      55.285  25.454  31.087  0.00  0.00    +0.155 HD
BRANCH  14  15
ATOM     15  C   UNL     1      57.106  23.628  30.796  0.00  0.00    +0.037 A 
ATOM     16  C   UNL     1      58.006  22.472  30.763  0.00  0.00    +0.013 A 
ATOM     17  C   UNL     1      58.708  22.136  29.550  0.00  0.00    +0.005 A 
ATOM     18  C   UNL     1      58.511  22.958  28.358  0.00  0.00    -0.033 A 
ATOM     28  C   UNL     1      57.609  24.096  28.417  0.00  0.00    +0.005 A 
ATOM     29  C   UNL     1      56.920  24.429  29.605  0.00  0.00    +0.013 A 
BRANCH  18  19
ATOM     19  C   UNL     1      59.235  22.686  27.026  0.00  0.00    +0.119 C 
BRANCH  19  20
ATOM     20  N   UNL     1      58.456  21.999  25.952  0.00  0.00    -0.302 NA
ATOM     21  C   UNL     1      58.640  20.479  25.993  0.00  0.00    +0.066 C 
ATOM     22  C   UNL     1      57.801  19.775  24.877  0.00  0.00    -0.064 C 
ATOM     23  N   UNL     1      58.203  20.333  23.511  0.00  0.00    +0.379 N 
ATOM     24  C   UNL     1      57.458  19.632  22.455  0.00  0.00    -0.096 C 
ATOM     25  H   UNL     1      59.286  20.114  23.363  0.00  0.00    -0.082 HD
ATOM     26  C   UNL     1      58.027  21.844  23.463  0.00  0.00    -0.064 C 
ATOM     27  C   UNL     1      58.841  22.532  24.594  0.00  0.00    +0.066 C 
ENDBRANCH  19  20
ENDBRANCH  18  19
ENDBRANCH  14  15
ENDBRANCH  12  13
TORSDOF 6
ENDMDL
