MODEL 1
REMARK VINA RESULT:      -8.7      0.000      0.000
REMARK  Name = C:\Users\Docking\Desktop\test protocol\1iep_ligandH.pdb
REMARK  8 active torsions:
REMARK  status: ('A' for Active; 'I' for Inactive)
REMARK    1  A    between atoms: _5  and  _11
REMARK    2  A    between atoms: _19  and  _21
REMARK    3  A    between atoms: _22  and  _66
REMARK    4  A    between atoms: _27  and  _30
REMARK    5  A    between atoms: _32  and  _33
REMARK    6  A    between atoms: _38  and  _43
REMARK    7  A    between atoms: _43  and  _46
REMARK    8  A    between atoms: _53  and  _55
REMARK                            x       y       z     vdW  Elec       q    Type
REMARK                         _______ _______ _______ _____ _____    ______ ____
ROOT
ATOM     10  C   UNL     1      10.385  -8.861  -2.804  0.00  0.00    +0.038 A 
ATOM     11  C   UNL     1      10.307  -9.948  -3.712  0.00  0.00    +0.047 A 
ATOM     12  C   UNL     1      11.491 -10.443  -4.397  0.00  0.00    +0.035 A 
ATOM     32  C   UNL     1      12.740  -9.808  -4.133  0.00  0.00    +0.024 A 
ATOM     33  C   UNL     1      12.837  -8.701  -3.214  0.00  0.00    +0.007 A 
ATOM     34  C   UNL     1      11.672  -8.207  -2.537  0.00  0.00    -0.029 A 
ATOM     35  C   UNL     1      11.834  -7.013  -1.567  0.00  0.00    +0.045 C 
ENDROOT
BRANCH  10   9
ATOM      4  C   UNL     1       7.025  -9.237   0.602  0.00  0.00    +0.077 A 
ATOM      5  C   UNL     1       7.633 -10.412   1.156  0.00  0.00    +0.048 A 
ATOM      6  C   UNL     1       8.806 -10.892   0.530  0.00  0.00    +0.116 A 
ATOM      7  N   UNL     1       9.323 -10.237  -0.566  0.00  0.00    -0.223 NA
ATOM      8  C   UNL     1       8.710  -9.107  -1.076  0.00  0.00    +0.220 A 
ATOM      9  N   UNL     1       9.217  -8.428  -2.173  0.00  0.00    -0.283 N 
ATOM     36  H   UNL     1       8.732  -7.602  -2.524  0.00  0.00    +0.155 HD
ATOM     37  N   UNL     1       7.589  -8.630  -0.498  0.00  0.00    -0.214 NA
BRANCH   4   3
ATOM      1  C   UNL     1       4.535  -6.700   2.235  0.00  0.00    +0.020 A 
ATOM      2  C   UNL     1       5.761  -7.262   1.716  0.00  0.00    +0.013 A 
ATOM      3  C   UNL     1       5.784  -8.607   1.154  0.00  0.00    +0.019 A 
ATOM     38  C   UNL     1       4.540  -9.361   1.131  0.00  0.00    +0.120 A 
ATOM     39  N   UNL     1       3.375  -8.795   1.639  0.00  0.00    -0.263 NA
ATOM     40  C   UNL     1       3.341  -7.503   2.185  0.00  0.00    +0.111 A 
ENDBRANCH   4   3
ENDBRANCH  10   9
BRANCH  12  13
ATOM     13  N   UNL     1      11.472 -11.538  -5.335  0.00  0.00    -0.281 N 
ATOM     14  C   UNL     1      10.974 -11.543  -6.628  0.00  0.00    +0.248 C 
ATOM     30  O   UNL     1      10.273 -10.661  -7.102  0.00  0.00    -0.270 OA
ATOM     31  H   UNL     1      11.874 -12.416  -5.006  0.00  0.00    +0.155 HD
BRANCH  14  15
ATOM     15  C   UNL     1      11.289 -12.701  -7.518  0.00  0.00    +0.037 A 
ATOM     16  C   UNL     1      10.835 -14.056  -7.192  0.00  0.00    +0.013 A 
ATOM     17  C   UNL     1      11.167 -15.158  -8.059  0.00  0.00    +0.005 A 
ATOM     18  C   UNL     1      11.957 -14.910  -9.263  0.00  0.00    -0.033 A 
ATOM     28  C   UNL     1      12.390 -13.556  -9.565  0.00  0.00    +0.005 A 
ATOM     29  C   UNL     1      12.067 -12.473  -8.717  0.00  0.00    +0.013 A 
BRANCH  18  19
ATOM     19  C   UNL     1      12.376 -16.029 -10.234  0.00  0.00    +0.119 C 
BRANCH  19  20
ATOM     20  N   UNL     1      13.467 -16.947  -9.791  0.00  0.00    -0.302 NA
ATOM     21  C   UNL     1      12.993 -18.400  -9.695  0.00  0.00    +0.066 C 
ATOM     22  C   UNL     1      14.153 -19.349  -9.252  0.00  0.00    -0.064 C 
ATOM     23  N   UNL     1      14.713 -18.873  -7.910  0.00  0.00    +0.379 N 
ATOM     24  C   UNL     1      15.765 -19.797  -7.462  0.00  0.00    -0.096 C 
ATOM     25  H   UNL     1      13.886 -18.915  -7.164  0.00  0.00    -0.082 HD
ATOM     26  C   UNL     1      15.185 -17.428  -7.996  0.00  0.00    -0.064 C 
ATOM     27  C   UNL     1      14.032 -16.498  -8.466  0.00  0.00    +0.066 C 
ENDBRANCH  19  20
ENDBRANCH  18  19
ENDBRANCH  14  15
ENDBRANCH  12  13
TORSDOF 6
ENDMDL
MODEL 2
REMARK VINA RESULT:      -8.4      2.165     12.847
REMARK  Name = C:\Users\Docking\Desktop\test protocol\1iep_ligandH.pdb
REMARK  8 active torsions:
REMARK  status: ('A' for Active; 'I' for Inactive)
REMARK    1  A    between atoms: _5  and  _11
REMARK    2  A    between atoms: _19  and  _21
REMARK    3  A    between atoms: _22  and  _66
REMARK    4  A    between atoms: _27  and  _30
REMARK    5  A    between atoms: _32  and  _33
REMARK    6  A    between atoms: _38  and  _43
REMARK    7  A    between atoms: _43  and  _46
REMARK    8  A    between atoms: _53  and  _55
REMARK                            x       y       z     vdW  Elec       q    Type
REMARK                         _______ _______ _______ _____ _____    ______ ____
ROOT
ATOM     10  C   UNL     1      11.100 -10.474  -5.533  0.00  0.00    +0.038 A 
ATOM     11  C   UNL     1       9.989 -10.585  -4.658  0.00  0.00    +0.047 A 
ATOM     12  C   UNL     1       9.635  -9.503  -3.752  0.00  0.00    +0.035 A 
ATOM     32  C   UNL     1      10.432  -8.322  -3.765  0.00  0.00    +0.024 A 
ATOM     33  C   UNL     1      11.566  -8.193  -4.647  0.00  0.00    +0.007 A 
ATOM     34  C   UNL     1      11.922  -9.258  -5.541  0.00  0.00    -0.029 A 
ATOM     35  C   UNL     1      13.151  -9.068  -6.460  0.00  0.00    +0.045 C 
ENDROOT
BRANCH  10   9
ATOM      4  C   UNL     1      13.037 -14.779  -6.402  0.00  0.00    +0.077 A 
ATOM      5  C   UNL     1      13.526 -14.896  -5.058  0.00  0.00    +0.048 A 
ATOM      6  C   UNL     1      13.264 -13.824  -4.177  0.00  0.00    +0.116 A 
ATOM      7  N   UNL     1      12.564 -12.721  -4.617  0.00  0.00    -0.223 NA
ATOM      8  C   UNL     1      12.108 -12.639  -5.920  0.00  0.00    +0.220 A 
ATOM      9  N   UNL     1      11.396 -11.544  -6.382  0.00  0.00    -0.283 N 
ATOM     36  H   UNL     1      11.083 -11.518  -7.352  0.00  0.00    +0.155 HD
ATOM     37  N   UNL     1      12.347 -13.650  -6.781  0.00  0.00    -0.214 NA
BRANCH   4   3
ATOM      1  C   UNL     1      14.624 -17.552  -8.659  0.00  0.00    +0.020 A 
ATOM      2  C   UNL     1      14.489 -16.545  -7.632  0.00  0.00    +0.013 A 
ATOM      3  C   UNL     1      13.232 -15.830  -7.450  0.00  0.00    +0.019 A 
ATOM     38  C   UNL     1      12.121 -16.162  -8.330  0.00  0.00    +0.120 A 
ATOM     39  N   UNL     1      12.281 -17.135  -9.312  0.00  0.00    -0.263 NA
ATOM     40  C   UNL     1      13.487 -17.828  -9.497  0.00  0.00    +0.111 A 
ENDBRANCH   4   3
ENDBRANCH  10   9
BRANCH  12  13
ATOM     13  N   UNL     1       8.523  -9.562  -2.836  0.00  0.00    -0.281 N 
ATOM     14  C   UNL     1       8.522 -10.010  -1.525  0.00  0.00    +0.248 C 
ATOM     30  O   UNL     1       9.437 -10.633  -1.007  0.00  0.00    -0.270 OA
ATOM     31  H   UNL     1       7.628  -9.232  -3.197  0.00  0.00    +0.155 HD
BRANCH  14  15
ATOM     15  C   UNL     1       7.326  -9.741  -0.671  0.00  0.00    +0.037 A 
ATOM     16  C   UNL     1       7.150 -10.407   0.623  0.00  0.00    +0.013 A 
ATOM     17  C   UNL     1       5.978 -10.143   1.419  0.00  0.00    +0.005 A 
ATOM     18  C   UNL     1       4.973  -9.206   0.924  0.00  0.00    -0.033 A 
ATOM     28  C   UNL     1       5.174  -8.555  -0.360  0.00  0.00    +0.005 A 
ATOM     29  C   UNL     1       6.321  -8.813  -1.144  0.00  0.00    +0.013 A 
BRANCH  18  19
ATOM     19  C   UNL     1       3.681  -8.880   1.698  0.00  0.00    +0.119 C 
BRANCH  19  20
ATOM     20  N   UNL     1       3.760  -7.815   2.742  0.00  0.00    -0.302 NA
ATOM     21  C   UNL     1       2.425  -7.087   2.922  0.00  0.00    +0.066 C 
ATOM     22  C   UNL     1       2.519  -5.992   4.034  0.00  0.00    -0.064 C 
ATOM     23  N   UNL     1       3.631  -5.003   3.679  0.00  0.00    +0.379 N 
ATOM     24  C   UNL     1       3.683  -3.940   4.693  0.00  0.00    -0.096 C 
ATOM     25  H   UNL     1       3.364  -4.530   2.705  0.00  0.00    -0.082 HD
ATOM     26  C   UNL     1       4.961  -5.719   3.495  0.00  0.00    -0.064 C 
ATOM     27  C   UNL     1       4.849  -6.825   2.409  0.00  0.00    +0.066 C 
ENDBRANCH  19  20
ENDBRANCH  18  19
ENDBRANCH  14  15
ENDBRANCH  12  13
TORSDOF 6
ENDMDL
MODEL 3
REMARK VINA RESULT:      -8.4      4.998     11.764
REMARK  Name = C:\Users\Docking\Desktop\test protocol\1iep_ligandH.pdb
REMARK  8 active torsions:
REMARK  status: ('A' for Active; 'I' for Inactive)
REMARK    1  A    between atoms: _5  and  _11
REMARK    2  A    between atoms: _19  and  _21
REMARK    3  A    between atoms: _22  and  _66
REMARK    4  A    between atoms: _27  and  _30
REMARK    5  A    between atoms: _32  and  _33
REMARK    6  A    between atoms: _38  and  _43
REMARK    7  A    between atoms: _43  and  _46
REMARK    8  A    between atoms: _53  and  _55
REMARK                            x       y       z     vdW  Elec       q    Type
REMARK                         _______ _______ _______ _____ _____    ______ ____
ROOT
ATOM     10  C   UNL     1      11.475 -11.178  -7.379  0.00  0.00    +0.038 A 
ATOM     11  C   UNL     1      12.126 -10.241  -6.537  0.00  0.00    +0.047 A 
ATOM     12  C   UNL     1      11.464  -9.014  -6.123  0.00  0.00    +0.035 A 
ATOM     32  C   UNL     1      10.137  -8.774  -6.585  0.00  0.00    +0.024 A 
ATOM     33  C   UNL     1       9.460  -9.715  -7.442  0.00  0.00    +0.007 A 
ATOM     34  C   UNL     1      10.110 -10.927  -7.855  0.00  0.00    -0.029 A 
ATOM     35  C   UNL     1       9.339 -11.897  -8.781  0.00  0.00    +0.045 C 
ENDROOT
BRANCH  10   9
ATOM      4  C   UNL     1      12.752 -15.746  -6.643  0.00  0.00    +0.077 A 
ATOM      5  C   UNL     1      12.018 -15.815  -5.412  0.00  0.00    +0.048 A 
ATOM      6  C   UNL     1      11.332 -14.651  -5.000  0.00  0.00    +0.116 A 
ATOM      7  N   UNL     1      11.382 -13.509  -5.770  0.00  0.00    -0.223 NA
ATOM      8  C   UNL     1      12.100 -13.476  -6.951  0.00  0.00    +0.220 A 
ATOM      9  N   UNL     1      12.158 -12.341  -7.745  0.00  0.00    -0.283 N 
ATOM     36  H   UNL     1      12.705 -12.354  -8.605  0.00  0.00    +0.155 HD
ATOM     37  N   UNL     1      12.766 -14.574  -7.365  0.00  0.00    -0.214 NA
BRANCH   4   3
ATOM      1  C   UNL     1      15.168 -18.800  -7.019  0.00  0.00    +0.020 A 
ATOM      2  C   UNL     1      14.445 -17.702  -6.420  0.00  0.00    +0.013 A 
ATOM      3  C   UNL     1      13.526 -16.894  -7.213  0.00  0.00    +0.019 A 
ATOM     38  C   UNL     1      13.360 -17.228  -8.620  0.00  0.00    +0.120 A 
ATOM     39  N   UNL     1      14.070 -18.290  -9.169  0.00  0.00    -0.263 NA
ATOM     40  C   UNL     1      14.958 -19.073  -8.417  0.00  0.00    +0.111 A 
ENDBRANCH   4   3
ENDBRANCH  10   9
BRANCH  12  13
ATOM     13  N   UNL     1      12.077  -8.021  -5.276  0.00  0.00    -0.281 N 
ATOM     14  C   UNL     1      12.220  -8.048  -3.898  0.00  0.00    +0.248 C 
ATOM     30  O   UNL     1      11.648  -8.836  -3.160  0.00  0.00    -0.270 OA
ATOM     31  H   UNL     1      12.452  -7.199  -5.749  0.00  0.00    +0.155 HD
BRANCH  14  15
ATOM     15  C   UNL     1      13.117  -7.047  -3.246  0.00  0.00    +0.037 A 
ATOM     16  C   UNL     1      13.974  -7.416  -2.116  0.00  0.00    +0.013 A 
ATOM     17  C   UNL     1      14.817  -6.426  -1.494  0.00  0.00    +0.005 A 
ATOM     18  C   UNL     1      14.807  -5.056  -2.001  0.00  0.00    -0.033 A 
ATOM     28  C   UNL     1      13.951  -4.718  -3.126  0.00  0.00    +0.005 A 
ATOM     29  C   UNL     1      13.123  -5.686  -3.738  0.00  0.00    +0.013 A 
BRANCH  18  19
ATOM     19  C   UNL     1      15.658  -3.930  -1.385  0.00  0.00    +0.119 C 
BRANCH  19  20
ATOM     20  N   UNL     1      17.115  -3.916  -1.714  0.00  0.00    -0.302 NA
ATOM     21  C   UNL     1      17.384  -4.373  -3.150  0.00  0.00    +0.066 C 
ATOM     22  C   UNL     1      18.911  -4.330  -3.484  0.00  0.00    -0.064 C 
ATOM     23  N   UNL     1      19.673  -5.204  -2.486  0.00  0.00    +0.379 N 
ATOM     24  C   UNL     1      21.102  -5.212  -2.833  0.00  0.00    -0.096 C 
ATOM     25  H   UNL     1      19.293  -6.246  -2.591  0.00  0.00    -0.082 HD
ATOM     26  C   UNL     1      19.409  -4.758  -1.055  0.00  0.00    -0.064 C 
ATOM     27  C   UNL     1      17.886  -4.775  -0.743  0.00  0.00    +0.066 C 
ENDBRANCH  19  20
ENDBRANCH  18  19
ENDBRANCH  14  15
ENDBRANCH  12  13
TORSDOF 6
ENDMDL
MODEL 4
REMARK VINA RESULT:      -8.4      4.059     12.227
REMARK  Name = C:\Users\Docking\Desktop\test protocol\1iep_ligandH.pdb
REMARK  8 active torsions:
REMARK  status: ('A' for Active; 'I' for Inactive)
REMARK    1  A    between atoms: _5  and  _11
REMARK    2  A    between atoms: _19  and  _21
REMARK    3  A    between atoms: _22  and  _66
REMARK    4  A    between atoms: _27  and  _30
REMARK    5  A    between atoms: _32  and  _33
REMARK    6  A    between atoms: _38  and  _43
REMARK    7  A    between atoms: _43  and  _46
REMARK    8  A    between atoms: _53  and  _55
REMARK                            x       y       z     vdW  Elec       q    Type
REMARK                         _______ _______ _______ _____ _____    ______ ____
ROOT
ATOM     10  C   UNL     1      11.387 -13.415  -6.737  0.00  0.00    +0.038 A 
ATOM     11  C   UNL     1      11.664 -12.252  -5.974  0.00  0.00    +0.047 A 
ATOM     12  C   UNL     1      12.642 -12.274  -4.897  0.00  0.00    +0.035 A 
ATOM     32  C   UNL     1      13.321 -13.498  -4.626  0.00  0.00    +0.024 A 
ATOM     33  C   UNL     1      13.050 -14.690  -5.391  0.00  0.00    +0.007 A 
ATOM     34  C   UNL     1      12.085 -14.674  -6.453  0.00  0.00    -0.029 A 
ATOM     35  C   UNL     1      11.831 -15.983  -7.236  0.00  0.00    +0.045 C 
ENDROOT
BRANCH  10   9
ATOM      4  C   UNL     1      10.144 -12.619 -11.304  0.00  0.00    +0.077 A 
ATOM      5  C   UNL     1      11.493 -12.306 -11.679  0.00  0.00    +0.048 A 
ATOM      6  C   UNL     1      12.476 -12.355 -10.665  0.00  0.00    +0.116 A 
ATOM      7  N   UNL     1      12.124 -12.693  -9.376  0.00  0.00    -0.223 NA
ATOM      8  C   UNL     1      10.814 -12.987  -9.048  0.00  0.00    +0.220 A 
ATOM      9  N   UNL     1      10.439 -13.337  -7.760  0.00  0.00    -0.283 N 
ATOM     36  H   UNL     1       9.461 -13.539  -7.557  0.00  0.00    +0.155 HD
ATOM     37  N   UNL     1       9.856 -12.946  -9.998  0.00  0.00    -0.214 NA
BRANCH   4   3
ATOM      1  C   UNL     1       8.020 -12.737 -14.587  0.00  0.00    +0.020 A 
ATOM      2  C   UNL     1       9.164 -12.747 -13.705  0.00  0.00    +0.013 A 
ATOM      3  C   UNL     1       8.994 -12.615 -12.263  0.00  0.00    +0.019 A 
ATOM     38  C   UNL     1       7.642 -12.473 -11.743  0.00  0.00    +0.120 A 
ATOM     39  N   UNL     1       6.560 -12.466 -12.617  0.00  0.00    -0.263 NA
ATOM     40  C   UNL     1       6.712 -12.591 -14.006  0.00  0.00    +0.111 A 
ENDBRANCH   4   3
ENDBRANCH  10   9
BRANCH  12  13
ATOM     13  N   UNL     1      12.959 -11.127  -4.083  0.00  0.00    -0.281 N 
ATOM     14  C   UNL     1      13.070  -9.805  -4.481  0.00  0.00    +0.248 C 
ATOM     30  O   UNL     1      13.123  -9.435  -5.644  0.00  0.00    -0.270 OA
ATOM     31  H   UNL     1      13.122 -11.312  -3.093  0.00  0.00    +0.155 HD
BRANCH  14  15
ATOM     15  C   UNL     1      13.148  -8.740  -3.435  0.00  0.00    +0.037 A 
ATOM     16  C   UNL     1      14.384  -7.987  -3.208  0.00  0.00    +0.013 A 
ATOM     17  C   UNL     1      14.437  -6.977  -2.181  0.00  0.00    +0.005 A 
ATOM     18  C   UNL     1      13.249  -6.713  -1.373  0.00  0.00    -0.033 A 
ATOM     28  C   UNL     1      12.034  -7.472  -1.623  0.00  0.00    +0.005 A 
ATOM     29  C   UNL     1      11.979  -8.463  -2.628  0.00  0.00    +0.013 A 
BRANCH  18  19
ATOM     19  C   UNL     1      13.221  -5.669  -0.242  0.00  0.00    +0.119 C 
BRANCH  19  20
ATOM     20  N   UNL     1      11.898  -5.377   0.387  0.00  0.00    -0.302 NA
ATOM     21  C   UNL     1      11.731  -3.889   0.708  0.00  0.00    +0.066 C 
ATOM     22  C   UNL     1      10.333  -3.598   1.345  0.00  0.00    -0.064 C 
ATOM     23  N   UNL     1      10.163  -4.447   2.606  0.00  0.00    +0.379 N 
ATOM     24  C   UNL     1       8.874  -4.133   3.239  0.00  0.00    -0.096 C 
ATOM     25  H   UNL     1      10.969  -4.157   3.319  0.00  0.00    -0.082 HD
ATOM     26  C   UNL     1      10.331  -5.927   2.296  0.00  0.00    -0.064 C 
ATOM     27  C   UNL     1      11.711  -6.201   1.637  0.00  0.00    +0.066 C 
ENDBRANCH  19  20
ENDBRANCH  18  19
ENDBRANCH  14  15
ENDBRANCH  12  13
TORSDOF 6
ENDMDL
MODEL 5
REMARK VINA RESULT:      -8.3     21.841     25.290
REMARK  Name = C:\Users\Docking\Desktop\test protocol\1iep_ligandH.pdb
REMARK  8 active torsions:
REMARK  status: ('A' for Active; 'I' for Inactive)
REMARK    1  A    between atoms: _5  and  _11
REMARK    2  A    between atoms: _19  and  _21
REMARK    3  A    between atoms: _22  and  _66
REMARK    4  A    between atoms: _27  and  _30
REMARK    5  A    between atoms: _32  and  _33
REMARK    6  A    between atoms: _38  and  _43
REMARK    7  A    between atoms: _43  and  _46
REMARK    8  A    between atoms: _53  and  _55
REMARK                            x       y       z     vdW  Elec       q    Type
REMARK                         _______ _______ _______ _____ _____    ______ ____
ROOT
ATOM     10  C   UNL     1      22.712 -28.146   9.001  0.00  0.00    +0.038 A 
ATOM     11  C   UNL     1      23.250 -29.080   8.080  0.00  0.00    +0.047 A 
ATOM     12  C   UNL     1      22.523 -30.288   7.722  0.00  0.00    +0.035 A 
ATOM     32  C   UNL     1      21.249 -30.512   8.321  0.00  0.00    +0.024 A 
ATOM     33  C   UNL     1      20.688 -29.573   9.261  0.00  0.00    +0.007 A 
ATOM     34  C   UNL     1      21.402 -28.381   9.619  0.00  0.00    -0.029 A 
ATOM     35  C   UNL     1      20.755 -27.413  10.636  0.00  0.00    +0.045 C 
ENDROOT
BRANCH  10   9
ATOM      4  C   UNL     1      23.627 -23.453   8.575  0.00  0.00    +0.077 A 
ATOM      5  C   UNL     1      22.553 -23.269   7.641  0.00  0.00    +0.048 A 
ATOM      6  C   UNL     1      21.795 -24.408   7.291  0.00  0.00    +0.116 A 
ATOM      7  N   UNL     1      22.096 -25.636   7.840  0.00  0.00    -0.223 NA
ATOM      8  C   UNL     1      23.138 -25.779   8.737  0.00  0.00    +0.220 A 
ATOM      9  N   UNL     1      23.454 -27.002   9.308  0.00  0.00    -0.283 N 
ATOM     36  H   UNL     1      24.235 -27.068   9.960  0.00  0.00    +0.155 HD
ATOM     37  N   UNL     1      23.879 -24.707   9.086  0.00  0.00    -0.214 NA
BRANCH   4   3
ATOM      1  C   UNL     1      26.785 -21.327   9.472  0.00  0.00    +0.020 A 
ATOM      2  C   UNL     1      25.971 -22.426   9.005  0.00  0.00    +0.013 A 
ATOM      3  C   UNL     1      24.517 -22.345   9.045  0.00  0.00    +0.019 A 
ATOM     38  C   UNL     1      23.912 -21.128   9.566  0.00  0.00    +0.120 A 
ATOM     39  N   UNL     1      24.721 -20.087  10.009  0.00  0.00    -0.263 NA
ATOM     40  C   UNL     1      26.122 -20.154   9.978  0.00  0.00    +0.111 A 
ENDBRANCH   4   3
ENDBRANCH  10   9
BRANCH  12  13
ATOM     13  N   UNL     1      23.022 -31.277   6.799  0.00  0.00    -0.281 N 
ATOM     14  C   UNL     1      23.850 -32.354   7.070  0.00  0.00    +0.248 C 
ATOM     30  O   UNL     1      24.464 -32.507   8.115  0.00  0.00    -0.270 OA
ATOM     31  H   UNL     1      22.729 -31.170   5.828  0.00  0.00    +0.155 HD
BRANCH  14  15
ATOM     15  C   UNL     1      24.035 -33.404   6.022  0.00  0.00    +0.037 A 
ATOM     16  C   UNL     1      24.657 -33.091   4.733  0.00  0.00    +0.013 A 
ATOM     17  C   UNL     1      24.807 -34.119   3.734  0.00  0.00    +0.005 A 
ATOM     18  C   UNL     1      24.336 -35.471   4.022  0.00  0.00    -0.033 A 
ATOM     28  C   UNL     1      23.728 -35.756   5.311  0.00  0.00    +0.005 A 
ATOM     29  C   UNL     1      23.577 -34.750   6.292  0.00  0.00    +0.013 A 
BRANCH  18  19
ATOM     19  C   UNL     1      24.437 -36.625   3.007  0.00  0.00    +0.119 C 
BRANCH  19  20
ATOM     20  N   UNL     1      24.262 -36.284   1.563  0.00  0.00    -0.302 NA
ATOM     21  C   UNL     1      23.587 -37.415   0.783  0.00  0.00    +0.066 C 
ATOM     22  C   UNL     1      23.392 -37.032  -0.721  0.00  0.00    -0.064 C 
ATOM     23  N   UNL     1      24.749 -36.684  -1.335  0.00  0.00    +0.379 N 
ATOM     24  C   UNL     1      24.577 -36.380  -2.763  0.00  0.00    -0.096 C 
ATOM     25  H   UNL     1      25.397 -37.588  -1.258  0.00  0.00    -0.082 HD
ATOM     26  C   UNL     1      25.428 -35.562  -0.564  0.00  0.00    -0.064 C 
ATOM     27  C   UNL     1      25.591 -35.941   0.935  0.00  0.00    +0.066 C 
ENDBRANCH  19  20
ENDBRANCH  18  19
ENDBRANCH  14  15
ENDBRANCH  12  13
TORSDOF 6
ENDMDL
