MODEL 1
REMARK VINA RESULT:     -10.1      0.000      0.000
REMARK  Name = C:\Users\Docking\Desktop\test protocol\1iep_ligandH.pdb
REMARK  8 active torsions:
REMARK  status: ('A' for Active; 'I' for Inactive)
REMARK    1  A    between atoms: _5  and  _11
REMARK    2  A    between atoms: _19  and  _21
REMARK    3  A    between atoms: _22  and  _66
REMARK    4  A    between atoms: _27  and  _30
REMARK    5  A    between atoms: _32  and  _33
REMARK    6  A    between atoms: _38  and  _43
REMARK    7  A    between atoms: _43  and  _46
REMARK    8  A    between atoms: _53  and  _55
REMARK                            x       y       z     vdW  Elec       q    Type
REMARK                         _______ _______ _______ _____ _____    ______ ____
ROOT
ATOM     10  C   UNL     1     -12.689  14.142  30.867  0.00  0.00    +0.038 A 
ATOM     11  C   UNL     1     -11.433  14.592  30.384  0.00  0.00    +0.047 A 
ATOM     12  C   UNL     1     -11.311  15.225  29.080  0.00  0.00    +0.035 A 
ATOM     32  C   UNL     1     -12.489  15.385  28.294  0.00  0.00    +0.024 A 
ATOM     33  C   UNL     1     -13.773  14.933  28.769  0.00  0.00    +0.007 A 
ATOM     34  C   UNL     1     -13.899  14.306  30.053  0.00  0.00    -0.029 A 
ATOM     35  C   UNL     1     -15.300  13.834  30.508  0.00  0.00    +0.045 C 
ENDROOT
BRANCH  10   9
ATOM      4  C   UNL     1     -12.832  10.279  33.712  0.00  0.00    +0.077 A 
ATOM      5  C   UNL     1     -12.814   9.381  32.593  0.00  0.00    +0.048 A 
ATOM      6  C   UNL     1     -12.775   9.954  31.302  0.00  0.00    +0.116 A 
ATOM      7  N   UNL     1     -12.755  11.324  31.153  0.00  0.00    -0.223 NA
ATOM      8  C   UNL     1     -12.775  12.162  32.253  0.00  0.00    +0.220 A 
ATOM      9  N   UNL     1     -12.748  13.542  32.126  0.00  0.00    -0.283 N 
ATOM     36  H   UNL     1     -12.772  14.125  32.962  0.00  0.00    +0.155 HD
ATOM     37  N   UNL     1     -12.814  11.639  33.496  0.00  0.00    -0.214 NA
BRANCH   4   3
ATOM      1  C   UNL     1     -12.537   8.098  36.945  0.00  0.00    +0.020 A 
ATOM      2  C   UNL     1     -12.483   8.485  35.554  0.00  0.00    +0.013 A 
ATOM      3  C   UNL     1     -12.870   9.827  35.139  0.00  0.00    +0.019 A 
ATOM     38  C   UNL     1     -13.310  10.762  36.163  0.00  0.00    +0.120 A 
ATOM     39  N   UNL     1     -13.354  10.361  37.495  0.00  0.00    -0.263 NA
ATOM     40  C   UNL     1     -12.985   9.071  37.907  0.00  0.00    +0.111 A 
ENDBRANCH   4   3
ENDBRANCH  10   9
BRANCH  12  13
ATOM     13  N   UNL     1     -10.062  15.694  28.534  0.00  0.00    -0.281 N 
ATOM     14  C   UNL     1      -9.132  16.531  29.131  0.00  0.00    +0.248 C 
ATOM     30  O   UNL     1      -9.337  17.177  30.147  0.00  0.00    -0.270 OA
ATOM     31  H   UNL     1      -9.835  15.370  27.594  0.00  0.00    +0.155 HD
BRANCH  14  15
ATOM     15  C   UNL     1      -7.786  16.682  28.498  0.00  0.00    +0.037 A 
ATOM     16  C   UNL     1      -6.659  17.254  29.239  0.00  0.00    +0.013 A 
ATOM     17  C   UNL     1      -5.376  17.405  28.600  0.00  0.00    +0.005 A 
ATOM     18  C   UNL     1      -5.213  16.980  27.211  0.00  0.00    -0.033 A 
ATOM     28  C   UNL     1      -6.347  16.411  26.502  0.00  0.00    +0.005 A 
ATOM     29  C   UNL     1      -7.606  16.263  27.125  0.00  0.00    +0.013 A 
BRANCH  18  19
ATOM     19  C   UNL     1      -3.886  17.123  26.444  0.00  0.00    +0.119 C 
BRANCH  19  20
ATOM     20  N   UNL     1      -3.956  17.126  24.952  0.00  0.00    -0.302 NA
ATOM     21  C   UNL     1      -2.675  16.578  24.316  0.00  0.00    +0.066 C 
ATOM     22  C   UNL     1      -2.774  16.567  22.755  0.00  0.00    -0.064 C 
ATOM     23  N   UNL     1      -3.064  17.984  22.256  0.00  0.00    +0.379 N 
ATOM     24  C   UNL     1      -3.100  17.988  20.786  0.00  0.00    -0.096 C 
ATOM     25  H   UNL     1      -2.217  18.635  22.575  0.00  0.00    -0.082 HD
ATOM     26  C   UNL     1      -4.334  18.537  22.886  0.00  0.00    -0.064 C 
ATOM     27  C   UNL     1      -4.237  18.516  24.437  0.00  0.00    +0.066 C 
ENDBRANCH  19  20
ENDBRANCH  18  19
ENDBRANCH  14  15
ENDBRANCH  12  13
TORSDOF 6
ENDMDL
MODEL 2
REMARK VINA RESULT:     -10.0      1.424      1.949
REMARK  Name = C:\Users\Docking\Desktop\test protocol\1iep_ligandH.pdb
REMARK  8 active torsions:
REMARK  status: ('A' for Active; 'I' for Inactive)
REMARK    1  A    between atoms: _5  and  _11
REMARK    2  A    between atoms: _19  and  _21
REMARK    3  A    between atoms: _22  and  _66
REMARK    4  A    between atoms: _27  and  _30
REMARK    5  A    between atoms: _32  and  _33
REMARK    6  A    between atoms: _38  and  _43
REMARK    7  A    between atoms: _43  and  _46
REMARK    8  A    between atoms: _53  and  _55
REMARK                            x       y       z     vdW  Elec       q    Type
REMARK                         _______ _______ _______ _____ _____    ______ ____
ROOT
ATOM     10  C   UNL     1     -12.434  13.406  30.969  0.00  0.00    +0.038 A 
ATOM     11  C   UNL     1     -11.238  13.939  30.422  0.00  0.00    +0.047 A 
ATOM     12  C   UNL     1     -11.267  14.823  29.268  0.00  0.00    +0.035 A 
ATOM     32  C   UNL     1     -12.533  15.146  28.696  0.00  0.00    +0.024 A 
ATOM     33  C   UNL     1     -13.757  14.613  29.239  0.00  0.00    +0.007 A 
ATOM     34  C   UNL     1     -13.735  13.738  30.376  0.00  0.00    -0.029 A 
ATOM     35  C   UNL     1     -15.078  13.191  30.911  0.00  0.00    +0.045 C 
ENDROOT
BRANCH  10   9
ATOM      4  C   UNL     1     -11.803  12.639  35.665  0.00  0.00    +0.077 A 
ATOM      5  C   UNL     1     -11.602  14.035  35.926  0.00  0.00    +0.048 A 
ATOM      6  C   UNL     1     -11.662  14.917  34.824  0.00  0.00    +0.116 A 
ATOM      7  N   UNL     1     -11.905  14.428  33.559  0.00  0.00    -0.223 NA
ATOM      8  C   UNL     1     -12.093  13.075  33.341  0.00  0.00    +0.220 A 
ATOM      9  N   UNL     1     -12.347  12.562  32.079  0.00  0.00    -0.283 N 
ATOM     36  H   UNL     1     -12.472  11.557  31.959  0.00  0.00    +0.155 HD
ATOM     37  N   UNL     1     -12.039  12.213  34.377  0.00  0.00    -0.214 NA
BRANCH   4   3
ATOM      1  C   UNL     1     -11.775   9.179  37.490  0.00  0.00    +0.020 A 
ATOM      2  C   UNL     1     -11.807  10.158  36.427  0.00  0.00    +0.013 A 
ATOM      3  C   UNL     1     -11.772  11.584  36.727  0.00  0.00    +0.019 A 
ATOM     38  C   UNL     1     -11.704  11.989  38.122  0.00  0.00    +0.120 A 
ATOM     39  N   UNL     1     -11.676  11.025  39.124  0.00  0.00    -0.263 NA
ATOM     40  C   UNL     1     -11.711   9.650  38.848  0.00  0.00    +0.111 A 
ENDBRANCH   4   3
ENDBRANCH  10   9
BRANCH  12  13
ATOM     13  N   UNL     1     -10.086  15.388  28.664  0.00  0.00    -0.281 N 
ATOM     14  C   UNL     1      -9.180  16.271  29.229  0.00  0.00    +0.248 C 
ATOM     30  O   UNL     1      -9.367  16.879  30.272  0.00  0.00    -0.270 OA
ATOM     31  H   UNL     1      -9.894  15.101  27.704  0.00  0.00    +0.155 HD
BRANCH  14  15
ATOM     15  C   UNL     1      -7.887  16.527  28.525  0.00  0.00    +0.037 A 
ATOM     16  C   UNL     1      -6.848  17.366  29.127  0.00  0.00    +0.013 A 
ATOM     17  C   UNL     1      -5.616  17.611  28.420  0.00  0.00    +0.005 A 
ATOM     18  C   UNL     1      -5.416  17.013  27.102  0.00  0.00    -0.033 A 
ATOM     28  C   UNL     1      -6.461  16.180  26.531  0.00  0.00    +0.005 A 
ATOM     29  C   UNL     1      -7.670  15.939  27.221  0.00  0.00    +0.013 A 
BRANCH  18  19
ATOM     19  C   UNL     1      -4.142  17.237  26.266  0.00  0.00    +0.119 C 
BRANCH  19  20
ATOM     20  N   UNL     1      -4.274  17.149  24.781  0.00  0.00    -0.302 NA
ATOM     21  C   UNL     1      -2.925  16.903  24.099  0.00  0.00    +0.066 C 
ATOM     22  C   UNL     1      -3.085  16.790  22.547  0.00  0.00    -0.064 C 
ATOM     23  N   UNL     1      -3.738  18.065  22.011  0.00  0.00    +0.379 N 
ATOM     24  C   UNL     1      -3.837  17.987  20.546  0.00  0.00    -0.096 C 
ATOM     25  H   UNL     1      -3.067  18.920  22.260  0.00  0.00    -0.082 HD
ATOM     26  C   UNL     1      -5.079  18.319  22.687  0.00  0.00    -0.064 C 
ATOM     27  C   UNL     1      -4.913  18.400  24.230  0.00  0.00    +0.066 C 
ENDBRANCH  19  20
ENDBRANCH  18  19
ENDBRANCH  14  15
ENDBRANCH  12  13
TORSDOF 6
ENDMDL
MODEL 3
REMARK VINA RESULT:      -9.9      2.974      4.382
REMARK  Name = C:\Users\Docking\Desktop\test protocol\1iep_ligandH.pdb
REMARK  8 active torsions:
REMARK  status: ('A' for Active; 'I' for Inactive)
REMARK    1  A    between atoms: _5  and  _11
REMARK    2  A    between atoms: _19  and  _21
REMARK    3  A    between atoms: _22  and  _66
REMARK    4  A    between atoms: _27  and  _30
REMARK    5  A    between atoms: _32  and  _33
REMARK    6  A    between atoms: _38  and  _43
REMARK    7  A    between atoms: _43  and  _46
REMARK    8  A    between atoms: _53  and  _55
REMARK                            x       y       z     vdW  Elec       q    Type
REMARK                         _______ _______ _______ _____ _____    ______ ____
ROOT
ATOM     10  C   UNL     1      -9.943  14.614  30.224  0.00  0.00    +0.038 A 
ATOM     11  C   UNL     1      -9.586  14.688  28.853  0.00  0.00    +0.047 A 
ATOM     12  C   UNL     1      -8.929  15.866  28.309  0.00  0.00    +0.035 A 
ATOM     32  C   UNL     1      -8.647  16.950  29.191  0.00  0.00    +0.024 A 
ATOM     33  C   UNL     1      -9.004  16.892  30.586  0.00  0.00    +0.007 A 
ATOM     34  C   UNL     1      -9.655  15.734  31.128  0.00  0.00    -0.029 A 
ATOM     35  C   UNL     1     -10.021  15.729  32.631  0.00  0.00    +0.045 C 
ENDROOT
BRANCH  10   9
ATOM      4  C   UNL     1     -13.868  12.015  31.160  0.00  0.00    +0.077 A 
ATOM      5  C   UNL     1     -14.740  13.058  30.702  0.00  0.00    +0.048 A 
ATOM      6  C   UNL     1     -14.138  14.250  30.240  0.00  0.00    +0.116 A 
ATOM      7  N   UNL     1     -12.766  14.378  30.240  0.00  0.00    -0.223 NA
ATOM      8  C   UNL     1     -11.954  13.354  30.690  0.00  0.00    +0.220 A 
ATOM      9  N   UNL     1     -10.572  13.458  30.692  0.00  0.00    -0.283 N 
ATOM     36  H   UNL     1     -10.008  12.683  31.040  0.00  0.00    +0.155 HD
ATOM     37  N   UNL     1     -12.504  12.206  31.138  0.00  0.00    -0.214 NA
BRANCH   4   3
ATOM      1  C   UNL     1     -16.141   9.175  32.599  0.00  0.00    +0.020 A 
ATOM      2  C   UNL     1     -15.724  10.470  32.110  0.00  0.00    +0.013 A 
ATOM      3  C   UNL     1     -14.352  10.695  31.675  0.00  0.00    +0.019 A 
ATOM     38  C   UNL     1     -13.418   9.581  31.748  0.00  0.00    +0.120 A 
ATOM     39  N   UNL     1     -13.848   8.346  32.224  0.00  0.00    -0.263 NA
ATOM     40  C   UNL     1     -15.166   8.118  32.647  0.00  0.00    +0.111 A 
ENDBRANCH   4   3
ENDBRANCH  10   9
BRANCH  12  13
ATOM     13  N   UNL     1      -8.550  16.001  26.924  0.00  0.00    -0.281 N 
ATOM     14  C   UNL     1      -9.380  16.083  25.818  0.00  0.00    +0.248 C 
ATOM     30  O   UNL     1     -10.577  15.836  25.833  0.00  0.00    -0.270 OA
ATOM     31  H   UNL     1      -7.548  16.042  26.737  0.00  0.00    +0.155 HD
BRANCH  14  15
ATOM     15  C   UNL     1      -8.793  16.483  24.503  0.00  0.00    +0.037 A 
ATOM     16  C   UNL     1      -7.867  17.613  24.396  0.00  0.00    +0.013 A 
ATOM     17  C   UNL     1      -7.329  17.988  23.113  0.00  0.00    +0.005 A 
ATOM     18  C   UNL     1      -7.716  17.230  21.925  0.00  0.00    -0.033 A 
ATOM     28  C   UNL     1      -8.632  16.111  22.060  0.00  0.00    +0.005 A 
ATOM     29  C   UNL     1      -9.163  15.741  23.317  0.00  0.00    +0.013 A 
BRANCH  18  19
ATOM     19  C   UNL     1      -7.207  17.573  20.512  0.00  0.00    +0.119 C 
BRANCH  19  20
ATOM     20  N   UNL     1      -5.767  17.306  20.220  0.00  0.00    -0.302 NA
ATOM     21  C   UNL     1      -5.569  15.990  19.463  0.00  0.00    +0.066 C 
ATOM     22  C   UNL     1      -4.059  15.738  19.146  0.00  0.00    -0.064 C 
ATOM     23  N   UNL     1      -3.260  15.738  20.450  0.00  0.00    +0.379 N 
ATOM     24  C   UNL     1      -1.849  15.443  20.161  0.00  0.00    -0.096 C 
ATOM     25  H   UNL     1      -3.654  14.913  21.088  0.00  0.00    -0.082 HD
ATOM     26  C   UNL     1      -3.453  17.042  21.211  0.00  0.00    -0.064 C 
ATOM     27  C   UNL     1      -4.960  17.298  21.495  0.00  0.00    +0.066 C 
ENDBRANCH  19  20
ENDBRANCH  18  19
ENDBRANCH  14  15
ENDBRANCH  12  13
TORSDOF 6
ENDMDL
MODEL 4
REMARK VINA RESULT:      -9.6      2.445     12.945
REMARK  Name = C:\Users\Docking\Desktop\test protocol\1iep_ligandH.pdb
REMARK  8 active torsions:
REMARK  status: ('A' for Active; 'I' for Inactive)
REMARK    1  A    between atoms: _5  and  _11
REMARK    2  A    between atoms: _19  and  _21
REMARK    3  A    between atoms: _22  and  _66
REMARK    4  A    between atoms: _27  and  _30
REMARK    5  A    between atoms: _32  and  _33
REMARK    6  A    between atoms: _38  and  _43
REMARK    7  A    between atoms: _43  and  _46
REMARK    8  A    between atoms: _53  and  _55
REMARK                            x       y       z     vdW  Elec       q    Type
REMARK                         _______ _______ _______ _____ _____    ______ ____
ROOT
ATOM     10  C   UNL     1      -9.030  15.307  27.264  0.00  0.00    +0.038 A 
ATOM     11  C   UNL     1      -9.002  14.888  28.618  0.00  0.00    +0.047 A 
ATOM     12  C   UNL     1     -10.230  14.717  29.379  0.00  0.00    +0.035 A 
ATOM     32  C   UNL     1     -11.470  14.979  28.728  0.00  0.00    +0.024 A 
ATOM     33  C   UNL     1     -11.517  15.407  27.352  0.00  0.00    +0.007 A 
ATOM     34  C   UNL     1     -10.309  15.579  26.597  0.00  0.00    -0.029 A 
ATOM     35  C   UNL     1     -10.420  16.046  25.127  0.00  0.00    +0.045 C 
ENDROOT
BRANCH  10   9
ATOM      4  C   UNL     1      -5.251  17.914  25.864  0.00  0.00    +0.077 A 
ATOM      5  C   UNL     1      -5.740  19.088  26.527  0.00  0.00    +0.048 A 
ATOM      6  C   UNL     1      -6.972  18.981  27.211  0.00  0.00    +0.116 A 
ATOM      7  N   UNL     1      -7.655  17.784  27.225  0.00  0.00    -0.223 NA
ATOM      8  C   UNL     1      -7.155  16.671  26.574  0.00  0.00    +0.220 A 
ATOM      9  N   UNL     1      -7.821  15.455  26.581  0.00  0.00    -0.283 N 
ATOM     36  H   UNL     1      -7.423  14.659  26.082  0.00  0.00    +0.155 HD
ATOM     37  N   UNL     1      -5.982  16.748  25.912  0.00  0.00    -0.214 NA
BRANCH   4   3
ATOM      1  C   UNL     1      -2.059  18.962  23.860  0.00  0.00    +0.020 A 
ATOM      2  C   UNL     1      -3.302  19.061  24.590  0.00  0.00    +0.013 A 
ATOM      3  C   UNL     1      -3.963  17.868  25.102  0.00  0.00    +0.019 A 
ATOM     38  C   UNL     1      -3.335  16.578  24.857  0.00  0.00    +0.120 A 
ATOM     39  N   UNL     1      -2.138  16.513  24.150  0.00  0.00    -0.263 NA
ATOM     40  C   UNL     1      -1.494  17.655  23.651  0.00  0.00    +0.111 A 
ENDBRANCH   4   3
ENDBRANCH  10   9
BRANCH  12  13
ATOM     13  N   UNL     1     -10.262  14.302  30.760  0.00  0.00    -0.281 N 
ATOM     14  C   UNL     1     -10.219  15.101  31.891  0.00  0.00    +0.248 C 
ATOM     30  O   UNL     1      -9.928  16.288  31.887  0.00  0.00    -0.270 OA
ATOM     31  H   UNL     1     -10.325  13.297  30.923  0.00  0.00    +0.155 HD
BRANCH  14  15
ATOM     15  C   UNL     1     -10.529  14.490  33.219  0.00  0.00    +0.037 A 
ATOM     16  C   UNL     1      -9.609  14.627  34.351  0.00  0.00    +0.013 A 
ATOM     17  C   UNL     1      -9.924  14.013  35.617  0.00  0.00    +0.005 A 
ATOM     18  C   UNL     1     -11.167  13.257  35.757  0.00  0.00    -0.033 A 
ATOM     28  C   UNL     1     -12.064  13.142  34.619  0.00  0.00    +0.005 A 
ATOM     29  C   UNL     1     -11.758  13.742  33.376  0.00  0.00    +0.013 A 
BRANCH  18  19
ATOM     19  C   UNL     1     -11.574  12.552  37.064  0.00  0.00    +0.119 C 
BRANCH  19  20
ATOM     20  N   UNL     1     -12.117  11.165  36.952  0.00  0.00    -0.302 NA
ATOM     21  C   UNL     1     -13.568  11.076  37.435  0.00  0.00    +0.066 C 
ATOM     22  C   UNL     1     -14.127   9.623  37.289  0.00  0.00    -0.064 C 
ATOM     23  N   UNL     1     -13.236   8.656  38.069  0.00  0.00    +0.379 N 
ATOM     24  C   UNL     1     -13.792   7.297  37.982  0.00  0.00    -0.096 C 
ATOM     25  H   UNL     1     -13.260   8.963  39.141  0.00  0.00    -0.082 HD
ATOM     26  C   UNL     1     -11.791   8.740  37.597  0.00  0.00    -0.064 C 
ATOM     27  C   UNL     1     -11.254  10.193  37.718  0.00  0.00    +0.066 C 
ENDBRANCH  19  20
ENDBRANCH  18  19
ENDBRANCH  14  15
ENDBRANCH  12  13
TORSDOF 6
ENDMDL
MODEL 5
REMARK VINA RESULT:      -9.6      2.591     13.816
REMARK  Name = C:\Users\Docking\Desktop\test protocol\1iep_ligandH.pdb
REMARK  8 active torsions:
REMARK  status: ('A' for Active; 'I' for Inactive)
REMARK    1  A    between atoms: _5  and  _11
REMARK    2  A    between atoms: _19  and  _21
REMARK    3  A    between atoms: _22  and  _66
REMARK    4  A    between atoms: _27  and  _30
REMARK    5  A    between atoms: _32  and  _33
REMARK    6  A    between atoms: _38  and  _43
REMARK    7  A    between atoms: _43  and  _46
REMARK    8  A    between atoms: _53  and  _55
REMARK                            x       y       z     vdW  Elec       q    Type
REMARK                         _______ _______ _______ _____ _____    ______ ____
ROOT
ATOM     10  C   UNL     1      -5.136  17.566  24.571  0.00  0.00    +0.038 A 
ATOM     11  C   UNL     1      -6.187  16.798  25.135  0.00  0.00    +0.047 A 
ATOM     12  C   UNL     1      -6.964  17.296  26.260  0.00  0.00    +0.035 A 
ATOM     32  C   UNL     1      -6.645  18.582  26.784  0.00  0.00    +0.024 A 
ATOM     33  C   UNL     1      -5.580  19.377  26.224  0.00  0.00    +0.007 A 
ATOM     34  C   UNL     1      -4.809  18.890  25.116  0.00  0.00    -0.029 A 
ATOM     35  C   UNL     1      -3.674  19.781  24.560  0.00  0.00    +0.045 C 
ENDROOT
BRANCH  10   9
ATOM      4  C   UNL     1      -4.591  16.681  19.886  0.00  0.00    +0.077 A 
ATOM      5  C   UNL     1      -5.846  17.297  19.563  0.00  0.00    +0.048 A 
ATOM      6  C   UNL     1      -6.605  17.822  20.633  0.00  0.00    +0.116 A 
ATOM      7  N   UNL     1      -6.134  17.734  21.925  0.00  0.00    -0.223 NA
ATOM      8  C   UNL     1      -4.920  17.132  22.202  0.00  0.00    +0.220 A 
ATOM      9  N   UNL     1      -4.423  17.039  23.492  0.00  0.00    -0.283 N 
ATOM     36  H   UNL     1      -3.527  16.581  23.656  0.00  0.00    +0.155 HD
ATOM     37  N   UNL     1      -4.177  16.621  21.198  0.00  0.00    -0.214 NA
BRANCH   4   3
ATOM      1  C   UNL     1      -3.173  15.185  16.561  0.00  0.00    +0.020 A 
ATOM      2  C   UNL     1      -4.099  15.762  17.509  0.00  0.00    +0.013 A 
ATOM      3  C   UNL     1      -3.673  16.082  18.865  0.00  0.00    +0.019 A 
ATOM     38  C   UNL     1      -2.293  15.805  19.234  0.00  0.00    +0.120 A 
ATOM     39  N   UNL     1      -1.425  15.248  18.301  0.00  0.00    -0.263 NA
ATOM     40  C   UNL     1      -1.823  14.934  16.993  0.00  0.00    +0.111 A 
ENDBRANCH   4   3
ENDBRANCH  10   9
BRANCH  12  13
ATOM     13  N   UNL     1      -8.036  16.557  26.879  0.00  0.00    -0.281 N 
ATOM     14  C   UNL     1      -9.310  16.331  26.385  0.00  0.00    +0.248 C 
ATOM     30  O   UNL     1      -9.793  16.913  25.425  0.00  0.00    -0.270 OA
ATOM     31  H   UNL     1      -7.831  16.152  27.792  0.00  0.00    +0.155 HD
BRANCH  14  15
ATOM     15  C   UNL     1     -10.180  15.322  27.064  0.00  0.00    +0.037 A 
ATOM     16  C   UNL     1     -11.476  14.935  26.502  0.00  0.00    +0.013 A 
ATOM     17  C   UNL     1     -12.303  13.973  27.186  0.00  0.00    +0.005 A 
ATOM     18  C   UNL     1     -11.833  13.388  28.440  0.00  0.00    -0.033 A 
ATOM     28  C   UNL     1     -10.540  13.786  28.972  0.00  0.00    +0.005 A 
ATOM     29  C   UNL     1      -9.728  14.730  28.305  0.00  0.00    +0.013 A 
BRANCH  18  19
ATOM     19  C   UNL     1     -12.658  12.369  29.249  0.00  0.00    +0.119 C 
BRANCH  19  20
ATOM     20  N   UNL     1     -12.589  12.462  30.738  0.00  0.00    -0.302 NA
ATOM     21  C   UNL     1     -12.975  11.143  31.413  0.00  0.00    +0.066 C 
ATOM     22  C   UNL     1     -12.876  11.251  32.970  0.00  0.00    -0.064 C 
ATOM     23  N   UNL     1     -13.771  12.391  33.457  0.00  0.00    +0.379 N 
ATOM     24  C   UNL     1     -13.725  12.458  34.925  0.00  0.00    -0.096 C 
ATOM     25  H   UNL     1     -14.818  12.148  33.162  0.00  0.00    -0.082 HD
ATOM     26  C   UNL     1     -13.396  13.706  32.788  0.00  0.00    -0.064 C 
ATOM     27  C   UNL     1     -13.469  13.579  31.241  0.00  0.00    +0.066 C 
ENDBRANCH  19  20
ENDBRANCH  18  19
ENDBRANCH  14  15
ENDBRANCH  12  13
TORSDOF 6
ENDMDL
