MODEL 1
REMARK VINA RESULT:      -6.1      0.000      0.000
REMARK  Name = C:\Users\Docking\Desktop\test protocol\1iep_ligandH.pdb
REMARK  8 active torsions:
REMARK  status: ('A' for Active; 'I' for Inactive)
REMARK    1  A    between atoms: _5  and  _11
REMARK    2  A    between atoms: _19  and  _21
REMARK    3  A    between atoms: _22  and  _66
REMARK    4  A    between atoms: _27  and  _30
REMARK    5  A    between atoms: _32  and  _33
REMARK    6  A    between atoms: _38  and  _43
REMARK    7  A    between atoms: _43  and  _46
REMARK    8  A    between atoms: _53  and  _55
REMARK                            x       y       z     vdW  Elec       q    Type
REMARK                         _______ _______ _______ _____ _____    ______ ____
ROOT
ATOM     10  C   UNL     1       8.478  26.824  21.967  0.00  0.00    +0.038 A 
ATOM     11  C   UNL     1       8.284  28.177  22.346  0.00  0.00    +0.047 A 
ATOM     12  C   UNL     1       7.943  29.193  21.362  0.00  0.00    +0.035 A 
ATOM     32  C   UNL     1       7.805  28.795  20.001  0.00  0.00    +0.024 A 
ATOM     33  C   UNL     1       7.999  27.424  19.597  0.00  0.00    +0.007 A 
ATOM     34  C   UNL     1       8.338  26.419  20.563  0.00  0.00    -0.029 A 
ATOM     35  C   UNL     1       8.541  24.966  20.073  0.00  0.00    +0.045 C 
ENDROOT
BRANCH  10   9
ATOM      4  C   UNL     1       7.291  23.891  25.576  0.00  0.00    +0.077 A 
ATOM      5  C   UNL     1       5.909  24.272  25.509  0.00  0.00    +0.048 A 
ATOM      6  C   UNL     1       5.547  25.230  24.537  0.00  0.00    +0.116 A 
ATOM      7  N   UNL     1       6.503  25.762  23.699  0.00  0.00    -0.223 NA
ATOM      8  C   UNL     1       7.827  25.375  23.791  0.00  0.00    +0.220 A 
ATOM      9  N   UNL     1       8.804  25.890  22.953  0.00  0.00    -0.283 N 
ATOM     36  H   UNL     1       9.771  25.584  23.058  0.00  0.00    +0.155 HD
ATOM     37  N   UNL     1       8.199  24.462  24.712  0.00  0.00    -0.214 NA
BRANCH   4   3
ATOM      1  C   UNL     1       9.179  22.244  28.580  0.00  0.00    +0.020 A 
ATOM      2  C   UNL     1       8.686  23.252  27.670  0.00  0.00    +0.013 A 
ATOM      3  C   UNL     1       7.829  22.888  26.548  0.00  0.00    +0.019 A 
ATOM     38  C   UNL     1       7.486  21.484  26.375  0.00  0.00    +0.120 A 
ATOM     39  N   UNL     1       7.977  20.535  27.267  0.00  0.00    -0.263 NA
ATOM     40  C   UNL     1       8.804  20.874  28.349  0.00  0.00    +0.111 A 
ENDBRANCH   4   3
ENDBRANCH  10   9
BRANCH  12  13
ATOM     13  N   UNL     1       7.743  30.583  21.687  0.00  0.00    -0.281 N 
ATOM     14  C   UNL     1       8.643  31.628  21.552  0.00  0.00    +0.248 C 
ATOM     30  O   UNL     1       9.836  31.488  21.330  0.00  0.00    -0.270 OA
ATOM     31  H   UNL     1       6.826  30.827  22.062  0.00  0.00    +0.155 HD
BRANCH  14  15
ATOM     15  C   UNL     1       8.148  33.031  21.699  0.00  0.00    +0.037 A 
ATOM     16  C   UNL     1       8.761  34.135  20.957  0.00  0.00    +0.013 A 
ATOM     17  C   UNL     1       8.276  35.481  21.130  0.00  0.00    +0.005 A 
ATOM     18  C   UNL     1       7.169  35.730  22.050  0.00  0.00    -0.033 A 
ATOM     28  C   UNL     1       6.576  34.616  22.771  0.00  0.00    +0.005 A 
ATOM     29  C   UNL     1       7.049  33.295  22.604  0.00  0.00    +0.013 A 
BRANCH  18  19
ATOM     19  C   UNL     1       6.601  37.137  22.313  0.00  0.00    +0.119 C 
BRANCH  19  20
ATOM     20  N   UNL     1       6.928  37.772  23.625  0.00  0.00    -0.302 NA
ATOM     21  C   UNL     1       5.672  38.058  24.454  0.00  0.00    +0.066 C 
ATOM     22  C   UNL     1       6.034  38.701  25.832  0.00  0.00    -0.064 C 
ATOM     23  N   UNL     1       6.832  39.985  25.598  0.00  0.00    +0.379 N 
ATOM     24  C   UNL     1       7.124  40.624  26.890  0.00  0.00    -0.096 C 
ATOM     25  H   UNL     1       6.187  40.682  25.014  0.00  0.00    -0.082 HD
ATOM     26  C   UNL     1       8.081  39.711  24.772  0.00  0.00    -0.064 C 
ATOM     27  C   UNL     1       7.712  39.045  23.417  0.00  0.00    +0.066 C 
ENDBRANCH  19  20
ENDBRANCH  18  19
ENDBRANCH  14  15
ENDBRANCH  12  13
TORSDOF 6
ENDMDL
MODEL 2
REMARK VINA RESULT:      -6.1      3.576      4.311
REMARK  Name = C:\Users\Docking\Desktop\test protocol\1iep_ligandH.pdb
REMARK  8 active torsions:
REMARK  status: ('A' for Active; 'I' for Inactive)
REMARK    1  A    between atoms: _5  and  _11
REMARK    2  A    between atoms: _19  and  _21
REMARK    3  A    between atoms: _22  and  _66
REMARK    4  A    between atoms: _27  and  _30
REMARK    5  A    between atoms: _32  and  _33
REMARK    6  A    between atoms: _38  and  _43
REMARK    7  A    between atoms: _43  and  _46
REMARK    8  A    between atoms: _53  and  _55
REMARK                            x       y       z     vdW  Elec       q    Type
REMARK                         _______ _______ _______ _____ _____    ______ ____
ROOT
ATOM     10  C   UNL     1       9.422  28.341  21.301  0.00  0.00    +0.038 A 
ATOM     11  C   UNL     1       9.657  29.739  21.333  0.00  0.00    +0.047 A 
ATOM     12  C   UNL     1      10.454  30.392  20.307  0.00  0.00    +0.035 A 
ATOM     32  C   UNL     1      10.996  29.590  19.260  0.00  0.00    +0.024 A 
ATOM     33  C   UNL     1      10.768  28.167  19.213  0.00  0.00    +0.007 A 
ATOM     34  C   UNL     1       9.984  27.517  20.224  0.00  0.00    -0.029 A 
ATOM     35  C   UNL     1       9.778  25.988  20.127  0.00  0.00    +0.045 C 
ENDROOT
BRANCH  10   9
ATOM      4  C   UNL     1       5.199  27.353  23.356  0.00  0.00    +0.077 A 
ATOM      5  C   UNL     1       4.473  28.064  22.344  0.00  0.00    +0.048 A 
ATOM      6  C   UNL     1       5.224  28.676  21.316  0.00  0.00    +0.116 A 
ATOM      7  N   UNL     1       6.598  28.577  21.310  0.00  0.00    -0.223 NA
ATOM      8  C   UNL     1       7.268  27.885  22.303  0.00  0.00    +0.220 A 
ATOM      9  N   UNL     1       8.649  27.766  22.313  0.00  0.00    -0.283 N 
ATOM     36  H   UNL     1       9.106  27.254  23.067  0.00  0.00    +0.155 HD
ATOM     37  N   UNL     1       6.573  27.293  23.297  0.00  0.00    -0.214 NA
BRANCH   4   3
ATOM      1  C   UNL     1       4.481  25.872  26.905  0.00  0.00    +0.020 A 
ATOM      2  C   UNL     1       5.154  26.561  25.828  0.00  0.00    +0.013 A 
ATOM      3  C   UNL     1       4.546  26.650  24.506  0.00  0.00    +0.019 A 
ATOM     38  C   UNL     1       3.247  26.026  24.306  0.00  0.00    +0.120 A 
ATOM     39  N   UNL     1       2.624  25.368  25.361  0.00  0.00    -0.263 NA
ATOM     40  C   UNL     1       3.200  25.274  26.637  0.00  0.00    +0.111 A 
ENDBRANCH   4   3
ENDBRANCH  10   9
BRANCH  12  13
ATOM     13  N   UNL     1      10.733  31.807  20.291  0.00  0.00    -0.281 N 
ATOM     14  C   UNL     1       9.915  32.831  19.843  0.00  0.00    +0.248 C 
ATOM     30  O   UNL     1       8.897  32.666  19.186  0.00  0.00    -0.270 OA
ATOM     31  H   UNL     1      11.644  32.087  20.655  0.00  0.00    +0.155 HD
BRANCH  14  15
ATOM     15  C   UNL     1      10.288  34.244  20.158  0.00  0.00    +0.037 A 
ATOM     16  C   UNL     1      11.689  34.642  20.315  0.00  0.00    +0.013 A 
ATOM     17  C   UNL     1      12.021  36.008  20.635  0.00  0.00    +0.005 A 
ATOM     18  C   UNL     1      10.949  36.986  20.799  0.00  0.00    -0.033 A 
ATOM     28  C   UNL     1       9.567  36.565  20.632  0.00  0.00    +0.005 A 
ATOM     29  C   UNL     1       9.238  35.227  20.319  0.00  0.00    +0.013 A 
BRANCH  18  19
ATOM     19  C   UNL     1      11.209  38.460  21.161  0.00  0.00    +0.119 C 
BRANCH  19  20
ATOM     20  N   UNL     1      11.310  38.800  22.612  0.00  0.00    -0.302 NA
ATOM     21  C   UNL     1      10.138  39.666  23.082  0.00  0.00    +0.066 C 
ATOM     22  C   UNL     1      10.247  39.993  24.607  0.00  0.00    -0.064 C 
ATOM     23  N   UNL     1      11.581  40.691  24.881  0.00  0.00    +0.379 N 
ATOM     24  C   UNL     1      11.662  41.052  26.304  0.00  0.00    -0.096 C 
ATOM     25  H   UNL     1      11.595  41.637  24.291  0.00  0.00    -0.082 HD
ATOM     26  C   UNL     1      12.751  39.838  24.415  0.00  0.00    -0.064 C 
ATOM     27  C   UNL     1      12.617  39.494  22.905  0.00  0.00    +0.066 C 
ENDBRANCH  19  20
ENDBRANCH  18  19
ENDBRANCH  14  15
ENDBRANCH  12  13
TORSDOF 6
ENDMDL
MODEL 3
REMARK VINA RESULT:      -5.9     18.672     20.249
REMARK  Name = C:\Users\Docking\Desktop\test protocol\1iep_ligandH.pdb
REMARK  8 active torsions:
REMARK  status: ('A' for Active; 'I' for Inactive)
REMARK    1  A    between atoms: _5  and  _11
REMARK    2  A    between atoms: _19  and  _21
REMARK    3  A    between atoms: _22  and  _66
REMARK    4  A    between atoms: _27  and  _30
REMARK    5  A    between atoms: _32  and  _33
REMARK    6  A    between atoms: _38  and  _43
REMARK    7  A    between atoms: _43  and  _46
REMARK    8  A    between atoms: _53  and  _55
REMARK                            x       y       z     vdW  Elec       q    Type
REMARK                         _______ _______ _______ _____ _____    ______ ____
ROOT
ATOM     10  C   UNL     1      25.488  22.757  31.990  0.00  0.00    +0.038 A 
ATOM     11  C   UNL     1      25.085  24.032  32.462  0.00  0.00    +0.047 A 
ATOM     12  C   UNL     1      26.019  25.145  32.513  0.00  0.00    +0.035 A 
ATOM     32  C   UNL     1      27.357  24.926  32.073  0.00  0.00    +0.024 A 
ATOM     33  C   UNL     1      27.784  23.636  31.591  0.00  0.00    +0.007 A 
ATOM     34  C   UNL     1      26.868  22.533  31.540  0.00  0.00    -0.029 A 
ATOM     35  C   UNL     1      27.383  21.170  31.021  0.00  0.00    +0.045 C 
ENDROOT
BRANCH  10   9
ATOM      4  C   UNL     1      23.048  19.198  34.092  0.00  0.00    +0.077 A 
ATOM      5  C   UNL     1      23.719  19.398  35.344  0.00  0.00    +0.048 A 
ATOM      6  C   UNL     1      24.691  20.422  35.403  0.00  0.00    +0.116 A 
ATOM      7  N   UNL     1      24.962  21.184  34.287  0.00  0.00    -0.223 NA
ATOM      8  C   UNL     1      24.298  20.964  33.095  0.00  0.00    +0.220 A 
ATOM      9  N   UNL     1      24.550  21.723  31.962  0.00  0.00    -0.283 N 
ATOM     36  H   UNL     1      24.044  21.524  31.100  0.00  0.00    +0.155 HD
ATOM     37  N   UNL     1      23.367  19.991  33.012  0.00  0.00    -0.214 NA
BRANCH   4   3
ATOM      1  C   UNL     1      20.512  16.754  32.390  0.00  0.00    +0.020 A 
ATOM      2  C   UNL     1      21.532  17.765  32.547  0.00  0.00    +0.013 A 
ATOM      3  C   UNL     1      21.995  18.157  33.873  0.00  0.00    +0.019 A 
ATOM     38  C   UNL     1      21.400  17.501  35.027  0.00  0.00    +0.120 A 
ATOM     39  N   UNL     1      20.419  16.532  34.845  0.00  0.00    -0.263 NA
ATOM     40  C   UNL     1      19.965  16.148  33.575  0.00  0.00    +0.111 A 
ENDBRANCH   4   3
ENDBRANCH  10   9
BRANCH  12  13
ATOM     13  N   UNL     1      25.669  26.460  32.990  0.00  0.00    -0.281 N 
ATOM     14  C   UNL     1      26.121  27.100  34.133  0.00  0.00    +0.248 C 
ATOM     30  O   UNL     1      26.734  26.550  35.036  0.00  0.00    -0.270 OA
ATOM     31  H   UNL     1      25.008  26.983  32.416  0.00  0.00    +0.155 HD
BRANCH  14  15
ATOM     15  C   UNL     1      25.837  28.557  34.305  0.00  0.00    +0.037 A 
ATOM     16  C   UNL     1      26.014  29.218  35.601  0.00  0.00    +0.013 A 
ATOM     17  C   UNL     1      25.717  30.621  35.743  0.00  0.00    +0.005 A 
ATOM     18  C   UNL     1      25.240  31.374  34.585  0.00  0.00    -0.033 A 
ATOM     28  C   UNL     1      25.078  30.694  33.311  0.00  0.00    +0.005 A 
ATOM     29  C   UNL     1      25.367  29.318  33.167  0.00  0.00    +0.013 A 
BRANCH  18  19
ATOM     19  C   UNL     1      24.879  32.869  34.651  0.00  0.00    +0.119 C 
BRANCH  19  20
ATOM     20  N   UNL     1      23.819  33.275  35.622  0.00  0.00    -0.302 NA
ATOM     21  C   UNL     1      22.463  32.648  35.286  0.00  0.00    +0.066 C 
ATOM     22  C   UNL     1      21.371  33.065  36.325  0.00  0.00    -0.064 C 
ATOM     23  N   UNL     1      21.267  34.590  36.368  0.00  0.00    +0.379 N 
ATOM     24  C   UNL     1      20.201  34.984  37.301  0.00  0.00    -0.096 C 
ATOM     25  H   UNL     1      20.972  34.938  35.351  0.00  0.00    -0.082 HD
ATOM     26  C   UNL     1      22.612  35.222  36.698  0.00  0.00    -0.064 C 
ATOM     27  C   UNL     1      23.697  34.778  35.677  0.00  0.00    +0.066 C 
ENDBRANCH  19  20
ENDBRANCH  18  19
ENDBRANCH  14  15
ENDBRANCH  12  13
TORSDOF 6
ENDMDL
MODEL 4
REMARK VINA RESULT:      -5.9     20.571     22.843
REMARK  Name = C:\Users\Docking\Desktop\test protocol\1iep_ligandH.pdb
REMARK  8 active torsions:
REMARK  status: ('A' for Active; 'I' for Inactive)
REMARK    1  A    between atoms: _5  and  _11
REMARK    2  A    between atoms: _19  and  _21
REMARK    3  A    between atoms: _22  and  _66
REMARK    4  A    between atoms: _27  and  _30
REMARK    5  A    between atoms: _32  and  _33
REMARK    6  A    between atoms: _38  and  _43
REMARK    7  A    between atoms: _43  and  _46
REMARK    8  A    between atoms: _53  and  _55
REMARK                            x       y       z     vdW  Elec       q    Type
REMARK                         _______ _______ _______ _____ _____    ______ ____
ROOT
ATOM     10  C   UNL     1      20.078  31.141  42.895  0.00  0.00    +0.038 A 
ATOM     11  C   UNL     1      20.008  31.890  41.693  0.00  0.00    +0.047 A 
ATOM     12  C   UNL     1      21.191  32.114  40.877  0.00  0.00    +0.035 A 
ATOM     32  C   UNL     1      22.429  31.559  41.314  0.00  0.00    +0.024 A 
ATOM     33  C   UNL     1      22.518  30.796  42.534  0.00  0.00    +0.007 A 
ATOM     34  C   UNL     1      21.355  30.573  43.344  0.00  0.00    -0.029 A 
ATOM     35  C   UNL     1      21.511  29.753  44.646  0.00  0.00    +0.045 C 
ENDROOT
BRANCH  10   9
ATOM      4  C   UNL     1      17.054  32.394  46.405  0.00  0.00    +0.077 A 
ATOM      5  C   UNL     1      17.882  33.495  46.806  0.00  0.00    +0.048 A 
ATOM      6  C   UNL     1      19.081  33.700  46.088  0.00  0.00    +0.116 A 
ATOM      7  N   UNL     1      19.417  32.861  45.048  0.00  0.00    -0.223 NA
ATOM      8  C   UNL     1      18.597  31.807  44.688  0.00  0.00    +0.220 A 
ATOM      9  N   UNL     1      18.911  30.956  43.640  0.00  0.00    -0.283 N 
ATOM     36  H   UNL     1      18.283  30.186  43.411  0.00  0.00    +0.155 HD
ATOM     37  N   UNL     1      17.447  31.590  45.359  0.00  0.00    -0.214 NA
BRANCH   4   3
ATOM      1  C   UNL     1      13.301  32.436  47.507  0.00  0.00    +0.020 A 
ATOM      2  C   UNL     1      14.530  32.811  46.847  0.00  0.00    +0.013 A 
ATOM      3  C   UNL     1      15.754  32.051  47.064  0.00  0.00    +0.019 A 
ATOM     38  C   UNL     1      15.700  30.908  47.964  0.00  0.00    +0.120 A 
ATOM     39  N   UNL     1      14.503  30.572  48.587  0.00  0.00    -0.263 NA
ATOM     40  C   UNL     1      13.319  31.297  48.386  0.00  0.00    +0.111 A 
ENDBRANCH   4   3
ENDBRANCH  10   9
BRANCH  12  13
ATOM     13  N   UNL     1      21.182  32.873  39.651  0.00  0.00    -0.281 N 
ATOM     14  C   UNL     1      21.504  34.209  39.474  0.00  0.00    +0.248 C 
ATOM     30  O   UNL     1      21.644  35.013  40.384  0.00  0.00    -0.270 OA
ATOM     31  H   UNL     1      20.906  32.364  38.811  0.00  0.00    +0.155 HD
BRANCH  14  15
ATOM     15  C   UNL     1      21.683  34.731  38.084  0.00  0.00    +0.037 A 
ATOM     16  C   UNL     1      20.584  35.388  37.372  0.00  0.00    +0.013 A 
ATOM     17  C   UNL     1      20.778  35.867  36.026  0.00  0.00    +0.005 A 
ATOM     18  C   UNL     1      22.079  35.691  35.385  0.00  0.00    -0.033 A 
ATOM     28  C   UNL     1      23.153  35.041  36.116  0.00  0.00    +0.005 A 
ATOM     29  C   UNL     1      22.966  34.569  37.435  0.00  0.00    +0.013 A 
BRANCH  18  19
ATOM     19  C   UNL     1      22.370  36.152  33.944  0.00  0.00    +0.119 C 
BRANCH  19  20
ATOM     20  N   UNL     1      23.272  35.293  33.121  0.00  0.00    -0.302 NA
ATOM     21  C   UNL     1      23.833  36.045  31.910  0.00  0.00    +0.066 C 
ATOM     22  C   UNL     1      24.793  35.139  31.072  0.00  0.00    -0.064 C 
ATOM     23  N   UNL     1      24.044  33.880  30.629  0.00  0.00    +0.379 N 
ATOM     24  C   UNL     1      24.926  33.053  29.793  0.00  0.00    -0.096 C 
ATOM     25  H   UNL     1      23.184  34.203  29.998  0.00  0.00    -0.082 HD
ATOM     26  C   UNL     1      23.481  33.128  31.827  0.00  0.00    -0.064 C 
ATOM     27  C   UNL     1      22.552  34.047  32.669  0.00  0.00    +0.066 C 
ENDBRANCH  19  20
ENDBRANCH  18  19
ENDBRANCH  14  15
ENDBRANCH  12  13
TORSDOF 6
ENDMDL
MODEL 5
REMARK VINA RESULT:      -5.9      3.062      4.172
REMARK  Name = C:\Users\Docking\Desktop\test protocol\1iep_ligandH.pdb
REMARK  8 active torsions:
REMARK  status: ('A' for Active; 'I' for Inactive)
REMARK    1  A    between atoms: _5  and  _11
REMARK    2  A    between atoms: _19  and  _21
REMARK    3  A    between atoms: _22  and  _66
REMARK    4  A    between atoms: _27  and  _30
REMARK    5  A    between atoms: _32  and  _33
REMARK    6  A    between atoms: _38  and  _43
REMARK    7  A    between atoms: _43  and  _46
REMARK    8  A    between atoms: _53  and  _55
REMARK                            x       y       z     vdW  Elec       q    Type
REMARK                         _______ _______ _______ _____ _____    ______ ____
ROOT
ATOM     10  C   UNL     1       6.343  25.481  23.247  0.00  0.00    +0.038 A 
ATOM     11  C   UNL     1       6.334  26.894  23.116  0.00  0.00    +0.047 A 
ATOM     12  C   UNL     1       7.500  27.611  22.625  0.00  0.00    +0.035 A 
ATOM     32  C   UNL     1       8.658  26.859  22.274  0.00  0.00    +0.024 A 
ATOM     33  C   UNL     1       8.685  25.423  22.402  0.00  0.00    +0.007 A 
ATOM     34  C   UNL     1       7.539  24.710  22.888  0.00  0.00    -0.029 A 
ATOM     35  C   UNL     1       7.627  23.171  23.011  0.00  0.00    +0.045 C 
ENDROOT
BRANCH  10   9
ATOM      4  C   UNL     1       3.350  24.247  26.790  0.00  0.00    +0.077 A 
ATOM      5  C   UNL     1       4.154  24.906  27.779  0.00  0.00    +0.048 A 
ATOM      6  C   UNL     1       5.333  25.545  27.336  0.00  0.00    +0.116 A 
ATOM      7  N   UNL     1       5.674  25.520  26.000  0.00  0.00    -0.223 NA
ATOM      8  C   UNL     1       4.877  24.874  25.073  0.00  0.00    +0.220 A 
ATOM      9  N   UNL     1       5.196  24.844  23.724  0.00  0.00    -0.283 N 
ATOM     36  H   UNL     1       4.586  24.350  23.073  0.00  0.00    +0.155 HD
ATOM     37  N   UNL     1       3.746  24.255  25.472  0.00  0.00    -0.214 NA
BRANCH   4   3
ATOM      1  C   UNL     1       0.264  22.774  28.690  0.00  0.00    +0.020 A 
ATOM      2  C   UNL     1       1.500  23.479  28.442  0.00  0.00    +0.013 A 
ATOM      3  C   UNL     1       2.073  23.531  27.102  0.00  0.00    +0.019 A 
ATOM     38  C   UNL     1       1.363  22.853  26.027  0.00  0.00    +0.120 A 
ATOM     39  N   UNL     1       0.175  22.181  26.296  0.00  0.00    -0.263 NA
ATOM     40  C   UNL     1      -0.384  22.123  27.581  0.00  0.00    +0.111 A 
ENDBRANCH   4   3
ENDBRANCH  10   9
BRANCH  12  13
ATOM     13  N   UNL     1       7.552  29.045  22.478  0.00  0.00    -0.281 N 
ATOM     14  C   UNL     1       6.983  29.820  21.481  0.00  0.00    +0.248 C 
ATOM     30  O   UNL     1       6.520  29.377  20.440  0.00  0.00    -0.270 OA
ATOM     31  H   UNL     1       8.071  29.550  23.197  0.00  0.00    +0.155 HD
BRANCH  14  15
ATOM     15  C   UNL     1       6.934  31.303  21.659  0.00  0.00    +0.037 A 
ATOM     16  C   UNL     1       5.806  32.092  21.156  0.00  0.00    +0.013 A 
ATOM     17  C   UNL     1       5.792  33.523  21.326  0.00  0.00    +0.005 A 
ATOM     18  C   UNL     1       6.910  34.175  22.004  0.00  0.00    -0.033 A 
ATOM     28  C   UNL     1       8.014  33.368  22.497  0.00  0.00    +0.005 A 
ATOM     29  C   UNL     1       8.031  31.965  22.331  0.00  0.00    +0.013 A 
BRANCH  18  19
ATOM     19  C   UNL     1       6.989  35.700  22.210  0.00  0.00    +0.119 C 
BRANCH  19  20
ATOM     20  N   UNL     1       5.868  36.347  22.955  0.00  0.00    -0.302 NA
ATOM     21  C   UNL     1       6.032  37.868  23.031  0.00  0.00    +0.066 C 
ATOM     22  C   UNL     1       4.840  38.532  23.794  0.00  0.00    -0.064 C 
ATOM     23  N   UNL     1       4.735  37.928  25.196  0.00  0.00    +0.379 N 
ATOM     24  C   UNL     1       3.652  38.590  25.936  0.00  0.00    -0.096 C 
ATOM     25  H   UNL     1       5.691  38.143  25.729  0.00  0.00    -0.082 HD
ATOM     26  C   UNL     1       4.575  36.415  25.129  0.00  0.00    -0.064 C 
ATOM     27  C   UNL     1       5.749  35.769  24.344  0.00  0.00    +0.066 C 
ENDBRANCH  19  20
ENDBRANCH  18  19
ENDBRANCH  14  15
ENDBRANCH  12  13
TORSDOF 6
ENDMDL
