MODEL 1
REMARK VINA RESULT:     -10.0      0.000      0.000
REMARK  Name = C:\Users\Docking\Desktop\test protocol\1iep_ligandH.pdb
REMARK  8 active torsions:
REMARK  status: ('A' for Active; 'I' for Inactive)
REMARK    1  A    between atoms: _5  and  _11
REMARK    2  A    between atoms: _19  and  _21
REMARK    3  A    between atoms: _22  and  _66
REMARK    4  A    between atoms: _27  and  _30
REMARK    5  A    between atoms: _32  and  _33
REMARK    6  A    between atoms: _38  and  _43
REMARK    7  A    between atoms: _43  and  _46
REMARK    8  A    between atoms: _53  and  _55
REMARK                            x       y       z     vdW  Elec       q    Type
REMARK                         _______ _______ _______ _____ _____    ______ ____
ROOT
ATOM     10  C   UNL     1      15.594 -16.377 -27.398  0.00  0.00    +0.038 A 
ATOM     11  C   UNL     1      14.549 -17.191 -26.891  0.00  0.00    +0.047 A 
ATOM     12  C   UNL     1      14.458 -17.504 -25.474  0.00  0.00    +0.035 A 
ATOM     32  C   UNL     1      15.448 -16.968 -24.599  0.00  0.00    +0.024 A 
ATOM     33  C   UNL     1      16.518 -16.139 -25.097  0.00  0.00    +0.007 A 
ATOM     34  C   UNL     1      16.613 -15.829 -26.494  0.00  0.00    -0.029 A 
ATOM     35  C   UNL     1      17.785 -14.941 -26.973  0.00  0.00    +0.045 C 
ENDROOT
BRANCH  10   9
ATOM      4  C   UNL     1      13.694 -16.560 -31.802  0.00  0.00    +0.077 A 
ATOM      5  C   UNL     1      12.540 -17.274 -31.338  0.00  0.00    +0.048 A 
ATOM      6  C   UNL     1      12.477 -17.582 -29.961  0.00  0.00    +0.116 A 
ATOM      7  N   UNL     1      13.498 -17.198 -29.118  0.00  0.00    -0.223 NA
ATOM      8  C   UNL     1      14.598 -16.511 -29.598  0.00  0.00    +0.220 A 
ATOM      9  N   UNL     1      15.632 -16.108 -28.768  0.00  0.00    -0.283 N 
ATOM     36  H   UNL     1      16.430 -15.610 -29.161  0.00  0.00    +0.155 HD
ATOM     37  N   UNL     1      14.683 -16.207 -30.910  0.00  0.00    -0.214 NA
BRANCH   4   3
ATOM      1  C   UNL     1      13.932 -14.461 -35.094  0.00  0.00    +0.020 A 
ATOM      2  C   UNL     1      13.715 -14.795 -33.705  0.00  0.00    +0.013 A 
ATOM      3  C   UNL     1      13.905 -16.159 -33.229  0.00  0.00    +0.019 A 
ATOM     38  C   UNL     1      14.318 -17.170 -34.191  0.00  0.00    +0.120 A 
ATOM     39  N   UNL     1      14.518 -16.819 -35.522  0.00  0.00    -0.263 NA
ATOM     40  C   UNL     1      14.337 -15.509 -35.993  0.00  0.00    +0.111 A 
ENDBRANCH   4   3
ENDBRANCH  10   9
BRANCH  12  13
ATOM     13  N   UNL     1      13.425 -18.332 -24.903  0.00  0.00    -0.281 N 
ATOM     14  C   UNL     1      13.273 -19.704 -25.017  0.00  0.00    +0.248 C 
ATOM     30  O   UNL     1      13.887 -20.404 -25.808  0.00  0.00    -0.270 OA
ATOM     31  H   UNL     1      12.719 -17.848 -24.348  0.00  0.00    +0.155 HD
BRANCH  14  15
ATOM     15  C   UNL     1      12.286 -20.397 -24.134  0.00  0.00    +0.037 A 
ATOM     16  C   UNL     1      11.580 -21.601 -24.581  0.00  0.00    +0.013 A 
ATOM     17  C   UNL     1      10.621 -22.240 -23.716  0.00  0.00    +0.005 A 
ATOM     18  C   UNL     1      10.363 -21.677 -22.393  0.00  0.00    -0.033 A 
ATOM     28  C   UNL     1      11.081 -20.485 -21.973  0.00  0.00    +0.005 A 
ATOM     29  C   UNL     1      12.021 -19.855 -22.818  0.00  0.00    +0.013 A 
BRANCH  18  19
ATOM     19  C   UNL     1       9.340 -22.281 -21.412  0.00  0.00    +0.119 C 
BRANCH  19  20
ATOM     20  N   UNL     1       7.989 -22.615 -21.953  0.00  0.00    -0.302 NA
ATOM     21  C   UNL     1       7.203 -21.363 -22.350  0.00  0.00    +0.066 C 
ATOM     22  C   UNL     1       5.801 -21.732 -22.935  0.00  0.00    -0.064 C 
ATOM     23  N   UNL     1       5.024 -22.555 -21.906  0.00  0.00    +0.379 N 
ATOM     24  C   UNL     1       3.683 -22.855 -22.430  0.00  0.00    -0.096 C 
ATOM     25  H   UNL     1       4.898 -21.926 -20.995  0.00  0.00    -0.082 HD
ATOM     26  C   UNL     1       5.799 -23.802 -21.504  0.00  0.00    -0.064 C 
ATOM     27  C   UNL     1       7.202 -23.425 -20.952  0.00  0.00    +0.066 C 
ENDBRANCH  19  20
ENDBRANCH  18  19
ENDBRANCH  14  15
ENDBRANCH  12  13
TORSDOF 6
ENDMDL
MODEL 2
REMARK VINA RESULT:      -9.9      2.931      4.948
REMARK  Name = C:\Users\Docking\Desktop\test protocol\1iep_ligandH.pdb
REMARK  8 active torsions:
REMARK  status: ('A' for Active; 'I' for Inactive)
REMARK    1  A    between atoms: _5  and  _11
REMARK    2  A    between atoms: _19  and  _21
REMARK    3  A    between atoms: _22  and  _66
REMARK    4  A    between atoms: _27  and  _30
REMARK    5  A    between atoms: _32  and  _33
REMARK    6  A    between atoms: _38  and  _43
REMARK    7  A    between atoms: _43  and  _46
REMARK    8  A    between atoms: _53  and  _55
REMARK                            x       y       z     vdW  Elec       q    Type
REMARK                         _______ _______ _______ _____ _____    ______ ____
ROOT
ATOM     10  C   UNL     1      12.437 -22.030 -28.879  0.00  0.00    +0.038 A 
ATOM     11  C   UNL     1      11.228 -22.095 -28.141  0.00  0.00    +0.047 A 
ATOM     12  C   UNL     1      11.097 -22.972 -26.987  0.00  0.00    +0.035 A 
ATOM     32  C   UNL     1      12.219 -23.767 -26.612  0.00  0.00    +0.024 A 
ATOM     33  C   UNL     1      13.455 -23.714 -27.352  0.00  0.00    +0.007 A 
ATOM     34  C   UNL     1      13.590 -22.853 -28.492  0.00  0.00    -0.029 A 
ATOM     35  C   UNL     1      14.937 -22.841 -29.251  0.00  0.00    +0.045 C 
ENDROOT
BRANCH  10   9
ATOM      4  C   UNL     1      13.880 -17.968 -30.990  0.00  0.00    +0.077 A 
ATOM      5  C   UNL     1      14.525 -17.506 -29.795  0.00  0.00    +0.048 A 
ATOM      6  C   UNL     1      14.456 -18.341 -28.657  0.00  0.00    +0.116 A 
ATOM      7  N   UNL     1      13.790 -19.545 -28.721  0.00  0.00    -0.223 NA
ATOM      8  C   UNL     1      13.177 -19.960 -29.889  0.00  0.00    +0.220 A 
ATOM      9  N   UNL     1      12.508 -21.171 -29.978  0.00  0.00    -0.283 N 
ATOM     36  H   UNL     1      12.062 -21.437 -30.856  0.00  0.00    +0.155 HD
ATOM     37  N   UNL     1      13.227 -19.180 -30.989  0.00  0.00    -0.214 NA
BRANCH   4   3
ATOM      1  C   UNL     1      13.559 -15.085 -33.614  0.00  0.00    +0.020 A 
ATOM      2  C   UNL     1      13.556 -15.779 -32.347  0.00  0.00    +0.013 A 
ATOM      3  C   UNL     1      13.868 -17.201 -32.276  0.00  0.00    +0.019 A 
ATOM     38  C   UNL     1      14.180 -17.897 -33.515  0.00  0.00    +0.120 A 
ATOM     39  N   UNL     1      14.173 -17.202 -34.721  0.00  0.00    -0.263 NA
ATOM     40  C   UNL     1      13.874 -15.834 -34.801  0.00  0.00    +0.111 A 
ENDBRANCH   4   3
ENDBRANCH  10   9
BRANCH  12  13
ATOM     13  N   UNL     1       9.892 -23.086 -26.204  0.00  0.00    -0.281 N 
ATOM     14  C   UNL     1       9.660 -22.613 -24.923  0.00  0.00    +0.248 C 
ATOM     30  O   UNL     1      10.531 -22.203 -24.170  0.00  0.00    -0.270 OA
ATOM     31  H   UNL     1       9.115 -23.576 -26.648  0.00  0.00    +0.155 HD
BRANCH  14  15
ATOM     15  C   UNL     1       8.261 -22.607 -24.397  0.00  0.00    +0.037 A 
ATOM     16  C   UNL     1       7.792 -23.645 -23.475  0.00  0.00    +0.013 A 
ATOM     17  C   UNL     1       6.433 -23.626 -22.996  0.00  0.00    +0.005 A 
ATOM     18  C   UNL     1       5.533 -22.563 -23.437  0.00  0.00    -0.033 A 
ATOM     28  C   UNL     1       6.026 -21.543 -24.348  0.00  0.00    +0.005 A 
ATOM     29  C   UNL     1       7.357 -21.559 -24.821  0.00  0.00    +0.013 A 
BRANCH  18  19
ATOM     19  C   UNL     1       4.060 -22.476 -22.994  0.00  0.00    +0.119 C 
BRANCH  19  20
ATOM     20  N   UNL     1       3.763 -21.684 -21.763  0.00  0.00    -0.302 NA
ATOM     21  C   UNL     1       3.251 -22.567 -20.622  0.00  0.00    +0.066 C 
ATOM     22  C   UNL     1       2.966 -21.725 -19.335  0.00  0.00    -0.064 C 
ATOM     23  N   UNL     1       1.956 -20.624 -19.663  0.00  0.00    +0.379 N 
ATOM     24  C   UNL     1       1.642 -19.867 -18.442  0.00  0.00    -0.096 C 
ATOM     25  H   UNL     1       1.017 -21.118 -20.006  0.00  0.00    -0.082 HD
ATOM     26  C   UNL     1       2.456 -19.743 -20.799  0.00  0.00    -0.064 C 
ATOM     27  C   UNL     1       2.764 -20.593 -22.063  0.00  0.00    +0.066 C 
ENDBRANCH  19  20
ENDBRANCH  18  19
ENDBRANCH  14  15
ENDBRANCH  12  13
TORSDOF 6
ENDMDL
MODEL 3
REMARK VINA RESULT:      -9.8      3.136      5.631
REMARK  Name = C:\Users\Docking\Desktop\test protocol\1iep_ligandH.pdb
REMARK  8 active torsions:
REMARK  status: ('A' for Active; 'I' for Inactive)
REMARK    1  A    between atoms: _5  and  _11
REMARK    2  A    between atoms: _19  and  _21
REMARK    3  A    between atoms: _22  and  _66
REMARK    4  A    between atoms: _27  and  _30
REMARK    5  A    between atoms: _32  and  _33
REMARK    6  A    between atoms: _38  and  _43
REMARK    7  A    between atoms: _43  and  _46
REMARK    8  A    between atoms: _53  and  _55
REMARK                            x       y       z     vdW  Elec       q    Type
REMARK                         _______ _______ _______ _____ _____    ______ ____
ROOT
ATOM     10  C   UNL     1      12.809 -21.154 -26.933  0.00  0.00    +0.038 A 
ATOM     11  C   UNL     1      11.526 -21.236 -26.333  0.00  0.00    +0.047 A 
ATOM     12  C   UNL     1      10.827 -22.506 -26.221  0.00  0.00    +0.035 A 
ATOM     32  C   UNL     1      11.465 -23.675 -26.729  0.00  0.00    +0.024 A 
ATOM     33  C   UNL     1      12.768 -23.611 -27.343  0.00  0.00    +0.007 A 
ATOM     34  C   UNL     1      13.462 -22.360 -27.458  0.00  0.00    -0.029 A 
ATOM     35  C   UNL     1      14.854 -22.348 -28.131  0.00  0.00    +0.045 C 
ENDROOT
BRANCH  10   9
ATOM      4  C   UNL     1      13.717 -17.011 -29.179  0.00  0.00    +0.077 A 
ATOM      5  C   UNL     1      12.896 -17.371 -30.300  0.00  0.00    +0.048 A 
ATOM      6  C   UNL     1      12.263 -18.633 -30.262  0.00  0.00    +0.116 A 
ATOM      7  N   UNL     1      12.445 -19.466 -29.179  0.00  0.00    -0.223 NA
ATOM      8  C   UNL     1      13.245 -19.090 -28.116  0.00  0.00    +0.220 A 
ATOM      9  N   UNL     1      13.435 -19.908 -27.013  0.00  0.00    -0.283 N 
ATOM     36  H   UNL     1      14.038 -19.597 -26.253  0.00  0.00    +0.155 HD
ATOM     37  N   UNL     1      13.861 -17.890 -28.129  0.00  0.00    -0.214 NA
BRANCH   4   3
ATOM      1  C   UNL     1      15.656 -13.733 -30.070  0.00  0.00    +0.020 A 
ATOM      2  C   UNL     1      14.956 -14.987 -30.230  0.00  0.00    +0.013 A 
ATOM      3  C   UNL     1      14.448 -15.709 -29.071  0.00  0.00    +0.019 A 
ATOM     38  C   UNL     1      14.666 -15.131 -27.753  0.00  0.00    +0.120 A 
ATOM     39  N   UNL     1      15.344 -13.923 -27.630  0.00  0.00    -0.263 NA
ATOM     40  C   UNL     1      15.839 -13.219 -28.738  0.00  0.00    +0.111 A 
ENDBRANCH   4   3
ENDBRANCH  10   9
BRANCH  12  13
ATOM     13  N   UNL     1       9.520 -22.649 -25.630  0.00  0.00    -0.281 N 
ATOM     14  C   UNL     1       9.199 -22.741 -24.285  0.00  0.00    +0.248 C 
ATOM     30  O   UNL     1      10.012 -22.930 -23.392  0.00  0.00    -0.270 OA
ATOM     31  H   UNL     1       8.736 -22.687 -26.281  0.00  0.00    +0.155 HD
BRANCH  14  15
ATOM     15  C   UNL     1       7.767 -22.620 -23.875  0.00  0.00    +0.037 A 
ATOM     16  C   UNL     1       6.846 -21.730 -24.585  0.00  0.00    +0.013 A 
ATOM     17  C   UNL     1       5.473 -21.619 -24.157  0.00  0.00    +0.005 A 
ATOM     18  C   UNL     1       5.014 -22.403 -23.014  0.00  0.00    -0.033 A 
ATOM     28  C   UNL     1       5.948 -23.283 -22.330  0.00  0.00    +0.005 A 
ATOM     29  C   UNL     1       7.294 -23.393 -22.746  0.00  0.00    +0.013 A 
BRANCH  18  19
ATOM     19  C   UNL     1       3.573 -22.332 -22.475  0.00  0.00    +0.119 C 
BRANCH  19  20
ATOM     20  N   UNL     1       2.885 -21.008 -22.535  0.00  0.00    -0.302 NA
ATOM     21  C   UNL     1       3.113 -20.184 -21.264  0.00  0.00    +0.066 C 
ATOM     22  C   UNL     1       2.406 -18.793 -21.353  0.00  0.00    -0.064 C 
ATOM     23  N   UNL     1       0.911 -18.999 -21.604  0.00  0.00    +0.379 N 
ATOM     24  C   UNL     1       0.234 -17.694 -21.630  0.00  0.00    -0.096 C 
ATOM     25  H   UNL     1       0.501 -19.576 -20.743  0.00  0.00    -0.082 HD
ATOM     26  C   UNL     1       0.675 -19.819 -22.864  0.00  0.00    -0.064 C 
ATOM     27  C   UNL     1       1.407 -21.188 -22.778  0.00  0.00    +0.066 C 
ENDBRANCH  19  20
ENDBRANCH  18  19
ENDBRANCH  14  15
ENDBRANCH  12  13
TORSDOF 6
ENDMDL
MODEL 4
REMARK VINA RESULT:      -9.5      3.478      4.289
REMARK  Name = C:\Users\Docking\Desktop\test protocol\1iep_ligandH.pdb
REMARK  8 active torsions:
REMARK  status: ('A' for Active; 'I' for Inactive)
REMARK    1  A    between atoms: _5  and  _11
REMARK    2  A    between atoms: _19  and  _21
REMARK    3  A    between atoms: _22  and  _66
REMARK    4  A    between atoms: _27  and  _30
REMARK    5  A    between atoms: _32  and  _33
REMARK    6  A    between atoms: _38  and  _43
REMARK    7  A    between atoms: _43  and  _46
REMARK    8  A    between atoms: _53  and  _55
REMARK                            x       y       z     vdW  Elec       q    Type
REMARK                         _______ _______ _______ _____ _____    ______ ____
ROOT
ATOM     10  C   UNL     1      16.200 -16.842 -24.148  0.00  0.00    +0.038 A 
ATOM     11  C   UNL     1      14.928 -17.463 -24.239  0.00  0.00    +0.047 A 
ATOM     12  C   UNL     1      14.637 -18.692 -23.518  0.00  0.00    +0.035 A 
ATOM     32  C   UNL     1      15.665 -19.261 -22.711  0.00  0.00    +0.024 A 
ATOM     33  C   UNL     1      16.964 -18.644 -22.608  0.00  0.00    +0.007 A 
ATOM     34  C   UNL     1      17.257 -17.433 -23.319  0.00  0.00    -0.029 A 
ATOM     35  C   UNL     1      18.670 -16.818 -23.177  0.00  0.00    +0.045 C 
ENDROOT
BRANCH  10   9
ATOM      4  C   UNL     1      17.183 -14.469 -28.203  0.00  0.00    +0.077 A 
ATOM      5  C   UNL     1      17.285 -15.684 -28.959  0.00  0.00    +0.048 A 
ATOM      6  C   UNL     1      17.085 -16.899 -28.265  0.00  0.00    +0.116 A 
ATOM      7  N   UNL     1      16.803 -16.887 -26.916  0.00  0.00    -0.223 NA
ATOM      8  C   UNL     1      16.714 -15.698 -26.216  0.00  0.00    +0.220 A 
ATOM      9  N   UNL     1      16.424 -15.662 -24.861  0.00  0.00    -0.283 N 
ATOM     36  H   UNL     1      16.374 -14.765 -24.380  0.00  0.00    +0.155 HD
ATOM     37  N   UNL     1      16.902 -14.525 -26.856  0.00  0.00    -0.214 NA
BRANCH   4   3
ATOM      1  C   UNL     1      18.796 -11.173 -29.557  0.00  0.00    +0.020 A 
ATOM      2  C   UNL     1      18.674 -12.492 -28.980  0.00  0.00    +0.013 A 
ATOM      3  C   UNL     1      17.366 -13.106 -28.794  0.00  0.00    +0.019 A 
ATOM     38  C   UNL     1      16.191 -12.353 -29.207  0.00  0.00    +0.120 A 
ATOM     39  N   UNL     1      16.338 -11.084 -29.758  0.00  0.00    -0.263 NA
ATOM     40  C   UNL     1      17.592 -10.482 -29.940  0.00  0.00    +0.111 A 
ENDBRANCH   4   3
ENDBRANCH  10   9
BRANCH  12  13
ATOM     13  N   UNL     1      13.367 -19.372 -23.579  0.00  0.00    -0.281 N 
ATOM     14  C   UNL     1      12.990 -20.398 -24.430  0.00  0.00    +0.248 C 
ATOM     30  O   UNL     1      13.621 -20.744 -25.417  0.00  0.00    -0.270 OA
ATOM     31  H   UNL     1      12.660 -19.059 -22.913  0.00  0.00    +0.155 HD
BRANCH  14  15
ATOM     15  C   UNL     1      11.721 -21.137 -24.152  0.00  0.00    +0.037 A 
ATOM     16  C   UNL     1      11.054 -21.040 -22.851  0.00  0.00    +0.013 A 
ATOM     17  C   UNL     1       9.840 -21.777 -22.603  0.00  0.00    +0.005 A 
ATOM     18  C   UNL     1       9.284 -22.616 -23.661  0.00  0.00    -0.033 A 
ATOM     28  C   UNL     1       9.963 -22.690 -24.944  0.00  0.00    +0.005 A 
ATOM     29  C   UNL     1      11.153 -21.970 -25.190  0.00  0.00    +0.013 A 
BRANCH  18  19
ATOM     19  C   UNL     1       8.004 -23.454 -23.478  0.00  0.00    +0.119 C 
BRANCH  19  20
ATOM     20  N   UNL     1       6.762 -22.727 -23.080  0.00  0.00    -0.302 NA
ATOM     21  C   UNL     1       5.771 -23.639 -22.352  0.00  0.00    +0.066 C 
ATOM     22  C   UNL     1       4.487 -22.856 -21.922  0.00  0.00    -0.064 C 
ATOM     23  N   UNL     1       3.839 -22.228 -23.157  0.00  0.00    +0.379 N 
ATOM     24  C   UNL     1       2.600 -21.541 -22.765  0.00  0.00    -0.096 C 
ATOM     25  H   UNL     1       3.562 -23.056 -23.851  0.00  0.00    -0.082 HD
ATOM     26  C   UNL     1       4.819 -21.322 -23.889  0.00  0.00    -0.064 C 
ATOM     27  C   UNL     1       6.103 -22.102 -24.285  0.00  0.00    +0.066 C 
ENDBRANCH  19  20
ENDBRANCH  18  19
ENDBRANCH  14  15
ENDBRANCH  12  13
TORSDOF 6
ENDMDL
MODEL 5
REMARK VINA RESULT:      -9.5      7.317      9.190
REMARK  Name = C:\Users\Docking\Desktop\test protocol\1iep_ligandH.pdb
REMARK  8 active torsions:
REMARK  status: ('A' for Active; 'I' for Inactive)
REMARK    1  A    between atoms: _5  and  _11
REMARK    2  A    between atoms: _19  and  _21
REMARK    3  A    between atoms: _22  and  _66
REMARK    4  A    between atoms: _27  and  _30
REMARK    5  A    between atoms: _32  and  _33
REMARK    6  A    between atoms: _38  and  _43
REMARK    7  A    between atoms: _43  and  _46
REMARK    8  A    between atoms: _53  and  _55
REMARK                            x       y       z     vdW  Elec       q    Type
REMARK                         _______ _______ _______ _____ _____    ______ ____
ROOT
ATOM     10  C   UNL     1      15.458 -18.024 -23.907  0.00  0.00    +0.038 A 
ATOM     11  C   UNL     1      16.525 -18.908 -23.604  0.00  0.00    +0.047 A 
ATOM     12  C   UNL     1      16.628 -19.546 -22.301  0.00  0.00    +0.035 A 
ATOM     32  C   UNL     1      15.624 -19.262 -21.330  0.00  0.00    +0.024 A 
ATOM     33  C   UNL     1      14.533 -18.365 -21.620  0.00  0.00    +0.007 A 
ATOM     34  C   UNL     1      14.428 -17.732 -22.903  0.00  0.00    -0.029 A 
ATOM     35  C   UNL     1      13.241 -16.774 -23.157  0.00  0.00    +0.045 C 
ENDROOT
BRANCH  10   9
ATOM      4  C   UNL     1      13.755 -17.770 -28.387  0.00  0.00    +0.077 A 
ATOM      5  C   UNL     1      12.912 -18.914 -28.195  0.00  0.00    +0.048 A 
ATOM      6  C   UNL     1      12.951 -19.543 -26.930  0.00  0.00    +0.116 A 
ATOM      7  N   UNL     1      13.776 -19.056 -25.940  0.00  0.00    -0.223 NA
ATOM      8  C   UNL     1      14.578 -17.952 -26.159  0.00  0.00    +0.220 A 
ATOM      9  N   UNL     1      15.409 -17.440 -25.175  0.00  0.00    -0.283 N 
ATOM     36  H   UNL     1      15.991 -16.628 -25.378  0.00  0.00    +0.155 HD
ATOM     37  N   UNL     1      14.560 -17.334 -27.358  0.00  0.00    -0.214 NA
BRANCH   4   3
ATOM      1  C   UNL     1      13.061 -16.489 -32.018  0.00  0.00    +0.020 A 
ATOM      2  C   UNL     1      12.955 -17.268 -30.805  0.00  0.00    +0.013 A 
ATOM      3  C   UNL     1      13.823 -16.995 -29.666  0.00  0.00    +0.019 A 
ATOM     38  C   UNL     1      14.794 -15.918 -29.788  0.00  0.00    +0.120 A 
ATOM     39  N   UNL     1      14.874 -15.186 -30.968  0.00  0.00    -0.263 NA
ATOM     40  C   UNL     1      14.046 -15.441 -32.071  0.00  0.00    +0.111 A 
ENDBRANCH   4   3
ENDBRANCH  10   9
BRANCH  12  13
ATOM     13  N   UNL     1      17.693 -20.446 -21.933  0.00  0.00    -0.281 N 
ATOM     14  C   UNL     1      18.963 -20.124 -21.485  0.00  0.00    +0.248 C 
ATOM     30  O   UNL     1      19.451 -19.004 -21.535  0.00  0.00    -0.270 OA
ATOM     31  H   UNL     1      17.485 -21.441 -22.014  0.00  0.00    +0.155 HD
BRANCH  14  15
ATOM     15  C   UNL     1      19.822 -21.204 -20.911  0.00  0.00    +0.037 A 
ATOM     16  C   UNL     1      21.093 -21.577 -21.535  0.00  0.00    +0.013 A 
ATOM     17  C   UNL     1      21.894 -22.634 -20.971  0.00  0.00    +0.005 A 
ATOM     18  C   UNL     1      21.425 -23.326 -19.772  0.00  0.00    -0.033 A 
ATOM     28  C   UNL     1      20.162 -22.932 -19.170  0.00  0.00    +0.005 A 
ATOM     29  C   UNL     1      19.374 -21.897 -19.721  0.00  0.00    +0.013 A 
BRANCH  18  19
ATOM     19  C   UNL     1      22.204 -24.480 -19.114  0.00  0.00    +0.119 C 
BRANCH  19  20
ATOM     20  N   UNL     1      21.434 -25.410 -18.235  0.00  0.00    -0.302 NA
ATOM     21  C   UNL     1      22.297 -25.977 -17.104  0.00  0.00    +0.066 C 
ATOM     22  C   UNL     1      21.470 -26.930 -16.181  0.00  0.00    -0.064 C 
ATOM     23  N   UNL     1      20.872 -28.059 -17.023  0.00  0.00    +0.379 N 
ATOM     24  C   UNL     1      20.143 -28.989 -16.149  0.00  0.00    -0.096 C 
ATOM     25  H   UNL     1      21.718 -28.620 -17.485  0.00  0.00    -0.082 HD
ATOM     26  C   UNL     1      20.015 -27.504 -18.152  0.00  0.00    -0.064 C 
ATOM     27  C   UNL     1      20.839 -26.535 -19.046  0.00  0.00    +0.066 C 
ENDBRANCH  19  20
ENDBRANCH  18  19
ENDBRANCH  14  15
ENDBRANCH  12  13
TORSDOF 6
ENDMDL
