MODEL 1
REMARK VINA RESULT:      -9.7      0.000      0.000
REMARK  Name = C:\Users\Docking\Desktop\test protocol\1iep_ligandH.pdb
REMARK  8 active torsions:
REMARK  status: ('A' for Active; 'I' for Inactive)
REMARK    1  A    between atoms: _5  and  _11
REMARK    2  A    between atoms: _19  and  _21
REMARK    3  A    between atoms: _22  and  _66
REMARK    4  A    between atoms: _27  and  _30
REMARK    5  A    between atoms: _32  and  _33
REMARK    6  A    between atoms: _38  and  _43
REMARK    7  A    between atoms: _43  and  _46
REMARK    8  A    between atoms: _53  and  _55
REMARK                            x       y       z     vdW  Elec       q    Type
REMARK                         _______ _______ _______ _____ _____    ______ ____
ROOT
ATOM     10  C   UNL     1       1.335  55.562  16.982  0.00  0.00    +0.038 A 
ATOM     11  C   UNL     1       0.025  55.388  16.468  0.00  0.00    +0.047 A 
ATOM     12  C   UNL     1      -1.107  56.103  17.037  0.00  0.00    +0.035 A 
ATOM     32  C   UNL     1      -0.868  56.990  18.126  0.00  0.00    +0.024 A 
ATOM     33  C   UNL     1       0.458  57.178  18.661  0.00  0.00    +0.007 A 
ATOM     34  C   UNL     1       1.578  56.474  18.106  0.00  0.00    -0.029 A 
ATOM     35  C   UNL     1       2.976  56.710  18.723  0.00  0.00    +0.045 C 
ENDROOT
BRANCH  10   9
ATOM      4  C   UNL     1       5.059  55.220  13.973  0.00  0.00    +0.077 A 
ATOM      5  C   UNL     1       4.881  56.564  13.506  0.00  0.00    +0.048 A 
ATOM      6  C   UNL     1       3.815  57.308  14.060  0.00  0.00    +0.116 A 
ATOM      7  N   UNL     1       2.995  56.739  15.010  0.00  0.00    -0.223 NA
ATOM      8  C   UNL     1       3.193  55.439  15.437  0.00  0.00    +0.220 A 
ATOM      9  N   UNL     1       2.386  54.850  16.397  0.00  0.00    -0.283 N 
ATOM     36  H   UNL     1       2.560  53.886  16.681  0.00  0.00    +0.155 HD
ATOM     37  N   UNL     1       4.204  54.708  14.922  0.00  0.00    -0.214 NA
BRANCH   4   3
ATOM      1  C   UNL     1       8.522  53.471  13.473  0.00  0.00    +0.020 A 
ATOM      2  C   UNL     1       7.514  54.374  13.977  0.00  0.00    +0.013 A 
ATOM      3  C   UNL     1       6.143  54.309  13.486  0.00  0.00    +0.019 A 
ATOM     38  C   UNL     1       5.823  53.309  12.478  0.00  0.00    +0.120 A 
ATOM     39  N   UNL     1       6.816  52.453  12.010  0.00  0.00    -0.263 NA
ATOM     40  C   UNL     1       8.139  52.508  12.474  0.00  0.00    +0.111 A 
ENDBRANCH   4   3
ENDBRANCH  10   9
BRANCH  12  13
ATOM     13  N   UNL     1      -2.462  55.960  16.563  0.00  0.00    -0.281 N 
ATOM     14  C   UNL     1      -3.635  56.070  17.292  0.00  0.00    +0.248 C 
ATOM     30  O   UNL     1      -3.690  56.097  18.512  0.00  0.00    -0.270 OA
ATOM     31  H   UNL     1      -2.568  55.753  15.570  0.00  0.00    +0.155 HD
BRANCH  14  15
ATOM     15  C   UNL     1      -4.935  56.146  16.559  0.00  0.00    +0.037 A 
ATOM     16  C   UNL     1      -4.997  55.999  15.102  0.00  0.00    +0.013 A 
ATOM     17  C   UNL     1      -6.262  56.094  14.419  0.00  0.00    +0.005 A 
ATOM     18  C   UNL     1      -7.478  56.336  15.192  0.00  0.00    -0.033 A 
ATOM     28  C   UNL     1      -7.389  56.473  16.636  0.00  0.00    +0.005 A 
ATOM     29  C   UNL     1      -6.150  56.382  17.310  0.00  0.00    +0.013 A 
BRANCH  18  19
ATOM     19  C   UNL     1      -8.868  56.473  14.544  0.00  0.00    +0.119 C 
BRANCH  19  20
ATOM     20  N   UNL     1      -9.559  57.790  14.679  0.00  0.00    -0.302 NA
ATOM     21  C   UNL     1     -10.744  57.720  15.647  0.00  0.00    +0.066 C 
ATOM     22  C   UNL     1     -11.441  59.112  15.794  0.00  0.00    -0.064 C 
ATOM     23  N   UNL     1     -11.895  59.600  14.417  0.00  0.00    +0.379 N 
ATOM     24  C   UNL     1     -12.602  60.880  14.559  0.00  0.00    -0.096 C 
ATOM     25  H   UNL     1     -12.621  58.854  14.017  0.00  0.00    -0.082 HD
ATOM     26  C   UNL     1     -10.723  59.669  13.448  0.00  0.00    -0.064 C 
ATOM     27  C   UNL     1     -10.019  58.289  13.331  0.00  0.00    +0.066 C 
ENDBRANCH  19  20
ENDBRANCH  18  19
ENDBRANCH  14  15
ENDBRANCH  12  13
TORSDOF 6
ENDMDL
MODEL 2
REMARK VINA RESULT:      -9.1      1.860      2.540
REMARK  Name = C:\Users\Docking\Desktop\test protocol\1iep_ligandH.pdb
REMARK  8 active torsions:
REMARK  status: ('A' for Active; 'I' for Inactive)
REMARK    1  A    between atoms: _5  and  _11
REMARK    2  A    between atoms: _19  and  _21
REMARK    3  A    between atoms: _22  and  _66
REMARK    4  A    between atoms: _27  and  _30
REMARK    5  A    between atoms: _32  and  _33
REMARK    6  A    between atoms: _38  and  _43
REMARK    7  A    between atoms: _43  and  _46
REMARK    8  A    between atoms: _53  and  _55
REMARK                            x       y       z     vdW  Elec       q    Type
REMARK                         _______ _______ _______ _____ _____    ______ ____
ROOT
ATOM     10  C   UNL     1       1.427  55.539  17.136  0.00  0.00    +0.038 A 
ATOM     11  C   UNL     1       0.141  55.224  16.629  0.00  0.00    +0.047 A 
ATOM     12  C   UNL     1      -1.052  55.879  17.142  0.00  0.00    +0.035 A 
ATOM     32  C   UNL     1      -0.898  56.854  18.171  0.00  0.00    +0.024 A 
ATOM     33  C   UNL     1       0.402  57.186  18.698  0.00  0.00    +0.007 A 
ATOM     34  C   UNL     1       1.582  56.541  18.198  0.00  0.00    -0.029 A 
ATOM     35  C   UNL     1       2.949  56.933  18.805  0.00  0.00    +0.045 C 
ENDROOT
BRANCH  10   9
ATOM      4  C   UNL     1       5.132  55.258  14.098  0.00  0.00    +0.077 A 
ATOM      5  C   UNL     1       4.811  56.520  13.496  0.00  0.00    +0.048 A 
ATOM      6  C   UNL     1       3.680  57.206  13.992  0.00  0.00    +0.116 A 
ATOM      7  N   UNL     1       2.933  56.662  15.015  0.00  0.00    -0.223 NA
ATOM      8  C   UNL     1       3.270  55.442  15.572  0.00  0.00    +0.220 A 
ATOM      9  N   UNL     1       2.538  54.880  16.607  0.00  0.00    -0.283 N 
ATOM     36  H   UNL     1       2.815  53.974  16.986  0.00  0.00    +0.155 HD
ATOM     37  N   UNL     1       4.344  54.766  15.115  0.00  0.00    -0.214 NA
BRANCH   4   3
ATOM      1  C   UNL     1       8.743  53.794  13.748  0.00  0.00    +0.020 A 
ATOM      2  C   UNL     1       7.651  54.638  14.178  0.00  0.00    +0.013 A 
ATOM      3  C   UNL     1       6.298  54.415  13.685  0.00  0.00    +0.019 A 
ATOM     38  C   UNL     1       6.081  53.320  12.751  0.00  0.00    +0.120 A 
ATOM     39  N   UNL     1       7.151  52.525  12.354  0.00  0.00    -0.263 NA
ATOM     40  C   UNL     1       8.458  52.731  12.820  0.00  0.00    +0.111 A 
ENDBRANCH   4   3
ENDBRANCH  10   9
BRANCH  12  13
ATOM     13  N   UNL     1      -2.385  55.593  16.672  0.00  0.00    -0.281 N 
ATOM     14  C   UNL     1      -3.577  55.709  17.368  0.00  0.00    +0.248 C 
ATOM     30  O   UNL     1      -3.658  55.873  18.577  0.00  0.00    -0.270 OA
ATOM     31  H   UNL     1      -2.459  55.267  15.708  0.00  0.00    +0.155 HD
BRANCH  14  15
ATOM     15  C   UNL     1      -4.865  55.614  16.616  0.00  0.00    +0.037 A 
ATOM     16  C   UNL     1      -6.014  56.452  16.969  0.00  0.00    +0.013 A 
ATOM     17  C   UNL     1      -7.251  56.328  16.238  0.00  0.00    +0.005 A 
ATOM     18  C   UNL     1      -7.343  55.363  15.145  0.00  0.00    -0.033 A 
ATOM     28  C   UNL     1      -6.186  54.549  14.813  0.00  0.00    +0.005 A 
ATOM     29  C   UNL     1      -4.973  54.666  15.528  0.00  0.00    +0.013 A 
BRANCH  18  19
ATOM     19  C   UNL     1      -8.629  55.149  14.325  0.00  0.00    +0.119 C 
BRANCH  19  20
ATOM     20  N   UNL     1      -8.579  55.495  12.873  0.00  0.00    -0.302 NA
ATOM     21  C   UNL     1      -9.456  56.705  12.539  0.00  0.00    +0.066 C 
ATOM     22  C   UNL     1      -9.375  57.066  11.020  0.00  0.00    -0.064 C 
ATOM     23  N   UNL     1      -9.788  55.851  10.187  0.00  0.00    +0.379 N 
ATOM     24  C   UNL     1      -9.768  56.205   8.761  0.00  0.00    -0.096 C 
ATOM     25  H   UNL     1     -10.839  55.598  10.459  0.00  0.00    -0.082 HD
ATOM     26  C   UNL     1      -8.923  54.643  10.515  0.00  0.00    -0.064 C 
ATOM     27  C   UNL     1      -8.988  54.310  12.032  0.00  0.00    +0.066 C 
ENDBRANCH  19  20
ENDBRANCH  18  19
ENDBRANCH  14  15
ENDBRANCH  12  13
TORSDOF 6
ENDMDL
MODEL 3
REMARK VINA RESULT:      -8.9      6.193     15.812
REMARK  Name = C:\Users\Docking\Desktop\test protocol\1iep_ligandH.pdb
REMARK  8 active torsions:
REMARK  status: ('A' for Active; 'I' for Inactive)
REMARK    1  A    between atoms: _5  and  _11
REMARK    2  A    between atoms: _19  and  _21
REMARK    3  A    between atoms: _22  and  _66
REMARK    4  A    between atoms: _27  and  _30
REMARK    5  A    between atoms: _32  and  _33
REMARK    6  A    between atoms: _38  and  _43
REMARK    7  A    between atoms: _43  and  _46
REMARK    8  A    between atoms: _53  and  _55
REMARK                            x       y       z     vdW  Elec       q    Type
REMARK                         _______ _______ _______ _____ _____    ______ ____
ROOT
ATOM     10  C   UNL     1     -13.268  63.155  10.958  0.00  0.00    +0.038 A 
ATOM     11  C   UNL     1     -12.327  62.464  11.762  0.00  0.00    +0.047 A 
ATOM     12  C   UNL     1     -12.493  61.052  12.070  0.00  0.00    +0.035 A 
ATOM     32  C   UNL     1     -13.629  60.374  11.538  0.00  0.00    +0.024 A 
ATOM     33  C   UNL     1     -14.596  61.062  10.720  0.00  0.00    +0.007 A 
ATOM     34  C   UNL     1     -14.439  62.455  10.415  0.00  0.00    -0.029 A 
ATOM     35  C   UNL     1     -15.510  63.143   9.537  0.00  0.00    +0.045 C 
ENDROOT
BRANCH  10   9
ATOM      4  C   UNL     1     -11.231  66.718   8.469  0.00  0.00    +0.077 A 
ATOM      5  C   UNL     1     -10.501  65.802   7.641  0.00  0.00    +0.048 A 
ATOM      6  C   UNL     1     -10.672  64.422   7.893  0.00  0.00    +0.116 A 
ATOM      7  N   UNL     1     -11.514  64.001   8.900  0.00  0.00    -0.223 NA
ATOM      8  C   UNL     1     -12.202  64.912   9.681  0.00  0.00    +0.220 A 
ATOM      9  N   UNL     1     -13.059  64.511  10.694  0.00  0.00    -0.283 N 
ATOM     36  H   UNL     1     -13.543  65.213  11.253  0.00  0.00    +0.155 HD
ATOM     37  N   UNL     1     -12.054  66.235   9.462  0.00  0.00    -0.214 NA
BRANCH   4   3
ATOM      1  C   UNL     1      -9.940  70.340   7.751  0.00  0.00    +0.020 A 
ATOM      2  C   UNL     1      -9.958  68.901   7.875  0.00  0.00    +0.013 A 
ATOM      3  C   UNL     1     -11.158  68.206   8.324  0.00  0.00    +0.019 A 
ATOM     38  C   UNL     1     -12.333  69.004   8.641  0.00  0.00    +0.120 A 
ATOM     39  N   UNL     1     -12.286  70.389   8.513  0.00  0.00    -0.263 NA
ATOM     40  C   UNL     1     -11.136  71.068   8.084  0.00  0.00    +0.111 A 
ENDBRANCH   4   3
ENDBRANCH  10   9
BRANCH  12  13
ATOM     13  N   UNL     1     -11.575  60.299  12.888  0.00  0.00    -0.281 N 
ATOM     14  C   UNL     1     -11.656  60.046  14.247  0.00  0.00    +0.248 C 
ATOM     30  O   UNL     1     -12.425  60.612  15.011  0.00  0.00    -0.270 OA
ATOM     31  H   UNL     1     -10.767  59.905  12.406  0.00  0.00    +0.155 HD
BRANCH  14  15
ATOM     15  C   UNL     1     -10.742  59.027  14.848  0.00  0.00    +0.037 A 
ATOM     16  C   UNL     1     -10.592  58.904  16.300  0.00  0.00    +0.013 A 
ATOM     17  C   UNL     1      -9.691  57.924  16.853  0.00  0.00    +0.005 A 
ATOM     18  C   UNL     1      -8.933  57.059  15.952  0.00  0.00    -0.033 A 
ATOM     28  C   UNL     1      -9.106  57.199  14.516  0.00  0.00    +0.005 A 
ATOM     29  C   UNL     1      -9.987  58.159  13.970  0.00  0.00    +0.013 A 
BRANCH  18  19
ATOM     19  C   UNL     1      -7.933  56.000  16.454  0.00  0.00    +0.119 C 
BRANCH  19  20
ATOM     20  N   UNL     1      -6.501  56.408  16.559  0.00  0.00    -0.302 NA
ATOM     21  C   UNL     1      -5.690  55.979  15.333  0.00  0.00    +0.066 C 
ATOM     22  C   UNL     1      -4.198  56.434  15.449  0.00  0.00    -0.064 C 
ATOM     23  N   UNL     1      -3.591  55.858  16.729  0.00  0.00    +0.379 N 
ATOM     24  C   UNL     1      -2.172  56.236  16.812  0.00  0.00    -0.096 C 
ATOM     25  H   UNL     1      -3.641  54.746  16.657  0.00  0.00    -0.082 HD
ATOM     26  C   UNL     1      -4.393  56.278  17.953  0.00  0.00    -0.064 C 
ATOM     27  C   UNL     1      -5.880  55.847  17.814  0.00  0.00    +0.066 C 
ENDBRANCH  19  20
ENDBRANCH  18  19
ENDBRANCH  14  15
ENDBRANCH  12  13
TORSDOF 6
ENDMDL
MODEL 4
REMARK VINA RESULT:      -8.9     10.141     13.548
REMARK  Name = C:\Users\Docking\Desktop\test protocol\1iep_ligandH.pdb
REMARK  8 active torsions:
REMARK  status: ('A' for Active; 'I' for Inactive)
REMARK    1  A    between atoms: _5  and  _11
REMARK    2  A    between atoms: _19  and  _21
REMARK    3  A    between atoms: _22  and  _66
REMARK    4  A    between atoms: _27  and  _30
REMARK    5  A    between atoms: _32  and  _33
REMARK    6  A    between atoms: _38  and  _43
REMARK    7  A    between atoms: _43  and  _46
REMARK    8  A    between atoms: _53  and  _55
REMARK                            x       y       z     vdW  Elec       q    Type
REMARK                         _______ _______ _______ _____ _____    ______ ____
ROOT
ATOM     10  C   UNL     1     -10.741  46.721  11.412  0.00  0.00    +0.038 A 
ATOM     11  C   UNL     1     -10.349  47.996  11.895  0.00  0.00    +0.047 A 
ATOM     12  C   UNL     1     -10.625  49.205  11.136  0.00  0.00    +0.035 A 
ATOM     32  C   UNL     1     -11.305  49.080   9.889  0.00  0.00    +0.024 A 
ATOM     33  C   UNL     1     -11.710  47.792   9.382  0.00  0.00    +0.007 A 
ATOM     34  C   UNL     1     -11.438  46.595  10.126  0.00  0.00    -0.029 A 
ATOM     35  C   UNL     1     -11.889  45.241   9.531  0.00  0.00    +0.045 C 
ENDROOT
BRANCH  10   9
ATOM      4  C   UNL     1      -7.845  43.128  12.731  0.00  0.00    +0.077 A 
ATOM      5  C   UNL     1      -6.836  43.516  11.788  0.00  0.00    +0.048 A 
ATOM      6  C   UNL     1      -7.105  44.642  10.977  0.00  0.00    +0.116 A 
ATOM      7  N   UNL     1      -8.296  45.321  11.108  0.00  0.00    -0.223 NA
ATOM      8  C   UNL     1      -9.249  44.919  12.027  0.00  0.00    +0.220 A 
ATOM      9  N   UNL     1     -10.451  45.592  12.182  0.00  0.00    -0.283 N 
ATOM     36  H   UNL     1     -11.130  45.260  12.865  0.00  0.00    +0.155 HD
ATOM     37  N   UNL     1      -9.017  43.847  12.812  0.00  0.00    -0.214 NA
BRANCH   4   3
ATOM      1  C   UNL     1      -6.883  40.883  15.787  0.00  0.00    +0.020 A 
ATOM      2  C   UNL     1      -6.986  42.038  14.925  0.00  0.00    +0.013 A 
ATOM      3  C   UNL     1      -7.707  41.963  13.661  0.00  0.00    +0.019 A 
ATOM     38  C   UNL     1      -8.318  40.693  13.295  0.00  0.00    +0.120 A 
ATOM     39  N   UNL     1      -8.201  39.597  14.144  0.00  0.00    -0.263 NA
ATOM     40  C   UNL     1      -7.508  39.658  15.363  0.00  0.00    +0.111 A 
ENDBRANCH   4   3
ENDBRANCH  10   9
BRANCH  12  13
ATOM     13  N   UNL     1     -10.245  50.526  11.572  0.00  0.00    -0.281 N 
ATOM     14  C   UNL     1      -9.155  51.277  11.161  0.00  0.00    +0.248 C 
ATOM     30  O   UNL     1      -8.219  50.838  10.511  0.00  0.00    -0.270 OA
ATOM     31  H   UNL     1     -10.852  50.960  12.267  0.00  0.00    +0.155 HD
BRANCH  14  15
ATOM     15  C   UNL     1      -9.090  52.721  11.541  0.00  0.00    +0.037 A 
ATOM     16  C   UNL     1      -9.606  53.765  10.652  0.00  0.00    +0.013 A 
ATOM     17  C   UNL     1      -9.515  55.151  11.035  0.00  0.00    +0.005 A 
ATOM     18  C   UNL     1      -8.906  55.502  12.315  0.00  0.00    -0.033 A 
ATOM     28  C   UNL     1      -8.406  54.446  13.181  0.00  0.00    +0.005 A 
ATOM     29  C   UNL     1      -8.493  53.086  12.808  0.00  0.00    +0.013 A 
BRANCH  18  19
ATOM     19  C   UNL     1      -8.747  56.957  12.796  0.00  0.00    +0.119 C 
BRANCH  19  20
ATOM     20  N   UNL     1      -9.909  57.574  13.503  0.00  0.00    -0.302 NA
ATOM     21  C   UNL     1     -10.146  59.022  13.065  0.00  0.00    +0.066 C 
ATOM     22  C   UNL     1     -11.378  59.644  13.799  0.00  0.00    -0.064 C 
ATOM     23  N   UNL     1     -11.162  59.564  15.311  0.00  0.00    +0.379 N 
ATOM     24  C   UNL     1     -12.293  60.200  16.002  0.00  0.00    -0.096 C 
ATOM     25  H   UNL     1     -10.245  60.149  15.553  0.00  0.00    -0.082 HD
ATOM     26  C   UNL     1     -10.923  58.128  15.755  0.00  0.00    -0.064 C 
ATOM     27  C   UNL     1      -9.715  57.509  14.998  0.00  0.00    +0.066 C 
ENDBRANCH  19  20
ENDBRANCH  18  19
ENDBRANCH  14  15
ENDBRANCH  12  13
TORSDOF 6
ENDMDL
MODEL 5
REMARK VINA RESULT:      -8.7      8.997     14.628
REMARK  Name = C:\Users\Docking\Desktop\test protocol\1iep_ligandH.pdb
REMARK  8 active torsions:
REMARK  status: ('A' for Active; 'I' for Inactive)
REMARK    1  A    between atoms: _5  and  _11
REMARK    2  A    between atoms: _19  and  _21
REMARK    3  A    between atoms: _22  and  _66
REMARK    4  A    between atoms: _27  and  _30
REMARK    5  A    between atoms: _32  and  _33
REMARK    6  A    between atoms: _38  and  _43
REMARK    7  A    between atoms: _43  and  _46
REMARK    8  A    between atoms: _53  and  _55
REMARK                            x       y       z     vdW  Elec       q    Type
REMARK                         _______ _______ _______ _____ _____    ______ ____
ROOT
ATOM     10  C   UNL     1      -8.529  53.848  10.437  0.00  0.00    +0.038 A 
ATOM     11  C   UNL     1      -8.838  52.481  10.656  0.00  0.00    +0.047 A 
ATOM     12  C   UNL     1      -8.051  51.424  10.039  0.00  0.00    +0.035 A 
ATOM     32  C   UNL     1      -6.955  51.796   9.207  0.00  0.00    +0.024 A 
ATOM     33  C   UNL     1      -6.628  53.180   8.973  0.00  0.00    +0.007 A 
ATOM     34  C   UNL     1      -7.402  54.227   9.577  0.00  0.00    -0.029 A 
ATOM     35  C   UNL     1      -7.010  55.695   9.286  0.00  0.00    +0.045 C 
ENDROOT
BRANCH  10   9
ATOM      4  C   UNL     1      -9.365  57.023  13.939  0.00  0.00    +0.077 A 
ATOM      5  C   UNL     1      -8.140  56.695  14.610  0.00  0.00    +0.048 A 
ATOM      6  C   UNL     1      -7.327  55.699  14.024  0.00  0.00    +0.116 A 
ATOM      7  N   UNL     1      -7.719  55.083  12.855  0.00  0.00    -0.223 NA
ATOM      8  C   UNL     1      -8.907  55.422  12.235  0.00  0.00    +0.220 A 
ATOM      9  N   UNL     1      -9.318  54.822  11.055  0.00  0.00    -0.283 N 
ATOM     36  H   UNL     1     -10.205  55.094  10.633  0.00  0.00    +0.155 HD
ATOM     37  N   UNL     1      -9.703  56.369  12.775  0.00  0.00    -0.214 NA
BRANCH   4   3
ATOM      1  C   UNL     1     -11.982  58.951  16.115  0.00  0.00    +0.020 A 
ATOM      2  C   UNL     1     -11.063  57.923  15.684  0.00  0.00    +0.013 A 
ATOM      3  C   UNL     1     -10.330  58.057  14.432  0.00  0.00    +0.019 A 
ATOM     38  C   UNL     1     -10.551  59.252  13.632  0.00  0.00    +0.120 A 
ATOM     39  N   UNL     1     -11.444  60.225  14.071  0.00  0.00    -0.263 NA
ATOM     40  C   UNL     1     -12.156  60.106  15.274  0.00  0.00    +0.111 A 
ENDBRANCH   4   3
ENDBRANCH  10   9
BRANCH  12  13
ATOM     13  N   UNL     1      -8.322  50.020  10.218  0.00  0.00    -0.281 N 
ATOM     14  C   UNL     1      -7.422  49.010  10.516  0.00  0.00    +0.248 C 
ATOM     30  O   UNL     1      -6.207  49.130  10.462  0.00  0.00    -0.270 OA
ATOM     31  H   UNL     1      -9.296  49.735  10.113  0.00  0.00    +0.155 HD
BRANCH  14  15
ATOM     15  C   UNL     1      -7.946  47.669  10.917  0.00  0.00    +0.037 A 
ATOM     16  C   UNL     1      -7.473  46.443  10.269  0.00  0.00    +0.013 A 
ATOM     17  C   UNL     1      -8.009  45.164  10.663  0.00  0.00    +0.005 A 
ATOM     18  C   UNL     1      -9.023  45.105  11.712  0.00  0.00    -0.033 A 
ATOM     28  C   UNL     1      -9.471  46.336  12.342  0.00  0.00    +0.005 A 
ATOM     29  C   UNL     1      -8.950  47.592  11.957  0.00  0.00    +0.013 A 
BRANCH  18  19
ATOM     19  C   UNL     1      -9.666  43.786  12.181  0.00  0.00    +0.119 C 
BRANCH  19  20
ATOM     20  N   UNL     1      -8.779  42.801  12.871  0.00  0.00    -0.302 NA
ATOM     21  C   UNL     1      -9.574  41.649  13.492  0.00  0.00    +0.066 C 
ATOM     22  C   UNL     1      -8.630  40.617  14.189  0.00  0.00    -0.064 C 
ATOM     23  N   UNL     1      -7.793  41.332  15.252  0.00  0.00    +0.379 N 
ATOM     24  C   UNL     1      -6.946  40.354  15.949  0.00  0.00    -0.096 C 
ATOM     25  H   UNL     1      -8.496  41.765  16.000  0.00  0.00    -0.082 HD
ATOM     26  C   UNL     1      -7.002  42.481  14.643  0.00  0.00    -0.064 C 
ATOM     27  C   UNL     1      -7.947  43.485  13.927  0.00  0.00    +0.066 C 
ENDBRANCH  19  20
ENDBRANCH  18  19
ENDBRANCH  14  15
ENDBRANCH  12  13
TORSDOF 6
ENDMDL
