MODEL 1
REMARK VINA RESULT:      -8.0      0.000      0.000
REMARK  Name = C:\Users\Docking\Desktop\test protocol\1iep_ligandH.pdb
REMARK  8 active torsions:
REMARK  status: ('A' for Active; 'I' for Inactive)
REMARK    1  A    between atoms: _5  and  _11
REMARK    2  A    between atoms: _19  and  _21
REMARK    3  A    between atoms: _22  and  _66
REMARK    4  A    between atoms: _27  and  _30
REMARK    5  A    between atoms: _32  and  _33
REMARK    6  A    between atoms: _38  and  _43
REMARK    7  A    between atoms: _43  and  _46
REMARK    8  A    between atoms: _53  and  _55
REMARK                            x       y       z     vdW  Elec       q    Type
REMARK                         _______ _______ _______ _____ _____    ______ ____
ROOT
ATOM     10  C   UNL     1     -28.793 -19.659 -11.843  0.00  0.00    +0.038 A 
ATOM     11  C   UNL     1     -29.345 -20.958 -11.985  0.00  0.00    +0.047 A 
ATOM     12  C   UNL     1     -29.404 -21.613 -13.282  0.00  0.00    +0.035 A 
ATOM     32  C   UNL     1     -28.890 -20.916 -14.415  0.00  0.00    +0.024 A 
ATOM     33  C   UNL     1     -28.327 -19.595 -14.289  0.00  0.00    +0.007 A 
ATOM     34  C   UNL     1     -28.268 -18.943 -13.012  0.00  0.00    -0.029 A 
ATOM     35  C   UNL     1     -27.659 -17.523 -12.936  0.00  0.00    +0.045 C 
ENDROOT
BRANCH  10   9
ATOM      4  C   UNL     1     -30.794 -17.105  -8.305  0.00  0.00    +0.077 A 
ATOM      5  C   UNL     1     -31.994 -16.888  -9.061  0.00  0.00    +0.048 A 
ATOM      6  C   UNL     1     -32.053 -17.444 -10.359  0.00  0.00    +0.116 A 
ATOM      7  N   UNL     1     -30.986 -18.162 -10.853  0.00  0.00    -0.223 NA
ATOM      8  C   UNL     1     -29.843 -18.352 -10.099  0.00  0.00    +0.220 A 
ATOM      9  N   UNL     1     -28.761 -19.078 -10.573  0.00  0.00    -0.283 N 
ATOM     36  H   UNL     1     -27.933 -19.189  -9.989  0.00  0.00    +0.155 HD
ATOM     37  N   UNL     1     -29.761 -17.830  -8.857  0.00  0.00    -0.214 NA
BRANCH   4   3
ATOM      1  C   UNL     1     -31.148 -16.465  -4.463  0.00  0.00    +0.020 A 
ATOM      2  C   UNL     1     -31.396 -16.998  -5.783  0.00  0.00    +0.013 A 
ATOM      3  C   UNL     1     -30.581 -16.584  -6.918  0.00  0.00    +0.019 A 
ATOM     38  C   UNL     1     -29.516 -15.622  -6.682  0.00  0.00    +0.120 A 
ATOM     39  N   UNL     1     -29.302 -15.124  -5.401  0.00  0.00    -0.263 NA
ATOM     40  C   UNL     1     -30.080 -15.514  -4.301  0.00  0.00    +0.111 A 
ENDBRANCH   4   3
ENDBRANCH  10   9
BRANCH  12  13
ATOM     13  N   UNL     1     -29.960 -22.927 -13.489  0.00  0.00    -0.281 N 
ATOM     14  C   UNL     1     -31.295 -23.278 -13.606  0.00  0.00    +0.248 C 
ATOM     30  O   UNL     1     -32.230 -22.539 -13.337  0.00  0.00    -0.270 OA
ATOM     31  H   UNL     1     -29.288 -23.691 -13.557  0.00  0.00    +0.155 HD
BRANCH  14  15
ATOM     15  C   UNL     1     -31.641 -24.653 -14.078  0.00  0.00    +0.037 A 
ATOM     16  C   UNL     1     -32.738 -24.879 -15.022  0.00  0.00    +0.013 A 
ATOM     17  C   UNL     1     -33.062 -26.218 -15.448  0.00  0.00    +0.005 A 
ATOM     18  C   UNL     1     -32.286 -27.342 -14.929  0.00  0.00    -0.033 A 
ATOM     28  C   UNL     1     -31.199 -27.089 -13.997  0.00  0.00    +0.005 A 
ATOM     29  C   UNL     1     -30.880 -25.778 -13.577  0.00  0.00    +0.013 A 
BRANCH  18  19
ATOM     19  C   UNL     1     -32.575 -28.805 -15.312  0.00  0.00    +0.119 C 
BRANCH  19  20
ATOM     20  N   UNL     1     -34.007 -29.218 -15.406  0.00  0.00    -0.302 NA
ATOM     21  C   UNL     1     -34.729 -29.094 -14.061  0.00  0.00    +0.066 C 
ATOM     22  C   UNL     1     -36.232 -29.508 -14.182  0.00  0.00    -0.064 C 
ATOM     23  N   UNL     1     -36.323 -30.938 -14.715  0.00  0.00    +0.379 N 
ATOM     24  C   UNL     1     -37.733 -31.351 -14.775  0.00  0.00    -0.096 C 
ATOM     25  H   UNL     1     -35.806 -31.604 -13.986  0.00  0.00    -0.082 HD
ATOM     26  C   UNL     1     -35.605 -31.071 -16.051  0.00  0.00    -0.064 C 
ATOM     27  C   UNL     1     -34.120 -30.629 -15.927  0.00  0.00    +0.066 C 
ENDBRANCH  19  20
ENDBRANCH  18  19
ENDBRANCH  14  15
ENDBRANCH  12  13
TORSDOF 6
ENDMDL
MODEL 2
REMARK VINA RESULT:      -7.8      1.616      2.408
REMARK  Name = C:\Users\Docking\Desktop\test protocol\1iep_ligandH.pdb
REMARK  8 active torsions:
REMARK  status: ('A' for Active; 'I' for Inactive)
REMARK    1  A    between atoms: _5  and  _11
REMARK    2  A    between atoms: _19  and  _21
REMARK    3  A    between atoms: _22  and  _66
REMARK    4  A    between atoms: _27  and  _30
REMARK    5  A    between atoms: _32  and  _33
REMARK    6  A    between atoms: _38  and  _43
REMARK    7  A    between atoms: _43  and  _46
REMARK    8  A    between atoms: _53  and  _55
REMARK                            x       y       z     vdW  Elec       q    Type
REMARK                         _______ _______ _______ _____ _____    ______ ____
ROOT
ATOM     10  C   UNL     1     -28.963 -20.108 -12.065  0.00  0.00    +0.038 A 
ATOM     11  C   UNL     1     -29.582 -21.383 -12.098  0.00  0.00    +0.047 A 
ATOM     12  C   UNL     1     -29.706 -22.128 -13.342  0.00  0.00    +0.035 A 
ATOM     32  C   UNL     1     -29.185 -21.544 -14.533  0.00  0.00    +0.024 A 
ATOM     33  C   UNL     1     -28.554 -20.248 -14.519  0.00  0.00    +0.007 A 
ATOM     34  C   UNL     1     -28.431 -19.508 -13.295  0.00  0.00    -0.029 A 
ATOM     35  C   UNL     1     -27.751 -18.119 -13.339  0.00  0.00    +0.045 C 
ENDROOT
BRANCH  10   9
ATOM      4  C   UNL     1     -30.780 -17.269  -8.648  0.00  0.00    +0.077 A 
ATOM      5  C   UNL     1     -32.006 -17.086  -9.369  0.00  0.00    +0.048 A 
ATOM      6  C   UNL     1     -32.126 -17.733 -10.620  0.00  0.00    +0.116 A 
ATOM      7  N   UNL     1     -31.091 -18.504 -11.102  0.00  0.00    -0.223 NA
ATOM      8  C   UNL     1     -29.921 -18.659 -10.381  0.00  0.00    +0.220 A 
ATOM      9  N   UNL     1     -28.871 -19.437 -10.844  0.00  0.00    -0.283 N 
ATOM     36  H   UNL     1     -28.021 -19.520 -10.286  0.00  0.00    +0.155 HD
ATOM     37  N   UNL     1     -29.781 -18.050  -9.186  0.00  0.00    -0.214 NA
BRANCH   4   3
ATOM      1  C   UNL     1     -29.163 -15.179  -5.763  0.00  0.00    +0.020 A 
ATOM      2  C   UNL     1     -29.386 -15.748  -7.073  0.00  0.00    +0.013 A 
ATOM      3  C   UNL     1     -30.503 -16.653  -7.311  0.00  0.00    +0.019 A 
ATOM     38  C   UNL     1     -31.383 -16.965  -6.195  0.00  0.00    +0.120 A 
ATOM     39  N   UNL     1     -31.143 -16.404  -4.945  0.00  0.00    -0.263 NA
ATOM     40  C   UNL     1     -30.070 -15.533  -4.703  0.00  0.00    +0.111 A 
ENDBRANCH   4   3
ENDBRANCH  10   9
BRANCH  12  13
ATOM     13  N   UNL     1     -30.331 -23.423 -13.438  0.00  0.00    -0.281 N 
ATOM     14  C   UNL     1     -31.643 -23.713 -13.778  0.00  0.00    +0.248 C 
ATOM     30  O   UNL     1     -32.538 -22.884 -13.843  0.00  0.00    -0.270 OA
ATOM     31  H   UNL     1     -29.735 -24.224 -13.230  0.00  0.00    +0.155 HD
BRANCH  14  15
ATOM     15  C   UNL     1     -32.016 -25.130 -14.073  0.00  0.00    +0.037 A 
ATOM     16  C   UNL     1     -33.288 -25.461 -14.720  0.00  0.00    +0.013 A 
ATOM     17  C   UNL     1     -33.631 -26.837 -14.978  0.00  0.00    +0.005 A 
ATOM     18  C   UNL     1     -32.699 -27.893 -14.590  0.00  0.00    -0.033 A 
ATOM     28  C   UNL     1     -31.442 -27.535 -13.954  0.00  0.00    +0.005 A 
ATOM     29  C   UNL     1     -31.102 -26.188 -13.698  0.00  0.00    +0.013 A 
BRANCH  18  19
ATOM     19  C   UNL     1     -32.992 -29.389 -14.807  0.00  0.00    +0.119 C 
BRANCH  19  20
ATOM     20  N   UNL     1     -32.186 -30.100 -15.844  0.00  0.00    -0.302 NA
ATOM     21  C   UNL     1     -32.716 -29.846 -17.258  0.00  0.00    +0.066 C 
ATOM     22  C   UNL     1     -31.848 -30.579 -18.332  0.00  0.00    -0.064 C 
ATOM     23  N   UNL     1     -31.820 -32.077 -18.025  0.00  0.00    +0.379 N 
ATOM     24  C   UNL     1     -31.052 -32.777 -19.065  0.00  0.00    -0.096 C 
ATOM     25  H   UNL     1     -32.869 -32.451 -18.070  0.00  0.00    -0.082 HD
ATOM     26  C   UNL     1     -31.296 -32.339 -16.620  0.00  0.00    -0.064 C 
ATOM     27  C   UNL     1     -32.148 -31.582 -15.563  0.00  0.00    +0.066 C 
ENDBRANCH  19  20
ENDBRANCH  18  19
ENDBRANCH  14  15
ENDBRANCH  12  13
TORSDOF 6
ENDMDL
MODEL 3
REMARK VINA RESULT:      -7.4      1.847      2.693
REMARK  Name = C:\Users\Docking\Desktop\test protocol\1iep_ligandH.pdb
REMARK  8 active torsions:
REMARK  status: ('A' for Active; 'I' for Inactive)
REMARK    1  A    between atoms: _5  and  _11
REMARK    2  A    between atoms: _19  and  _21
REMARK    3  A    between atoms: _22  and  _66
REMARK    4  A    between atoms: _27  and  _30
REMARK    5  A    between atoms: _32  and  _33
REMARK    6  A    between atoms: _38  and  _43
REMARK    7  A    between atoms: _43  and  _46
REMARK    8  A    between atoms: _53  and  _55
REMARK                            x       y       z     vdW  Elec       q    Type
REMARK                         _______ _______ _______ _____ _____    ______ ____
ROOT
ATOM     10  C   UNL     1     -29.717 -20.916 -13.023  0.00  0.00    +0.038 A 
ATOM     11  C   UNL     1     -30.456 -22.121 -13.143  0.00  0.00    +0.047 A 
ATOM     12  C   UNL     1     -30.407 -22.916 -14.360  0.00  0.00    +0.035 A 
ATOM     32  C   UNL     1     -29.593 -22.455 -15.435  0.00  0.00    +0.024 A 
ATOM     33  C   UNL     1     -28.836 -21.232 -15.331  0.00  0.00    +0.007 A 
ATOM     34  C   UNL     1     -28.882 -20.443 -14.134  0.00  0.00    -0.029 A 
ATOM     35  C   UNL     1     -28.056 -19.137 -14.080  0.00  0.00    +0.045 C 
ENDROOT
BRANCH  10   9
ATOM      4  C   UNL     1     -31.715 -17.547 -10.249  0.00  0.00    +0.077 A 
ATOM      5  C   UNL     1     -32.654 -17.179 -11.269  0.00  0.00    +0.048 A 
ATOM      6  C   UNL     1     -32.585 -17.877 -12.496  0.00  0.00    +0.116 A 
ATOM      7  N   UNL     1     -31.643 -18.866 -12.678  0.00  0.00    -0.223 NA
ATOM      8  C   UNL     1     -30.751 -19.195 -11.673  0.00  0.00    +0.220 A 
ATOM      9  N   UNL     1     -29.801 -20.192 -11.831  0.00  0.00    -0.283 N 
ATOM     36  H   UNL     1     -29.157 -20.400 -11.069  0.00  0.00    +0.155 HD
ATOM     37  N   UNL     1     -30.796 -18.543 -10.493  0.00  0.00    -0.214 NA
BRANCH   4   3
ATOM      1  C   UNL     1     -32.074 -14.978  -7.321  0.00  0.00    +0.020 A 
ATOM      2  C   UNL     1     -32.145 -15.552  -8.645  0.00  0.00    +0.013 A 
ATOM      3  C   UNL     1     -31.665 -16.905  -8.897  0.00  0.00    +0.019 A 
ATOM     38  C   UNL     1     -31.116 -17.657  -7.779  0.00  0.00    +0.120 A 
ATOM     39  N   UNL     1     -31.059 -17.078  -6.515  0.00  0.00    -0.263 NA
ATOM     40  C   UNL     1     -31.516 -15.776  -6.261  0.00  0.00    +0.111 A 
ENDBRANCH   4   3
ENDBRANCH  10   9
BRANCH  12  13
ATOM     13  N   UNL     1     -31.142 -24.143 -14.543  0.00  0.00    -0.281 N 
ATOM     14  C   UNL     1     -31.060 -25.304 -13.792  0.00  0.00    +0.248 C 
ATOM     30  O   UNL     1     -30.183 -25.538 -12.974  0.00  0.00    -0.270 OA
ATOM     31  H   UNL     1     -31.802 -24.157 -15.320  0.00  0.00    +0.155 HD
BRANCH  14  15
ATOM     15  C   UNL     1     -32.095 -26.364 -13.987  0.00  0.00    +0.037 A 
ATOM     16  C   UNL     1     -31.922 -27.707 -13.428  0.00  0.00    +0.013 A 
ATOM     17  C   UNL     1     -32.927 -28.717 -13.646  0.00  0.00    +0.005 A 
ATOM     18  C   UNL     1     -34.117 -28.386 -14.427  0.00  0.00    -0.033 A 
ATOM     28  C   UNL     1     -34.266 -27.044 -14.966  0.00  0.00    +0.005 A 
ATOM     29  C   UNL     1     -33.282 -26.053 -14.755  0.00  0.00    +0.013 A 
BRANCH  18  19
ATOM     19  C   UNL     1     -35.231 -29.407 -14.728  0.00  0.00    +0.119 C 
BRANCH  19  20
ATOM     20  N   UNL     1     -36.628 -29.019 -14.370  0.00  0.00    -0.302 NA
ATOM     21  C   UNL     1     -36.770 -28.694 -12.880  0.00  0.00    +0.066 C 
ATOM     22  C   UNL     1     -38.233 -28.268 -12.528  0.00  0.00    -0.064 C 
ATOM     23  N   UNL     1     -39.197 -29.385 -12.933  0.00  0.00    +0.379 N 
ATOM     24  C   UNL     1     -40.567 -29.013 -12.550  0.00  0.00    -0.096 C 
ATOM     25  H   UNL     1     -38.920 -30.297 -12.355  0.00  0.00    -0.082 HD
ATOM     26  C   UNL     1     -39.060 -29.717 -14.412  0.00  0.00    -0.064 C 
ATOM     27  C   UNL     1     -37.596 -30.109 -14.757  0.00  0.00    +0.066 C 
ENDBRANCH  19  20
ENDBRANCH  18  19
ENDBRANCH  14  15
ENDBRANCH  12  13
TORSDOF 6
ENDMDL
MODEL 4
REMARK VINA RESULT:      -7.2      2.472      3.845
REMARK  Name = C:\Users\Docking\Desktop\test protocol\1iep_ligandH.pdb
REMARK  8 active torsions:
REMARK  status: ('A' for Active; 'I' for Inactive)
REMARK    1  A    between atoms: _5  and  _11
REMARK    2  A    between atoms: _19  and  _21
REMARK    3  A    between atoms: _22  and  _66
REMARK    4  A    between atoms: _27  and  _30
REMARK    5  A    between atoms: _32  and  _33
REMARK    6  A    between atoms: _38  and  _43
REMARK    7  A    between atoms: _43  and  _46
REMARK    8  A    between atoms: _53  and  _55
REMARK                            x       y       z     vdW  Elec       q    Type
REMARK                         _______ _______ _______ _____ _____    ______ ____
ROOT
ATOM     10  C   UNL     1     -30.398 -20.991 -14.544  0.00  0.00    +0.038 A 
ATOM     11  C   UNL     1     -30.761 -22.362 -14.515  0.00  0.00    +0.047 A 
ATOM     12  C   UNL     1     -30.242 -23.298 -15.500  0.00  0.00    +0.035 A 
ATOM     32  C   UNL     1     -29.354 -22.804 -16.500  0.00  0.00    +0.024 A 
ATOM     33  C   UNL     1     -28.976 -21.413 -16.544  0.00  0.00    +0.007 A 
ATOM     34  C   UNL     1     -29.486 -20.485 -15.577  0.00  0.00    -0.029 A 
ATOM     35  C   UNL     1     -29.052 -19.004 -15.676  0.00  0.00    +0.045 C 
ENDROOT
BRANCH  10   9
ATOM      4  C   UNL     1     -30.120 -18.648 -10.364  0.00  0.00    +0.077 A 
ATOM      5  C   UNL     1     -28.825 -19.194 -10.077  0.00  0.00    +0.048 A 
ATOM      6  C   UNL     1     -28.268 -20.080 -11.027  0.00  0.00    +0.116 A 
ATOM      7  N   UNL     1     -28.964 -20.388 -12.176  0.00  0.00    -0.223 NA
ATOM      8  C   UNL     1     -30.212 -19.846 -12.421  0.00  0.00    +0.220 A 
ATOM      9  N   UNL     1     -30.926 -20.136 -13.574  0.00  0.00    -0.283 N 
ATOM     36  H   UNL     1     -31.847 -19.721 -13.714  0.00  0.00    +0.155 HD
ATOM     37  N   UNL     1     -30.766 -18.999 -11.529  0.00  0.00    -0.214 NA
BRANCH   4   3
ATOM      1  C   UNL     1     -31.460 -16.817  -7.178  0.00  0.00    +0.020 A 
ATOM      2  C   UNL     1     -30.746 -17.762  -8.006  0.00  0.00    +0.013 A 
ATOM      3  C   UNL     1     -30.838 -17.696  -9.459  0.00  0.00    +0.019 A 
ATOM     38  C   UNL     1     -31.666 -16.654 -10.047  0.00  0.00    +0.120 A 
ATOM     39  N   UNL     1     -32.343 -15.759  -9.224  0.00  0.00    -0.263 NA
ATOM     40  C   UNL     1     -32.264 -15.814  -7.825  0.00  0.00    +0.111 A 
ENDBRANCH   4   3
ENDBRANCH  10   9
BRANCH  12  13
ATOM     13  N   UNL     1     -30.581 -24.699 -15.526  0.00  0.00    -0.281 N 
ATOM     14  C   UNL     1     -30.713 -25.564 -14.452  0.00  0.00    +0.248 C 
ATOM     30  O   UNL     1     -30.348 -25.311 -13.313  0.00  0.00    -0.270 OA
ATOM     31  H   UNL     1     -30.744 -25.103 -16.449  0.00  0.00    +0.155 HD
BRANCH  14  15
ATOM     15  C   UNL     1     -31.325 -26.908 -14.677  0.00  0.00    +0.037 A 
ATOM     16  C   UNL     1     -32.015 -27.620 -13.598  0.00  0.00    +0.013 A 
ATOM     17  C   UNL     1     -32.582 -28.923 -13.838  0.00  0.00    +0.005 A 
ATOM     18  C   UNL     1     -32.463 -29.523 -15.165  0.00  0.00    -0.033 A 
ATOM     28  C   UNL     1     -31.778 -28.793 -16.219  0.00  0.00    +0.005 A 
ATOM     29  C   UNL     1     -31.220 -27.515 -15.987  0.00  0.00    +0.013 A 
BRANCH  18  19
ATOM     19  C   UNL     1     -33.019 -30.918 -15.506  0.00  0.00    +0.119 C 
BRANCH  19  20
ATOM     20  N   UNL     1     -32.535 -31.559 -16.765  0.00  0.00    -0.302 NA
ATOM     21  C   UNL     1     -33.657 -32.293 -17.504  0.00  0.00    +0.066 C 
ATOM     22  C   UNL     1     -33.138 -32.938 -18.830  0.00  0.00    -0.064 C 
ATOM     23  N   UNL     1     -31.984 -33.891 -18.513  0.00  0.00    +0.379 N 
ATOM     24  C   UNL     1     -31.532 -34.543 -19.751  0.00  0.00    -0.096 C 
ATOM     25  H   UNL     1     -32.377 -34.685 -17.837  0.00  0.00    -0.082 HD
ATOM     26  C   UNL     1     -30.865 -33.169 -17.776  0.00  0.00    -0.064 C 
ATOM     27  C   UNL     1     -31.398 -32.507 -16.475  0.00  0.00    +0.066 C 
ENDBRANCH  19  20
ENDBRANCH  18  19
ENDBRANCH  14  15
ENDBRANCH  12  13
TORSDOF 6
ENDMDL
MODEL 5
REMARK VINA RESULT:      -7.1      4.831     15.219
REMARK  Name = C:\Users\Docking\Desktop\test protocol\1iep_ligandH.pdb
REMARK  8 active torsions:
REMARK  status: ('A' for Active; 'I' for Inactive)
REMARK    1  A    between atoms: _5  and  _11
REMARK    2  A    between atoms: _19  and  _21
REMARK    3  A    between atoms: _22  and  _66
REMARK    4  A    between atoms: _27  and  _30
REMARK    5  A    between atoms: _32  and  _33
REMARK    6  A    between atoms: _38  and  _43
REMARK    7  A    between atoms: _43  and  _46
REMARK    8  A    between atoms: _53  and  _55
REMARK                            x       y       z     vdW  Elec       q    Type
REMARK                         _______ _______ _______ _____ _____    ______ ____
ROOT
ATOM     10  C   UNL     1     -35.709 -30.670 -15.811  0.00  0.00    +0.038 A 
ATOM     11  C   UNL     1     -34.756 -29.623 -15.729  0.00  0.00    +0.047 A 
ATOM     12  C   UNL     1     -34.813 -28.635 -14.662  0.00  0.00    +0.035 A 
ATOM     32  C   UNL     1     -35.853 -28.746 -13.694  0.00  0.00    +0.024 A 
ATOM     33  C   UNL     1     -36.830 -29.804 -13.763  0.00  0.00    +0.007 A 
ATOM     34  C   UNL     1     -36.781 -30.779 -14.814  0.00  0.00    -0.029 A 
ATOM     35  C   UNL     1     -37.859 -31.887 -14.842  0.00  0.00    +0.045 C 
ENDROOT
BRANCH  10   9
ATOM      4  C   UNL     1     -33.653 -34.450 -17.937  0.00  0.00    +0.077 A 
ATOM      5  C   UNL     1     -32.682 -34.586 -16.889  0.00  0.00    +0.048 A 
ATOM      6  C   UNL     1     -32.742 -33.659 -15.824  0.00  0.00    +0.116 A 
ATOM      7  N   UNL     1     -33.705 -32.673 -15.819  0.00  0.00    -0.223 NA
ATOM      8  C   UNL     1     -34.625 -32.569 -16.846  0.00  0.00    +0.220 A 
ATOM      9  N   UNL     1     -35.607 -31.590 -16.857  0.00  0.00    -0.283 N 
ATOM     36  H   UNL     1     -36.262 -31.542 -17.636  0.00  0.00    +0.155 HD
ATOM     37  N   UNL     1     -34.588 -33.441 -17.874  0.00  0.00    -0.214 NA
BRANCH   4   3
ATOM      1  C   UNL     1     -33.080 -37.446 -20.386  0.00  0.00    +0.020 A 
ATOM      2  C   UNL     1     -32.979 -36.607 -19.214  0.00  0.00    +0.013 A 
ATOM      3  C   UNL     1     -33.721 -35.356 -19.127  0.00  0.00    +0.019 A 
ATOM     38  C   UNL     1     -34.563 -34.979 -20.252  0.00  0.00    +0.120 A 
ATOM     39  N   UNL     1     -34.639 -35.805 -21.369  0.00  0.00    -0.263 NA
ATOM     40  C   UNL     1     -33.929 -37.011 -21.464  0.00  0.00    +0.111 A 
ENDBRANCH   4   3
ENDBRANCH  10   9
BRANCH  12  13
ATOM     13  N   UNL     1     -33.878 -27.545 -14.533  0.00  0.00    -0.281 N 
ATOM     14  C   UNL     1     -34.060 -26.220 -14.890  0.00  0.00    +0.248 C 
ATOM     30  O   UNL     1     -34.984 -25.810 -15.576  0.00  0.00    -0.270 OA
ATOM     31  H   UNL     1     -32.971 -27.780 -14.128  0.00  0.00    +0.155 HD
BRANCH  14  15
ATOM     15  C   UNL     1     -33.064 -25.204 -14.430  0.00  0.00    +0.037 A 
ATOM     16  C   UNL     1     -31.668 -25.569 -14.180  0.00  0.00    +0.013 A 
ATOM     17  C   UNL     1     -30.731 -24.574 -13.721  0.00  0.00    +0.005 A 
ATOM     18  C   UNL     1     -31.190 -23.202 -13.510  0.00  0.00    -0.033 A 
ATOM     28  C   UNL     1     -32.580 -22.867 -13.772  0.00  0.00    +0.005 A 
ATOM     29  C   UNL     1     -33.500 -23.840 -14.221  0.00  0.00    +0.013 A 
BRANCH  18  19
ATOM     19  C   UNL     1     -30.265 -22.080 -13.002  0.00  0.00    +0.119 C 
BRANCH  19  20
ATOM     20  N   UNL     1     -29.251 -21.544 -13.958  0.00  0.00    -0.302 NA
ATOM     21  C   UNL     1     -27.999 -21.032 -13.240  0.00  0.00    +0.066 C 
ATOM     22  C   UNL     1     -26.939 -20.496 -14.257  0.00  0.00    -0.064 C 
ATOM     23  N   UNL     1     -27.567 -19.389 -15.107  0.00  0.00    +0.379 N 
ATOM     24  C   UNL     1     -26.556 -18.843 -16.024  0.00  0.00    -0.096 C 
ATOM     25  H   UNL     1     -27.878 -18.569 -14.419  0.00  0.00    -0.082 HD
ATOM     26  C   UNL     1     -28.814 -19.889 -15.822  0.00  0.00    -0.064 C 
ATOM     27  C   UNL     1     -29.848 -20.447 -14.805  0.00  0.00    +0.066 C 
ENDBRANCH  19  20
ENDBRANCH  18  19
ENDBRANCH  14  15
ENDBRANCH  12  13
TORSDOF 6
ENDMDL
