MODEL 1
REMARK VINA RESULT:      -9.4      0.000      0.000
REMARK  Name = C:\Users\Docking\Desktop\test protocol\1iep_ligandH.pdb
REMARK  8 active torsions:
REMARK  status: ('A' for Active; 'I' for Inactive)
REMARK    1  A    between atoms: _5  and  _11
REMARK    2  A    between atoms: _19  and  _21
REMARK    3  A    between atoms: _22  and  _66
REMARK    4  A    between atoms: _27  and  _30
REMARK    5  A    between atoms: _32  and  _33
REMARK    6  A    between atoms: _38  and  _43
REMARK    7  A    between atoms: _43  and  _46
REMARK    8  A    between atoms: _53  and  _55
REMARK                            x       y       z     vdW  Elec       q    Type
REMARK                         _______ _______ _______ _____ _____    ______ ____
ROOT
ATOM     10  C   UNL     1     -25.332  -3.686 -20.462  0.00  0.00    +0.038 A 
ATOM     11  C   UNL     1     -24.774  -2.469 -19.992  0.00  0.00    +0.047 A 
ATOM     12  C   UNL     1     -25.461  -1.202 -20.187  0.00  0.00    +0.035 A 
ATOM     32  C   UNL     1     -26.716  -1.210 -20.862  0.00  0.00    +0.024 A 
ATOM     33  C   UNL     1     -27.297  -2.437 -21.347  0.00  0.00    +0.007 A 
ATOM     34  C   UNL     1     -26.623  -3.690 -21.160  0.00  0.00    -0.029 A 
ATOM     35  C   UNL     1     -27.290  -4.974 -21.706  0.00  0.00    +0.045 C 
ENDROOT
BRANCH  10   9
ATOM      4  C   UNL     1     -24.296  -7.579 -17.853  0.00  0.00    +0.077 A 
ATOM      5  C   UNL     1     -25.212  -7.200 -16.816  0.00  0.00    +0.048 A 
ATOM      6  C   UNL     1     -25.925  -5.993 -16.989  0.00  0.00    +0.116 A 
ATOM      7  N   UNL     1     -25.729  -5.229 -18.119  0.00  0.00    -0.223 NA
ATOM      8  C   UNL     1     -24.836  -5.622 -19.099  0.00  0.00    +0.220 A 
ATOM      9  N   UNL     1     -24.629  -4.874 -20.247  0.00  0.00    -0.283 N 
ATOM     36  H   UNL     1     -23.956  -5.194 -20.944  0.00  0.00    +0.155 HD
ATOM     37  N   UNL     1     -24.142  -6.770 -18.957  0.00  0.00    -0.214 NA
BRANCH   4   3
ATOM      1  C   UNL     1     -21.270 -10.058 -17.897  0.00  0.00    +0.020 A 
ATOM      2  C   UNL     1     -22.019  -8.823 -17.939  0.00  0.00    +0.013 A 
ATOM      3  C   UNL     1     -23.472  -8.828 -17.816  0.00  0.00    +0.019 A 
ATOM     38  C   UNL     1     -24.141 -10.110 -17.649  0.00  0.00    +0.120 A 
ATOM     39  N   UNL     1     -23.393 -11.283 -17.614  0.00  0.00    -0.263 NA
ATOM     40  C   UNL     1     -21.996 -11.290 -17.733  0.00  0.00    +0.111 A 
ENDBRANCH   4   3
ENDBRANCH  10   9
BRANCH  12  13
ATOM     13  N   UNL     1     -24.939   0.066 -19.739  0.00  0.00    -0.281 N 
ATOM     14  C   UNL     1     -24.819   0.526 -18.438  0.00  0.00    +0.248 C 
ATOM     30  O   UNL     1     -25.343  -0.002 -17.467  0.00  0.00    -0.270 OA
ATOM     31  H   UNL     1     -24.620   0.701 -20.470  0.00  0.00    +0.155 HD
BRANCH  14  15
ATOM     15  C   UNL     1     -24.013   1.757 -18.178  0.00  0.00    +0.037 A 
ATOM     16  C   UNL     1     -24.629   2.965 -17.623  0.00  0.00    +0.013 A 
ATOM     17  C   UNL     1     -23.832   4.145 -17.399  0.00  0.00    +0.005 A 
ATOM     18  C   UNL     1     -22.409   4.122 -17.729  0.00  0.00    -0.033 A 
ATOM     28  C   UNL     1     -21.823   2.908 -18.273  0.00  0.00    +0.005 A 
ATOM     29  C   UNL     1     -22.601   1.750 -18.495  0.00  0.00    +0.013 A 
BRANCH  18  19
ATOM     19  C   UNL     1     -21.487   5.342 -17.542  0.00  0.00    +0.119 C 
BRANCH  19  20
ATOM     20  N   UNL     1     -21.936   6.398 -16.586  0.00  0.00    -0.302 NA
ATOM     21  C   UNL     1     -21.796   7.804 -17.177  0.00  0.00    +0.066 C 
ATOM     22  C   UNL     1     -22.291   8.895 -16.173  0.00  0.00    -0.064 C 
ATOM     23  N   UNL     1     -21.504   8.776 -14.867  0.00  0.00    +0.379 N 
ATOM     24  C   UNL     1     -21.926   9.837 -13.941  0.00  0.00    -0.096 C 
ATOM     25  H   UNL     1     -20.428   8.943 -15.104  0.00  0.00    -0.082 HD
ATOM     26  C   UNL     1     -21.635   7.380 -14.274  0.00  0.00    -0.064 C 
ATOM     27  C   UNL     1     -21.169   6.302 -15.291  0.00  0.00    +0.066 C 
ENDBRANCH  19  20
ENDBRANCH  18  19
ENDBRANCH  14  15
ENDBRANCH  12  13
TORSDOF 6
ENDMDL
MODEL 2
REMARK VINA RESULT:      -9.3      1.060      1.619
REMARK  Name = C:\Users\Docking\Desktop\test protocol\1iep_ligandH.pdb
REMARK  8 active torsions:
REMARK  status: ('A' for Active; 'I' for Inactive)
REMARK    1  A    between atoms: _5  and  _11
REMARK    2  A    between atoms: _19  and  _21
REMARK    3  A    between atoms: _22  and  _66
REMARK    4  A    between atoms: _27  and  _30
REMARK    5  A    between atoms: _32  and  _33
REMARK    6  A    between atoms: _38  and  _43
REMARK    7  A    between atoms: _43  and  _46
REMARK    8  A    between atoms: _53  and  _55
REMARK                            x       y       z     vdW  Elec       q    Type
REMARK                         _______ _______ _______ _____ _____    ______ ____
ROOT
ATOM     10  C   UNL     1     -24.695  -3.666 -20.612  0.00  0.00    +0.038 A 
ATOM     11  C   UNL     1     -24.447  -2.534 -19.794  0.00  0.00    +0.047 A 
ATOM     12  C   UNL     1     -25.082  -1.254 -20.067  0.00  0.00    +0.035 A 
ATOM     32  C   UNL     1     -25.966  -1.163 -21.181  0.00  0.00    +0.024 A 
ATOM     33  C   UNL     1     -26.230  -2.303 -22.023  0.00  0.00    +0.007 A 
ATOM     34  C   UNL     1     -25.604  -3.568 -21.760  0.00  0.00    -0.029 A 
ATOM     35  C   UNL     1     -25.918  -4.755 -22.700  0.00  0.00    +0.045 C 
ENDROOT
BRANCH  10   9
ATOM      4  C   UNL     1     -24.357  -7.760 -18.129  0.00  0.00    +0.077 A 
ATOM      5  C   UNL     1     -25.533  -7.462 -17.363  0.00  0.00    +0.048 A 
ATOM      6  C   UNL     1     -26.192  -6.241 -17.634  0.00  0.00    +0.116 A 
ATOM      7  N   UNL     1     -25.702  -5.390 -18.601  0.00  0.00    -0.223 NA
ATOM      8  C   UNL     1     -24.564  -5.707 -19.321  0.00  0.00    +0.220 A 
ATOM      9  N   UNL     1     -24.059  -4.870 -20.303  0.00  0.00    -0.283 N 
ATOM     36  H   UNL     1     -23.213  -5.137 -20.806  0.00  0.00    +0.155 HD
ATOM     37  N   UNL     1     -23.917  -6.866 -19.080  0.00  0.00    -0.214 NA
BRANCH   4   3
ATOM      1  C   UNL     1     -21.368 -10.267 -17.847  0.00  0.00    +0.020 A 
ATOM      2  C   UNL     1     -22.097  -9.031 -18.015  0.00  0.00    +0.013 A 
ATOM      3  C   UNL     1     -23.553  -9.012 -17.962  0.00  0.00    +0.019 A 
ATOM     38  C   UNL     1     -24.248 -10.270 -17.734  0.00  0.00    +0.120 A 
ATOM     39  N   UNL     1     -23.519 -11.445 -17.576  0.00  0.00    -0.263 NA
ATOM     40  C   UNL     1     -22.118 -11.476 -17.628  0.00  0.00    +0.111 A 
ENDBRANCH   4   3
ENDBRANCH  10   9
BRANCH  12  13
ATOM     13  N   UNL     1     -24.861  -0.069 -19.277  0.00  0.00    -0.281 N 
ATOM     14  C   UNL     1     -23.681   0.638 -19.112  0.00  0.00    +0.248 C 
ATOM     30  O   UNL     1     -22.580   0.233 -19.452  0.00  0.00    -0.270 OA
ATOM     31  H   UNL     1     -25.674   0.293 -18.778  0.00  0.00    +0.155 HD
BRANCH  14  15
ATOM     15  C   UNL     1     -23.730   1.984 -18.463  0.00  0.00    +0.037 A 
ATOM     16  C   UNL     1     -22.522   2.798 -18.310  0.00  0.00    +0.013 A 
ATOM     17  C   UNL     1     -22.594   4.085 -17.665  0.00  0.00    +0.005 A 
ATOM     18  C   UNL     1     -23.881   4.566 -17.169  0.00  0.00    -0.033 A 
ATOM     28  C   UNL     1     -25.065   3.741 -17.339  0.00  0.00    +0.005 A 
ATOM     29  C   UNL     1     -24.998   2.478 -17.970  0.00  0.00    +0.013 A 
BRANCH  18  19
ATOM     19  C   UNL     1     -24.047   5.918 -16.449  0.00  0.00    +0.119 C 
BRANCH  19  20
ATOM     20  N   UNL     1     -22.808   6.581 -15.944  0.00  0.00    -0.302 NA
ATOM     21  C   UNL     1     -22.381   6.037 -14.578  0.00  0.00    +0.066 C 
ATOM     22  C   UNL     1     -21.070   6.725 -14.075  0.00  0.00    -0.064 C 
ATOM     23  N   UNL     1     -21.284   8.239 -14.013  0.00  0.00    +0.379 N 
ATOM     24  C   UNL     1     -20.073   8.884 -13.486  0.00  0.00    -0.096 C 
ATOM     25  H   UNL     1     -22.112   8.434 -13.293  0.00  0.00    -0.082 HD
ATOM     26  C   UNL     1     -21.711   8.788 -15.367  0.00  0.00    -0.064 C 
ATOM     27  C   UNL     1     -22.998   8.076 -15.871  0.00  0.00    +0.066 C 
ENDBRANCH  19  20
ENDBRANCH  18  19
ENDBRANCH  14  15
ENDBRANCH  12  13
TORSDOF 6
ENDMDL
MODEL 3
REMARK VINA RESULT:      -9.3      1.829      2.345
REMARK  Name = C:\Users\Docking\Desktop\test protocol\1iep_ligandH.pdb
REMARK  8 active torsions:
REMARK  status: ('A' for Active; 'I' for Inactive)
REMARK    1  A    between atoms: _5  and  _11
REMARK    2  A    between atoms: _19  and  _21
REMARK    3  A    between atoms: _22  and  _66
REMARK    4  A    between atoms: _27  and  _30
REMARK    5  A    between atoms: _32  and  _33
REMARK    6  A    between atoms: _38  and  _43
REMARK    7  A    between atoms: _43  and  _46
REMARK    8  A    between atoms: _53  and  _55
REMARK                            x       y       z     vdW  Elec       q    Type
REMARK                         _______ _______ _______ _____ _____    ______ ____
ROOT
ATOM     10  C   UNL     1     -23.733  -3.404 -21.139  0.00  0.00    +0.038 A 
ATOM     11  C   UNL     1     -23.627  -2.395 -20.147  0.00  0.00    +0.047 A 
ATOM     12  C   UNL     1     -24.429  -1.184 -20.216  0.00  0.00    +0.035 A 
ATOM     32  C   UNL     1     -25.332  -1.033 -21.309  0.00  0.00    +0.024 A 
ATOM     33  C   UNL     1     -25.452  -2.048 -22.326  0.00  0.00    +0.007 A 
ATOM     34  C   UNL     1     -24.662  -3.244 -22.264  0.00  0.00    -0.029 A 
ATOM     35  C   UNL     1     -24.827  -4.295 -23.386  0.00  0.00    +0.045 C 
ENDROOT
BRANCH  10   9
ATOM      4  C   UNL     1     -22.880  -7.810 -19.437  0.00  0.00    +0.077 A 
ATOM      5  C   UNL     1     -24.107  -7.825 -18.695  0.00  0.00    +0.048 A 
ATOM      6  C   UNL     1     -24.927  -6.677 -18.772  0.00  0.00    +0.116 A 
ATOM      7  N   UNL     1     -24.538  -5.599 -19.538  0.00  0.00    -0.223 NA
ATOM      8  C   UNL     1     -23.346  -5.616 -20.240  0.00  0.00    +0.220 A 
ATOM      9  N   UNL     1     -22.939  -4.547 -21.022  0.00  0.00    -0.283 N 
ATOM     36  H   UNL     1     -22.050  -4.595 -21.519  0.00  0.00    +0.155 HD
ATOM     37  N   UNL     1     -22.546  -6.700 -20.181  0.00  0.00    -0.214 NA
BRANCH   4   3
ATOM      1  C   UNL     1     -20.566 -10.764 -18.333  0.00  0.00    +0.020 A 
ATOM      2  C   UNL     1     -21.507  -9.670 -18.257  0.00  0.00    +0.013 A 
ATOM      3  C   UNL     1     -21.909  -8.949 -19.458  0.00  0.00    +0.019 A 
ATOM     38  C   UNL     1     -21.337  -9.364 -20.730  0.00  0.00    +0.120 A 
ATOM     39  N   UNL     1     -20.432 -10.420 -20.772  0.00  0.00    -0.263 NA
ATOM     40  C   UNL     1     -20.036 -11.120 -19.623  0.00  0.00    +0.111 A 
ENDBRANCH   4   3
ENDBRANCH  10   9
BRANCH  12  13
ATOM     13  N   UNL     1     -24.358  -0.122 -19.243  0.00  0.00    -0.281 N 
ATOM     14  C   UNL     1     -23.317   0.765 -19.025  0.00  0.00    +0.248 C 
ATOM     30  O   UNL     1     -22.195   0.643 -19.495  0.00  0.00    -0.270 OA
ATOM     31  H   UNL     1     -25.175  -0.012 -18.642  0.00  0.00    +0.155 HD
BRANCH  14  15
ATOM     15  C   UNL     1     -23.551   1.951 -18.147  0.00  0.00    +0.037 A 
ATOM     16  C   UNL     1     -22.773   3.183 -18.310  0.00  0.00    +0.013 A 
ATOM     17  C   UNL     1     -23.008   4.307 -17.439  0.00  0.00    +0.005 A 
ATOM     18  C   UNL     1     -24.026   4.205 -16.397  0.00  0.00    -0.033 A 
ATOM     28  C   UNL     1     -24.787   2.973 -16.260  0.00  0.00    +0.005 A 
ATOM     29  C   UNL     1     -24.559   1.869 -17.112  0.00  0.00    +0.013 A 
BRANCH  18  19
ATOM     19  C   UNL     1     -24.329   5.346 -15.408  0.00  0.00    +0.119 C 
BRANCH  19  20
ATOM     20  N   UNL     1     -23.374   6.494 -15.376  0.00  0.00    -0.302 NA
ATOM     21  C   UNL     1     -22.139   6.190 -14.525  0.00  0.00    +0.066 C 
ATOM     22  C   UNL     1     -21.140   7.393 -14.521  0.00  0.00    -0.064 C 
ATOM     23  N   UNL     1     -21.856   8.645 -14.010  0.00  0.00    +0.379 N 
ATOM     24  C   UNL     1     -20.904   9.764 -13.950  0.00  0.00    -0.096 C 
ATOM     25  H   UNL     1     -22.199   8.437 -12.970  0.00  0.00    -0.082 HD
ATOM     26  C   UNL     1     -23.087   8.953 -14.849  0.00  0.00    -0.064 C 
ATOM     27  C   UNL     1     -24.059   7.740 -14.871  0.00  0.00    +0.066 C 
ENDBRANCH  19  20
ENDBRANCH  18  19
ENDBRANCH  14  15
ENDBRANCH  12  13
TORSDOF 6
ENDMDL
MODEL 4
REMARK VINA RESULT:      -9.0      3.335     12.774
REMARK  Name = C:\Users\Docking\Desktop\test protocol\1iep_ligandH.pdb
REMARK  8 active torsions:
REMARK  status: ('A' for Active; 'I' for Inactive)
REMARK    1  A    between atoms: _5  and  _11
REMARK    2  A    between atoms: _19  and  _21
REMARK    3  A    between atoms: _22  and  _66
REMARK    4  A    between atoms: _27  and  _30
REMARK    5  A    between atoms: _32  and  _33
REMARK    6  A    between atoms: _38  and  _43
REMARK    7  A    between atoms: _43  and  _46
REMARK    8  A    between atoms: _53  and  _55
REMARK                            x       y       z     vdW  Elec       q    Type
REMARK                         _______ _______ _______ _____ _____    ______ ____
ROOT
ATOM     10  C   UNL     1     -23.229   4.221 -17.690  0.00  0.00    +0.038 A 
ATOM     11  C   UNL     1     -23.617   2.912 -18.074  0.00  0.00    +0.047 A 
ATOM     12  C   UNL     1     -22.630   1.925 -18.485  0.00  0.00    +0.035 A 
ATOM     32  C   UNL     1     -21.257   2.305 -18.490  0.00  0.00    +0.024 A 
ATOM     33  C   UNL     1     -20.845   3.632 -18.103  0.00  0.00    +0.007 A 
ATOM     34  C   UNL     1     -21.814   4.610 -17.699  0.00  0.00    -0.029 A 
ATOM     35  C   UNL     1     -21.316   6.019 -17.301  0.00  0.00    +0.045 C 
ENDROOT
BRANCH  10   9
ATOM      4  C   UNL     1     -26.307   6.014 -14.472  0.00  0.00    +0.077 A 
ATOM      5  C   UNL     1     -25.932   5.044 -13.485  0.00  0.00    +0.048 A 
ATOM      6  C   UNL     1     -24.948   4.096 -13.847  0.00  0.00    +0.116 A 
ATOM      7  N   UNL     1     -24.388   4.127 -15.106  0.00  0.00    -0.223 NA
ATOM      8  C   UNL     1     -24.774   5.075 -16.035  0.00  0.00    +0.220 A 
ATOM      9  N   UNL     1     -24.219   5.129 -17.304  0.00  0.00    -0.283 N 
ATOM     36  H   UNL     1     -24.536   5.839 -17.964  0.00  0.00    +0.155 HD
ATOM     37  N   UNL     1     -25.713   5.990 -15.714  0.00  0.00    -0.214 NA
BRANCH   4   3
ATOM      1  C   UNL     1     -28.100   9.484 -14.264  0.00  0.00    +0.020 A 
ATOM      2  C   UNL     1     -27.077   8.493 -14.506  0.00  0.00    +0.013 A 
ATOM      3  C   UNL     1     -27.330   7.082 -14.239  0.00  0.00    +0.019 A 
ATOM     38  C   UNL     1     -28.638   6.706 -13.725  0.00  0.00    +0.120 A 
ATOM     39  N   UNL     1     -29.602   7.683 -13.500  0.00  0.00    -0.263 NA
ATOM     40  C   UNL     1     -29.370   9.043 -13.751  0.00  0.00    +0.111 A 
ENDBRANCH   4   3
ENDBRANCH  10   9
BRANCH  12  13
ATOM     13  N   UNL     1     -22.965   0.584 -18.893  0.00  0.00    -0.281 N 
ATOM     14  C   UNL     1     -24.171   0.122 -19.395  0.00  0.00    +0.248 C 
ATOM     30  O   UNL     1     -25.217   0.753 -19.369  0.00  0.00    -0.270 OA
ATOM     31  H   UNL     1     -22.223  -0.110 -18.801  0.00  0.00    +0.155 HD
BRANCH  14  15
ATOM     15  C   UNL     1     -24.226  -1.243 -20.001  0.00  0.00    +0.037 A 
ATOM     16  C   UNL     1     -23.064  -1.820 -20.682  0.00  0.00    +0.013 A 
ATOM     17  C   UNL     1     -23.149  -3.132 -21.273  0.00  0.00    +0.005 A 
ATOM     18  C   UNL     1     -24.402  -3.878 -21.183  0.00  0.00    -0.033 A 
ATOM     28  C   UNL     1     -25.537  -3.284 -20.497  0.00  0.00    +0.005 A 
ATOM     29  C   UNL     1     -25.458  -1.998 -19.918  0.00  0.00    +0.013 A 
BRANCH  18  19
ATOM     19  C   UNL     1     -24.589  -5.275 -21.803  0.00  0.00    +0.119 C 
BRANCH  19  20
ATOM     20  N   UNL     1     -24.105  -6.445 -21.010  0.00  0.00    -0.302 NA
ATOM     21  C   UNL     1     -24.617  -6.412 -19.567  0.00  0.00    +0.066 C 
ATOM     22  C   UNL     1     -24.120  -7.655 -18.759  0.00  0.00    -0.064 C 
ATOM     23  N   UNL     1     -22.591  -7.702 -18.791  0.00  0.00    +0.379 N 
ATOM     24  C   UNL     1     -22.119  -8.836 -17.983  0.00  0.00    -0.096 C 
ATOM     25  H   UNL     1     -22.215  -6.767 -18.314  0.00  0.00    -0.082 HD
ATOM     26  C   UNL     1     -22.074  -7.732 -20.222  0.00  0.00    -0.064 C 
ATOM     27  C   UNL     1     -22.598  -6.508 -21.024  0.00  0.00    +0.066 C 
ENDBRANCH  19  20
ENDBRANCH  18  19
ENDBRANCH  14  15
ENDBRANCH  12  13
TORSDOF 6
ENDMDL
MODEL 5
REMARK VINA RESULT:      -8.9      4.332     13.977
REMARK  Name = C:\Users\Docking\Desktop\test protocol\1iep_ligandH.pdb
REMARK  8 active torsions:
REMARK  status: ('A' for Active; 'I' for Inactive)
REMARK    1  A    between atoms: _5  and  _11
REMARK    2  A    between atoms: _19  and  _21
REMARK    3  A    between atoms: _22  and  _66
REMARK    4  A    between atoms: _27  and  _30
REMARK    5  A    between atoms: _32  and  _33
REMARK    6  A    between atoms: _38  and  _43
REMARK    7  A    between atoms: _43  and  _46
REMARK    8  A    between atoms: _53  and  _55
REMARK                            x       y       z     vdW  Elec       q    Type
REMARK                         _______ _______ _______ _____ _____    ______ ____
ROOT
ATOM     10  C   UNL     1     -23.576   8.039 -15.227  0.00  0.00    +0.038 A 
ATOM     11  C   UNL     1     -23.785   6.790 -15.865  0.00  0.00    +0.047 A 
ATOM     12  C   UNL     1     -22.675   5.890 -16.140  0.00  0.00    +0.035 A 
ATOM     32  C   UNL     1     -21.366   6.294 -15.749  0.00  0.00    +0.024 A 
ATOM     33  C   UNL     1     -21.135   7.561 -15.100  0.00  0.00    +0.007 A 
ATOM     34  C   UNL     1     -22.225   8.453 -14.828  0.00  0.00    -0.029 A 
ATOM     35  C   UNL     1     -21.918   9.801 -14.136  0.00  0.00    +0.045 C 
ENDROOT
BRANCH  10   9
ATOM      4  C   UNL     1     -28.167   8.719 -14.003  0.00  0.00    +0.077 A 
ATOM      5  C   UNL     1     -28.398   7.311 -13.855  0.00  0.00    +0.048 A 
ATOM      6  C   UNL     1     -27.311   6.445 -14.110  0.00  0.00    +0.116 A 
ATOM      7  N   UNL     1     -26.088   6.960 -14.484  0.00  0.00    -0.223 NA
ATOM      8  C   UNL     1     -25.900   8.323 -14.619  0.00  0.00    +0.220 A 
ATOM      9  N   UNL     1     -24.677   8.863 -14.987  0.00  0.00    -0.283 N 
ATOM     36  H   UNL     1     -24.581   9.874 -15.083  0.00  0.00    +0.155 HD
ATOM     37  N   UNL     1     -26.923   9.171 -14.383  0.00  0.00    -0.214 NA
BRANCH   4   3
ATOM      1  C   UNL     1     -30.030  11.924 -12.754  0.00  0.00    +0.020 A 
ATOM      2  C   UNL     1     -28.983  10.948 -12.952  0.00  0.00    +0.013 A 
ATOM      3  C   UNL     1     -29.215   9.761 -13.765  0.00  0.00    +0.019 A 
ATOM     38  C   UNL     1     -30.528   9.591 -14.371  0.00  0.00    +0.120 A 
ATOM     39  N   UNL     1     -31.517  10.547 -14.162  0.00  0.00    -0.263 NA
ATOM     40  C   UNL     1     -31.305  11.692 -13.379  0.00  0.00    +0.111 A 
ENDBRANCH   4   3
ENDBRANCH  10   9
BRANCH  12  13
ATOM     13  N   UNL     1     -22.826   4.613 -16.793  0.00  0.00    -0.281 N 
ATOM     14  C   UNL     1     -23.782   3.641 -16.551  0.00  0.00    +0.248 C 
ATOM     30  O   UNL     1     -24.529   3.631 -15.584  0.00  0.00    -0.270 OA
ATOM     31  H   UNL     1     -22.144   4.401 -17.522  0.00  0.00    +0.155 HD
BRANCH  14  15
ATOM     15  C   UNL     1     -23.919   2.507 -17.516  0.00  0.00    +0.037 A 
ATOM     16  C   UNL     1     -22.757   1.974 -18.231  0.00  0.00    +0.013 A 
ATOM     17  C   UNL     1     -22.919   0.891 -19.168  0.00  0.00    +0.005 A 
ATOM     18  C   UNL     1     -24.250   0.333 -19.395  0.00  0.00    -0.033 A 
ATOM     28  C   UNL     1     -25.385   0.878 -18.668  0.00  0.00    +0.005 A 
ATOM     29  C   UNL     1     -25.230   1.940 -17.749  0.00  0.00    +0.013 A 
BRANCH  18  19
ATOM     19  C   UNL     1     -24.520  -0.809 -20.393  0.00  0.00    +0.119 C 
BRANCH  19  20
ATOM     20  N   UNL     1     -24.348  -2.206 -19.895  0.00  0.00    -0.302 NA
ATOM     21  C   UNL     1     -23.692  -3.112 -20.941  0.00  0.00    +0.066 C 
ATOM     22  C   UNL     1     -23.498  -4.564 -20.396  0.00  0.00    -0.064 C 
ATOM     23  N   UNL     1     -24.853  -5.129 -19.964  0.00  0.00    +0.379 N 
ATOM     24  C   UNL     1     -24.683  -6.515 -19.505  0.00  0.00    -0.096 C 
ATOM     25  H   UNL     1     -25.513  -5.148 -20.863  0.00  0.00    -0.082 HD
ATOM     26  C   UNL     1     -25.513  -4.233 -18.926  0.00  0.00    -0.064 C 
ATOM     27  C   UNL     1     -25.674  -2.785 -19.467  0.00  0.00    +0.066 C 
ENDBRANCH  19  20
ENDBRANCH  18  19
ENDBRANCH  14  15
ENDBRANCH  12  13
TORSDOF 6
ENDMDL
