MODEL 1
REMARK VINA RESULT:      -9.8      0.000      0.000
REMARK  Name = C:\Users\Docking\Desktop\test protocol\1iep_ligandH.pdb
REMARK  8 active torsions:
REMARK  status: ('A' for Active; 'I' for Inactive)
REMARK    1  A    between atoms: _5  and  _11
REMARK    2  A    between atoms: _19  and  _21
REMARK    3  A    between atoms: _22  and  _66
REMARK    4  A    between atoms: _27  and  _30
REMARK    5  A    between atoms: _32  and  _33
REMARK    6  A    between atoms: _38  and  _43
REMARK    7  A    between atoms: _43  and  _46
REMARK    8  A    between atoms: _53  and  _55
REMARK                            x       y       z     vdW  Elec       q    Type
REMARK                         _______ _______ _______ _____ _____    ______ ____
ROOT
ATOM     10  C   UNL     1       8.041  16.694 -17.824  0.00  0.00    +0.038 A 
ATOM     11  C   UNL     1       6.670  17.018 -17.986  0.00  0.00    +0.047 A 
ATOM     12  C   UNL     1       5.778  16.158 -18.749  0.00  0.00    +0.035 A 
ATOM     32  C   UNL     1       6.317  14.975 -19.333  0.00  0.00    +0.024 A 
ATOM     33  C   UNL     1       7.708  14.630 -19.179  0.00  0.00    +0.007 A 
ATOM     34  C   UNL     1       8.593  15.475 -18.430  0.00  0.00    -0.029 A 
ATOM     35  C   UNL     1      10.078  15.060 -18.304  0.00  0.00    +0.045 C 
ENDROOT
BRANCH  10   9
ATOM      4  C   UNL     1       9.976  18.166 -13.686  0.00  0.00    +0.077 A 
ATOM      5  C   UNL     1       9.293  17.151 -12.937  0.00  0.00    +0.048 A 
ATOM      6  C   UNL     1       8.447  16.274 -13.654  0.00  0.00    +0.116 A 
ATOM      7  N   UNL     1       8.304  16.412 -15.017  0.00  0.00    -0.223 NA
ATOM      8  C   UNL     1       8.976  17.403 -15.709  0.00  0.00    +0.220 A 
ATOM      9  N   UNL     1       8.852  17.554 -17.081  0.00  0.00    -0.283 N 
ATOM     36  H   UNL     1       9.359  18.303 -17.553  0.00  0.00    +0.155 HD
ATOM     37  N   UNL     1       9.788  18.253 -15.047  0.00  0.00    -0.214 NA
BRANCH   4   3
ATOM      1  C   UNL     1      12.351  21.231 -13.171  0.00  0.00    +0.020 A 
ATOM      2  C   UNL     1      11.457  20.294 -13.811  0.00  0.00    +0.013 A 
ATOM      3  C   UNL     1      10.906  19.165 -13.072  0.00  0.00    +0.019 A 
ATOM     38  C   UNL     1      11.283  19.012 -11.675  0.00  0.00    +0.120 A 
ATOM     39  N   UNL     1      12.147  19.929 -11.085  0.00  0.00    -0.263 NA
ATOM     40  C   UNL     1      12.685  21.019 -11.787  0.00  0.00    +0.111 A 
ENDBRANCH   4   3
ENDBRANCH  10   9
BRANCH  12  13
ATOM     13  N   UNL     1       4.379  16.440 -18.954  0.00  0.00    -0.281 N 
ATOM     14  C   UNL     1       3.318  16.139 -18.115  0.00  0.00    +0.248 C 
ATOM     30  O   UNL     1       3.389  15.387 -17.155  0.00  0.00    -0.270 OA
ATOM     31  H   UNL     1       4.142  16.920 -19.822  0.00  0.00    +0.155 HD
BRANCH  14  15
ATOM     15  C   UNL     1       1.983  16.751 -18.392  0.00  0.00    +0.037 A 
ATOM     16  C   UNL     1       0.759  15.945 -18.371  0.00  0.00    +0.013 A 
ATOM     17  C   UNL     1      -0.514  16.556 -18.659  0.00  0.00    +0.005 A 
ATOM     18  C   UNL     1      -0.570  17.983 -18.969  0.00  0.00    -0.033 A 
ATOM     28  C   UNL     1       0.659  18.759 -18.978  0.00  0.00    +0.005 A 
ATOM     29  C   UNL     1       1.909  18.163 -18.698  0.00  0.00    +0.013 A 
BRANCH  18  19
ATOM     19  C   UNL     1      -1.882  18.714 -19.309  0.00  0.00    +0.119 C 
BRANCH  19  20
ATOM     20  N   UNL     1      -3.130  18.217 -18.658  0.00  0.00    -0.302 NA
ATOM     21  C   UNL     1      -4.378  18.540 -19.485  0.00  0.00    +0.066 C 
ATOM     22  C   UNL     1      -5.672  17.993 -18.800  0.00  0.00    -0.064 C 
ATOM     23  N   UNL     1      -5.789  18.581 -17.392  0.00  0.00    +0.379 N 
ATOM     24  C   UNL     1      -7.035  18.115 -16.767  0.00  0.00    -0.096 C 
ATOM     25  H   UNL     1      -5.855  19.689 -17.493  0.00  0.00    -0.082 HD
ATOM     26  C   UNL     1      -4.551  18.267 -16.564  0.00  0.00    -0.064 C 
ATOM     27  C   UNL     1      -3.267  18.789 -17.268  0.00  0.00    +0.066 C 
ENDBRANCH  19  20
ENDBRANCH  18  19
ENDBRANCH  14  15
ENDBRANCH  12  13
TORSDOF 6
ENDMDL
MODEL 2
REMARK VINA RESULT:      -9.8     10.083     17.973
REMARK  Name = C:\Users\Docking\Desktop\test protocol\1iep_ligandH.pdb
REMARK  8 active torsions:
REMARK  status: ('A' for Active; 'I' for Inactive)
REMARK    1  A    between atoms: _5  and  _11
REMARK    2  A    between atoms: _19  and  _21
REMARK    3  A    between atoms: _22  and  _66
REMARK    4  A    between atoms: _27  and  _30
REMARK    5  A    between atoms: _32  and  _33
REMARK    6  A    between atoms: _38  and  _43
REMARK    7  A    between atoms: _43  and  _46
REMARK    8  A    between atoms: _53  and  _55
REMARK                            x       y       z     vdW  Elec       q    Type
REMARK                         _______ _______ _______ _____ _____    ______ ____
ROOT
ATOM     10  C   UNL     1      -9.897  19.982 -15.125  0.00  0.00    +0.038 A 
ATOM     11  C   UNL     1     -10.806  18.907 -14.950  0.00  0.00    +0.047 A 
ATOM     12  C   UNL     1     -12.206  19.148 -14.636  0.00  0.00    +0.035 A 
ATOM     32  C   UNL     1     -12.647  20.498 -14.511  0.00  0.00    +0.024 A 
ATOM     33  C   UNL     1     -11.737  21.602 -14.685  0.00  0.00    +0.007 A 
ATOM     34  C   UNL     1     -10.355  21.371 -14.991  0.00  0.00    -0.029 A 
ATOM     35  C   UNL     1      -9.423  22.593 -15.160  0.00  0.00    +0.045 C 
ENDROOT
BRANCH  10   9
ATOM      4  C   UNL     1      -6.443  18.612 -18.162  0.00  0.00    +0.077 A 
ATOM      5  C   UNL     1      -7.377  18.430 -19.236  0.00  0.00    +0.048 A 
ATOM      6  C   UNL     1      -8.739  18.694 -18.963  0.00  0.00    +0.116 A 
ATOM      7  N   UNL     1      -9.125  19.107 -17.707  0.00  0.00    -0.223 NA
ATOM      8  C   UNL     1      -8.199  19.270 -16.693  0.00  0.00    +0.220 A 
ATOM      9  N   UNL     1      -8.564  19.693 -15.424  0.00  0.00    -0.283 N 
ATOM     36  H   UNL     1      -7.852  19.794 -14.702  0.00  0.00    +0.155 HD
ATOM     37  N   UNL     1      -6.893  19.024 -16.928  0.00  0.00    -0.214 NA
BRANCH   4   3
ATOM      1  C   UNL     1      -2.603  18.481 -17.432  0.00  0.00    +0.020 A 
ATOM      2  C   UNL     1      -4.015  18.730 -17.253  0.00  0.00    +0.013 A 
ATOM      3  C   UNL     1      -4.971  18.377 -18.295  0.00  0.00    +0.019 A 
ATOM     38  C   UNL     1      -4.461  17.768 -19.515  0.00  0.00    +0.120 A 
ATOM     39  N   UNL     1      -3.096  17.542 -19.659  0.00  0.00    -0.263 NA
ATOM     40  C   UNL     1      -2.166  17.879 -18.664  0.00  0.00    +0.111 A 
ENDBRANCH   4   3
ENDBRANCH  10   9
BRANCH  12  13
ATOM     13  N   UNL     1     -13.173  18.097 -14.440  0.00  0.00    -0.281 N 
ATOM     14  C   UNL     1     -13.619  17.563 -13.242  0.00  0.00    +0.248 C 
ATOM     30  O   UNL     1     -13.093  17.764 -12.157  0.00  0.00    -0.270 OA
ATOM     31  H   UNL     1     -13.577  17.697 -15.287  0.00  0.00    +0.155 HD
BRANCH  14  15
ATOM     15  C   UNL     1     -14.813  16.664 -13.252  0.00  0.00    +0.037 A 
ATOM     16  C   UNL     1     -15.460  16.247 -12.005  0.00  0.00    +0.013 A 
ATOM     17  C   UNL     1     -16.600  15.366 -12.042  0.00  0.00    +0.005 A 
ATOM     18  C   UNL     1     -17.102  14.898 -13.332  0.00  0.00    -0.033 A 
ATOM     28  C   UNL     1     -16.444  15.332 -14.554  0.00  0.00    +0.005 A 
ATOM     29  C   UNL     1     -15.326  16.194 -14.521  0.00  0.00    +0.013 A 
BRANCH  18  19
ATOM     19  C   UNL     1     -18.300  13.939 -13.466  0.00  0.00    +0.119 C 
BRANCH  19  20
ATOM     20  N   UNL     1     -19.364  14.025 -12.421  0.00  0.00    -0.302 NA
ATOM     21  C   UNL     1     -20.335  12.842 -12.491  0.00  0.00    +0.066 C 
ATOM     22  C   UNL     1     -21.427  12.936 -11.377  0.00  0.00    -0.064 C 
ATOM     23  N   UNL     1     -22.178  14.262 -11.513  0.00  0.00    +0.379 N 
ATOM     24  C   UNL     1     -23.245  14.328 -10.504  0.00  0.00    -0.096 C 
ATOM     25  H   UNL     1     -22.662  14.275 -12.518  0.00  0.00    -0.082 HD
ATOM     26  C   UNL     1     -21.220  15.443 -11.447  0.00  0.00    -0.064 C 
ATOM     27  C   UNL     1     -20.121  15.325 -12.540  0.00  0.00    +0.066 C 
ENDBRANCH  19  20
ENDBRANCH  18  19
ENDBRANCH  14  15
ENDBRANCH  12  13
TORSDOF 6
ENDMDL
MODEL 3
REMARK VINA RESULT:      -9.3     10.118     17.789
REMARK  Name = C:\Users\Docking\Desktop\test protocol\1iep_ligandH.pdb
REMARK  8 active torsions:
REMARK  status: ('A' for Active; 'I' for Inactive)
REMARK    1  A    between atoms: _5  and  _11
REMARK    2  A    between atoms: _19  and  _21
REMARK    3  A    between atoms: _22  and  _66
REMARK    4  A    between atoms: _27  and  _30
REMARK    5  A    between atoms: _32  and  _33
REMARK    6  A    between atoms: _38  and  _43
REMARK    7  A    between atoms: _43  and  _46
REMARK    8  A    between atoms: _53  and  _55
REMARK                            x       y       z     vdW  Elec       q    Type
REMARK                         _______ _______ _______ _____ _____    ______ ____
ROOT
ATOM     10  C   UNL     1     -10.060  19.634 -15.156  0.00  0.00    +0.038 A 
ATOM     11  C   UNL     1     -10.889  18.551 -14.766  0.00  0.00    +0.047 A 
ATOM     12  C   UNL     1     -12.297  18.753 -14.460  0.00  0.00    +0.035 A 
ATOM     32  C   UNL     1     -12.828  20.072 -14.563  0.00  0.00    +0.024 A 
ATOM     33  C   UNL     1     -12.000  21.184 -14.957  0.00  0.00    +0.007 A 
ATOM     34  C   UNL     1     -10.610  20.991 -15.258  0.00  0.00    -0.029 A 
ATOM     35  C   UNL     1      -9.767  22.221 -15.669  0.00  0.00    +0.045 C 
ENDROOT
BRANCH  10   9
ATOM      4  C   UNL     1      -6.506  18.533 -18.188  0.00  0.00    +0.077 A 
ATOM      5  C   UNL     1      -7.408  18.423 -19.298  0.00  0.00    +0.048 A 
ATOM      6  C   UNL     1      -8.779  18.650 -19.045  0.00  0.00    +0.116 A 
ATOM      7  N   UNL     1      -9.206  18.964 -17.773  0.00  0.00    -0.223 NA
ATOM      8  C   UNL     1      -8.310  19.061 -16.724  0.00  0.00    +0.220 A 
ATOM      9  N   UNL     1      -8.716  19.383 -15.438  0.00  0.00    -0.283 N 
ATOM     36  H   UNL     1      -8.025  19.437 -14.690  0.00  0.00    +0.155 HD
ATOM     37  N   UNL     1      -6.995  18.847 -16.939  0.00  0.00    -0.214 NA
BRANCH   4   3
ATOM      1  C   UNL     1      -2.683  18.413 -17.368  0.00  0.00    +0.020 A 
ATOM      2  C   UNL     1      -4.102  18.634 -17.213  0.00  0.00    +0.013 A 
ATOM      3  C   UNL     1      -5.027  18.325 -18.296  0.00  0.00    +0.019 A 
ATOM     38  C   UNL     1      -4.479  17.790 -19.533  0.00  0.00    +0.120 A 
ATOM     39  N   UNL     1      -3.108  17.590 -19.655  0.00  0.00    -0.263 NA
ATOM     40  C   UNL     1      -2.208  17.885 -18.620  0.00  0.00    +0.111 A 
ENDBRANCH   4   3
ENDBRANCH  10   9
BRANCH  12  13
ATOM     13  N   UNL     1     -13.185  17.694 -14.051  0.00  0.00    -0.281 N 
ATOM     14  C   UNL     1     -13.607  17.383 -12.768  0.00  0.00    +0.248 C 
ATOM     30  O   UNL     1     -13.113  17.840 -11.749  0.00  0.00    -0.270 OA
ATOM     31  H   UNL     1     -13.547  17.101 -14.798  0.00  0.00    +0.155 HD
BRANCH  14  15
ATOM     15  C   UNL     1     -14.731  16.414 -12.593  0.00  0.00    +0.037 A 
ATOM     16  C   UNL     1     -15.293  16.133 -11.269  0.00  0.00    +0.013 A 
ATOM     17  C   UNL     1     -16.365  15.181 -11.126  0.00  0.00    +0.005 A 
ATOM     18  C   UNL     1     -16.884  14.503 -12.311  0.00  0.00    -0.033 A 
ATOM     28  C   UNL     1     -16.312  14.804 -13.613  0.00  0.00    +0.005 A 
ATOM     29  C   UNL     1     -15.260  15.736 -13.757  0.00  0.00    +0.013 A 
BRANCH  18  19
ATOM     19  C   UNL     1     -18.013  13.456 -12.249  0.00  0.00    +0.119 C 
BRANCH  19  20
ATOM     20  N   UNL     1     -18.483  12.880 -13.544  0.00  0.00    -0.302 NA
ATOM     21  C   UNL     1     -20.011  12.856 -13.642  0.00  0.00    +0.066 C 
ATOM     22  C   UNL     1     -20.485  12.272 -15.012  0.00  0.00    -0.064 C 
ATOM     23  N   UNL     1     -19.909  10.866 -15.190  0.00  0.00    +0.379 N 
ATOM     24  C   UNL     1     -20.400  10.291 -16.451  0.00  0.00    -0.096 C 
ATOM     25  H   UNL     1     -20.295  10.234 -14.357  0.00  0.00    -0.082 HD
ATOM     26  C   UNL     1     -18.390  10.880 -15.092  0.00  0.00    -0.064 C 
ATOM     27  C   UNL     1     -17.929  11.490 -13.739  0.00  0.00    +0.066 C 
ENDBRANCH  19  20
ENDBRANCH  18  19
ENDBRANCH  14  15
ENDBRANCH  12  13
TORSDOF 6
ENDMDL
MODEL 4
REMARK VINA RESULT:      -9.0      2.825     12.511
REMARK  Name = C:\Users\Docking\Desktop\test protocol\1iep_ligandH.pdb
REMARK  8 active torsions:
REMARK  status: ('A' for Active; 'I' for Inactive)
REMARK    1  A    between atoms: _5  and  _11
REMARK    2  A    between atoms: _19  and  _21
REMARK    3  A    between atoms: _22  and  _66
REMARK    4  A    between atoms: _27  and  _30
REMARK    5  A    between atoms: _32  and  _33
REMARK    6  A    between atoms: _38  and  _43
REMARK    7  A    between atoms: _43  and  _46
REMARK    8  A    between atoms: _53  and  _55
REMARK                            x       y       z     vdW  Elec       q    Type
REMARK                         _______ _______ _______ _____ _____    ______ ____
ROOT
ATOM     10  C   UNL     1       5.265  14.956 -15.103  0.00  0.00    +0.038 A 
ATOM     11  C   UNL     1       6.278  15.885 -14.753  0.00  0.00    +0.047 A 
ATOM     12  C   UNL     1       7.586  15.437 -14.301  0.00  0.00    +0.035 A 
ATOM     32  C   UNL     1       7.829  14.035 -14.220  0.00  0.00    +0.024 A 
ATOM     33  C   UNL     1       6.811  13.077 -14.571  0.00  0.00    +0.007 A 
ATOM     34  C   UNL     1       5.518  13.513 -15.015  0.00  0.00    -0.029 A 
ATOM     35  C   UNL     1       4.462  12.441 -15.372  0.00  0.00    +0.045 C 
ENDROOT
BRANCH  10   9
ATOM      4  C   UNL     1       2.461  17.148 -18.324  0.00  0.00    +0.077 A 
ATOM      5  C   UNL     1       3.561  17.368 -19.219  0.00  0.00    +0.048 A 
ATOM      6  C   UNL     1       4.833  16.908 -18.809  0.00  0.00    +0.116 A 
ATOM      7  N   UNL     1       4.982  16.277 -17.594  0.00  0.00    -0.223 NA
ATOM      8  C   UNL     1       3.901  16.082 -16.754  0.00  0.00    +0.220 A 
ATOM      9  N   UNL     1       4.027  15.442 -15.530  0.00  0.00    -0.283 N 
ATOM     36  H   UNL     1       3.207  15.324 -14.936  0.00  0.00    +0.155 HD
ATOM     37  N   UNL     1       2.677  16.513 -17.121  0.00  0.00    -0.214 NA
BRANCH   4   3
ATOM      1  C   UNL     1      -1.407  17.107 -18.906  0.00  0.00    +0.020 A 
ATOM      2  C   UNL     1      -0.068  16.645 -18.618  0.00  0.00    +0.013 A 
ATOM      3  C   UNL     1       1.056  17.573 -18.616  0.00  0.00    +0.019 A 
ATOM     38  C   UNL     1       0.789  18.973 -18.910  0.00  0.00    +0.120 A 
ATOM     39  N   UNL     1      -0.510  19.389 -19.185  0.00  0.00    -0.263 NA
ATOM     40  C   UNL     1      -1.599  18.505 -19.192  0.00  0.00    +0.111 A 
ENDBRANCH   4   3
ENDBRANCH  10   9
BRANCH  12  13
ATOM     13  N   UNL     1       8.651  16.333 -13.924  0.00  0.00    -0.281 N 
ATOM     14  C   UNL     1       9.254  17.312 -14.697  0.00  0.00    +0.248 C 
ATOM     30  O   UNL     1       9.113  17.423 -15.906  0.00  0.00    -0.270 OA
ATOM     31  H   UNL     1       9.003  16.234 -12.972  0.00  0.00    +0.155 HD
BRANCH  14  15
ATOM     15  C   UNL     1      10.155  18.303 -14.034  0.00  0.00    +0.037 A 
ATOM     16  C   UNL     1      10.482  18.198 -12.610  0.00  0.00    +0.013 A 
ATOM     17  C   UNL     1      11.340  19.177 -11.991  0.00  0.00    +0.005 A 
ATOM     18  C   UNL     1      11.879  20.270 -12.797  0.00  0.00    -0.033 A 
ATOM     28  C   UNL     1      11.542  20.347 -14.209  0.00  0.00    +0.005 A 
ATOM     29  C   UNL     1      10.700  19.390 -14.819  0.00  0.00    +0.013 A 
BRANCH  18  19
ATOM     19  C   UNL     1      12.785  21.371 -12.216  0.00  0.00    +0.119 C 
BRANCH  19  20
ATOM     20  N   UNL     1      12.963  22.611 -13.029  0.00  0.00    -0.302 NA
ATOM     21  C   UNL     1      14.328  22.652 -13.722  0.00  0.00    +0.066 C 
ATOM     22  C   UNL     1      14.488  23.945 -14.587  0.00  0.00    -0.064 C 
ATOM     23  N   UNL     1      14.293  25.176 -13.700  0.00  0.00    +0.379 N 
ATOM     24  C   UNL     1      14.501  26.393 -14.498  0.00  0.00    -0.096 C 
ATOM     25  H   UNL     1      15.079  25.151 -12.910  0.00  0.00    -0.082 HD
ATOM     26  C   UNL     1      12.939  25.141 -13.005  0.00  0.00    -0.064 C 
ATOM     27  C   UNL     1      12.779  23.839 -12.172  0.00  0.00    +0.066 C 
ENDBRANCH  19  20
ENDBRANCH  18  19
ENDBRANCH  14  15
ENDBRANCH  12  13
TORSDOF 6
ENDMDL
MODEL 5
REMARK VINA RESULT:      -8.9      2.740     12.680
REMARK  Name = C:\Users\Docking\Desktop\test protocol\1iep_ligandH.pdb
REMARK  8 active torsions:
REMARK  status: ('A' for Active; 'I' for Inactive)
REMARK    1  A    between atoms: _5  and  _11
REMARK    2  A    between atoms: _19  and  _21
REMARK    3  A    between atoms: _22  and  _66
REMARK    4  A    between atoms: _27  and  _30
REMARK    5  A    between atoms: _32  and  _33
REMARK    6  A    between atoms: _38  and  _43
REMARK    7  A    between atoms: _43  and  _46
REMARK    8  A    between atoms: _53  and  _55
REMARK                            x       y       z     vdW  Elec       q    Type
REMARK                         _______ _______ _______ _____ _____    ______ ____
ROOT
ATOM     10  C   UNL     1       3.520  14.446 -15.728  0.00  0.00    +0.038 A 
ATOM     11  C   UNL     1       4.633  15.234 -15.340  0.00  0.00    +0.047 A 
ATOM     12  C   UNL     1       5.891  14.618 -14.949  0.00  0.00    +0.035 A 
ATOM     32  C   UNL     1       5.982  13.196 -14.968  0.00  0.00    +0.024 A 
ATOM     33  C   UNL     1       4.859  12.379 -15.359  0.00  0.00    +0.007 A 
ATOM     34  C   UNL     1       3.615  12.982 -15.743  0.00  0.00    -0.029 A 
ATOM     35  C   UNL     1       2.443  12.057 -16.147  0.00  0.00    +0.045 C 
ENDROOT
BRANCH  10   9
ATOM      4  C   UNL     1       1.045  17.531 -18.448  0.00  0.00    +0.077 A 
ATOM      5  C   UNL     1       2.216  17.911 -19.186  0.00  0.00    +0.048 A 
ATOM      6  C   UNL     1       3.436  17.295 -18.829  0.00  0.00    +0.116 A 
ATOM      7  N   UNL     1       3.471  16.368 -17.810  0.00  0.00    -0.223 NA
ATOM      8  C   UNL     1       2.325  16.026 -17.117  0.00  0.00    +0.220 A 
ATOM      9  N   UNL     1       2.336  15.091 -16.093  0.00  0.00    -0.283 N 
ATOM     36  H   UNL     1       1.470  14.871 -15.602  0.00  0.00    +0.155 HD
ATOM     37  N   UNL     1       1.147  16.601 -17.437  0.00  0.00    -0.214 NA
BRANCH   4   3
ATOM      1  C   UNL     1      -2.795  17.848 -19.122  0.00  0.00    +0.020 A 
ATOM      2  C   UNL     1      -1.501  17.256 -18.872  0.00  0.00    +0.013 A 
ATOM      3  C   UNL     1      -0.318  18.092 -18.709  0.00  0.00    +0.019 A 
ATOM     38  C   UNL     1      -0.481  19.535 -18.805  0.00  0.00    +0.120 A 
ATOM     39  N   UNL     1      -1.739  20.076 -19.048  0.00  0.00    -0.263 NA
ATOM     40  C   UNL     1      -2.884  19.281 -19.208  0.00  0.00    +0.111 A 
ENDBRANCH   4   3
ENDBRANCH  10   9
BRANCH  12  13
ATOM     13  N   UNL     1       7.053  15.366 -14.538  0.00  0.00    -0.281 N 
ATOM     14  C   UNL     1       7.886  16.147 -15.323  0.00  0.00    +0.248 C 
ATOM     30  O   UNL     1       7.881  16.149 -16.545  0.00  0.00    -0.270 OA
ATOM     31  H   UNL     1       7.291  15.314 -13.547  0.00  0.00    +0.155 HD
BRANCH  14  15
ATOM     15  C   UNL     1       8.876  17.045 -14.655  0.00  0.00    +0.037 A 
ATOM     16  C   UNL     1       9.073  17.013 -13.203  0.00  0.00    +0.013 A 
ATOM     17  C   UNL     1      10.022  17.902 -12.582  0.00  0.00    +0.005 A 
ATOM     18  C   UNL     1      10.784  18.831 -13.413  0.00  0.00    -0.033 A 
ATOM     28  C   UNL     1      10.572  18.838 -14.851  0.00  0.00    +0.005 A 
ATOM     29  C   UNL     1       9.642  17.969 -15.464  0.00  0.00    +0.013 A 
BRANCH  18  19
ATOM     19  C   UNL     1      11.802  19.830 -12.834  0.00  0.00    +0.119 C 
BRANCH  19  20
ATOM     20  N   UNL     1      13.198  19.341 -12.627  0.00  0.00    -0.302 NA
ATOM     21  C   UNL     1      13.376  17.894 -13.098  0.00  0.00    +0.066 C 
ATOM     22  C   UNL     1      14.847  17.406 -12.895  0.00  0.00    -0.064 C 
ATOM     23  N   UNL     1      15.230  17.547 -11.421  0.00  0.00    +0.379 N 
ATOM     24  C   UNL     1      16.593  17.035 -11.217  0.00  0.00    -0.096 C 
ATOM     25  H   UNL     1      14.535  16.906 -10.829  0.00  0.00    -0.082 HD
ATOM     26  C   UNL     1      15.054  18.982 -10.944  0.00  0.00    -0.064 C 
ATOM     27  C   UNL     1      13.595  19.466 -11.177  0.00  0.00    +0.066 C 
ENDBRANCH  19  20
ENDBRANCH  18  19
ENDBRANCH  14  15
ENDBRANCH  12  13
TORSDOF 6
ENDMDL
