MODEL 1
REMARK VINA RESULT:      -8.3      0.000      0.000
REMARK  Name = C:\Users\Docking\Desktop\test protocol\1iep_ligandH.pdb
REMARK  8 active torsions:
REMARK  status: ('A' for Active; 'I' for Inactive)
REMARK    1  A    between atoms: _5  and  _11
REMARK    2  A    between atoms: _19  and  _21
REMARK    3  A    between atoms: _22  and  _66
REMARK    4  A    between atoms: _27  and  _30
REMARK    5  A    between atoms: _32  and  _33
REMARK    6  A    between atoms: _38  and  _43
REMARK    7  A    between atoms: _43  and  _46
REMARK    8  A    between atoms: _53  and  _55
REMARK                            x       y       z     vdW  Elec       q    Type
REMARK                         _______ _______ _______ _____ _____    ______ ____
ROOT
ATOM     10  C   UNL     1      45.936  58.234  34.296  0.00  0.00    +0.038 A 
ATOM     11  C   UNL     1      46.309  56.879  34.106  0.00  0.00    +0.047 A 
ATOM     12  C   UNL     1      45.419  55.793  34.486  0.00  0.00    +0.035 A 
ATOM     32  C   UNL     1      44.155  56.124  35.055  0.00  0.00    +0.024 A 
ATOM     33  C   UNL     1      43.759  57.496  35.256  0.00  0.00    +0.007 A 
ATOM     34  C   UNL     1      44.634  58.571  34.885  0.00  0.00    -0.029 A 
ATOM     35  C   UNL     1      44.161  60.023  35.130  0.00  0.00    +0.045 C 
ENDROOT
BRANCH  10   9
ATOM      4  C   UNL     1      49.985  60.745  34.882  0.00  0.00    +0.077 A 
ATOM      5  C   UNL     1      50.336  60.015  36.065  0.00  0.00    +0.048 A 
ATOM      6  C   UNL     1      49.445  59.006  36.494  0.00  0.00    +0.116 A 
ATOM      7  N   UNL     1      48.291  58.755  35.784  0.00  0.00    -0.223 NA
ATOM      8  C   UNL     1      47.981  59.479  34.648  0.00  0.00    +0.220 A 
ATOM      9  N   UNL     1      46.830  59.237  33.914  0.00  0.00    -0.283 N 
ATOM     36  H   UNL     1      46.633  59.798  33.085  0.00  0.00    +0.155 HD
ATOM     37  N   UNL     1      48.815  60.448  34.218  0.00  0.00    -0.214 NA
BRANCH   4   3
ATOM      1  C   UNL     1      51.117  64.038  33.099  0.00  0.00    +0.020 A 
ATOM      2  C   UNL     1      50.260  63.010  33.643  0.00  0.00    +0.013 A 
ATOM      3  C   UNL     1      50.826  61.839  34.301  0.00  0.00    +0.019 A 
ATOM     38  C   UNL     1      52.275  61.738  34.393  0.00  0.00    +0.120 A 
ATOM     39  N   UNL     1      53.075  62.743  33.859  0.00  0.00    -0.263 NA
ATOM     40  C   UNL     1      52.542  63.874  33.222  0.00  0.00    +0.111 A 
ENDBRANCH   4   3
ENDBRANCH  10   9
BRANCH  12  13
ATOM     13  N   UNL     1      45.747  54.398  34.325  0.00  0.00    -0.281 N 
ATOM     14  C   UNL     1      45.074  53.446  33.578  0.00  0.00    +0.248 C 
ATOM     30  O   UNL     1      43.958  53.602  33.103  0.00  0.00    -0.270 OA
ATOM     31  H   UNL     1      46.577  54.074  34.821  0.00  0.00    +0.155 HD
BRANCH  14  15
ATOM     15  C   UNL     1      45.727  52.124  33.335  0.00  0.00    +0.037 A 
ATOM     16  C   UNL     1      45.337  51.280  32.202  0.00  0.00    +0.013 A 
ATOM     17  C   UNL     1      45.972  50.002  32.000  0.00  0.00    +0.005 A 
ATOM     18  C   UNL     1      47.005  49.560  32.934  0.00  0.00    -0.033 A 
ATOM     28  C   UNL     1      47.376  50.419  34.046  0.00  0.00    +0.005 A 
ATOM     29  C   UNL     1      46.756  51.672  34.247  0.00  0.00    +0.013 A 
BRANCH  18  19
ATOM     19  C   UNL     1      47.720  48.202  32.808  0.00  0.00    +0.119 C 
BRANCH  19  20
ATOM     20  N   UNL     1      48.962  48.157  31.979  0.00  0.00    -0.302 NA
ATOM     21  C   UNL     1      49.208  46.766  31.388  0.00  0.00    +0.066 C 
ATOM     22  C   UNL     1      50.498  46.743  30.505  0.00  0.00    -0.064 C 
ATOM     23  N   UNL     1      51.695  47.195  31.344  0.00  0.00    +0.379 N 
ATOM     24  C   UNL     1      52.919  47.119  30.533  0.00  0.00    -0.096 C 
ATOM     25  H   UNL     1      51.805  46.478  32.190  0.00  0.00    -0.082 HD
ATOM     26  C   UNL     1      51.457  48.577  31.937  0.00  0.00    -0.064 C 
ATOM     27  C   UNL     1      50.157  48.596  32.788  0.00  0.00    +0.066 C 
ENDBRANCH  19  20
ENDBRANCH  18  19
ENDBRANCH  14  15
ENDBRANCH  12  13
TORSDOF 6
ENDMDL
MODEL 2
REMARK VINA RESULT:      -7.7     35.452     38.339
REMARK  Name = C:\Users\Docking\Desktop\test protocol\1iep_ligandH.pdb
REMARK  8 active torsions:
REMARK  status: ('A' for Active; 'I' for Inactive)
REMARK    1  A    between atoms: _5  and  _11
REMARK    2  A    between atoms: _19  and  _21
REMARK    3  A    between atoms: _22  and  _66
REMARK    4  A    between atoms: _27  and  _30
REMARK    5  A    between atoms: _32  and  _33
REMARK    6  A    between atoms: _38  and  _43
REMARK    7  A    between atoms: _43  and  _46
REMARK    8  A    between atoms: _53  and  _55
REMARK                            x       y       z     vdW  Elec       q    Type
REMARK                         _______ _______ _______ _____ _____    ______ ____
ROOT
ATOM     10  C   UNL     1      57.244  80.827  57.046  0.00  0.00    +0.038 A 
ATOM     11  C   UNL     1      55.867  80.901  57.377  0.00  0.00    +0.047 A 
ATOM     12  C   UNL     1      54.881  81.343  56.404  0.00  0.00    +0.035 A 
ATOM     32  C   UNL     1      55.332  81.700  55.100  0.00  0.00    +0.024 A 
ATOM     33  C   UNL     1      56.728  81.632  54.746  0.00  0.00    +0.007 A 
ATOM     34  C   UNL     1      57.706  81.199  55.703  0.00  0.00    -0.029 A 
ATOM     35  C   UNL     1      59.190  81.151  55.270  0.00  0.00    +0.045 C 
ENDROOT
BRANCH  10   9
ATOM      4  C   UNL     1      60.063  81.613  60.850  0.00  0.00    +0.077 A 
ATOM      5  C   UNL     1      59.729  83.008  60.884  0.00  0.00    +0.048 A 
ATOM      6  C   UNL     1      58.833  83.484  59.900  0.00  0.00    +0.116 A 
ATOM      7  N   UNL     1      58.316  82.621  58.958  0.00  0.00    -0.223 NA
ATOM      8  C   UNL     1      58.661  81.282  58.953  0.00  0.00    +0.220 A 
ATOM      9  N   UNL     1      58.147  80.395  58.020  0.00  0.00    -0.283 N 
ATOM     36  H   UNL     1      58.432  79.416  58.045  0.00  0.00    +0.155 HD
ATOM     37  N   UNL     1      59.515  80.803  59.881  0.00  0.00    -0.214 NA
BRANCH   4   3
ATOM      1  C   UNL     1      62.223  78.957  62.741  0.00  0.00    +0.020 A 
ATOM      2  C   UNL     1      61.319  79.539  61.777  0.00  0.00    +0.013 A 
ATOM      3  C   UNL     1      60.992  80.959  61.824  0.00  0.00    +0.019 A 
ATOM     38  C   UNL     1      61.603  81.768  62.868  0.00  0.00    +0.120 A 
ATOM     39  N   UNL     1      62.469  81.180  63.784  0.00  0.00    -0.263 NA
ATOM     40  C   UNL     1      62.790  79.814  63.750  0.00  0.00    +0.111 A 
ENDBRANCH   4   3
ENDBRANCH  10   9
BRANCH  12  13
ATOM     13  N   UNL     1      53.471  81.447  56.686  0.00  0.00    -0.281 N 
ATOM     14  C   UNL     1      52.821  82.408  57.442  0.00  0.00    +0.248 C 
ATOM     30  O   UNL     1      53.385  83.210  58.172  0.00  0.00    -0.270 OA
ATOM     31  H   UNL     1      52.879  80.722  56.278  0.00  0.00    +0.155 HD
BRANCH  14  15
ATOM     15  C   UNL     1      51.329  82.481  57.392  0.00  0.00    +0.037 A 
ATOM     16  C   UNL     1      50.630  83.768  57.411  0.00  0.00    +0.013 A 
ATOM     17  C   UNL     1      49.190  83.809  57.379  0.00  0.00    +0.005 A 
ATOM     18  C   UNL     1      48.438  82.557  57.325  0.00  0.00    -0.033 A 
ATOM     28  C   UNL     1      49.158  81.295  57.302  0.00  0.00    +0.005 A 
ATOM     29  C   UNL     1      50.570  81.250  57.334  0.00  0.00    +0.013 A 
BRANCH  18  19
ATOM     19  C   UNL     1      46.899  82.505  57.309  0.00  0.00    +0.119 C 
BRANCH  19  20
ATOM     20  N   UNL     1      46.191  82.832  58.583  0.00  0.00    -0.302 NA
ATOM     21  C   UNL     1      46.832  82.141  59.790  0.00  0.00    +0.066 C 
ATOM     22  C   UNL     1      46.092  82.511  61.117  0.00  0.00    -0.064 C 
ATOM     23  N   UNL     1      44.615  82.132  60.997  0.00  0.00    +0.379 N 
ATOM     24  C   UNL     1      43.929  82.425  62.263  0.00  0.00    -0.096 C 
ATOM     25  H   UNL     1      44.561  81.031  60.830  0.00  0.00    -0.082 HD
ATOM     26  C   UNL     1      43.971  82.812  59.797  0.00  0.00    -0.064 C 
ATOM     27  C   UNL     1      44.731  82.461  58.488  0.00  0.00    +0.066 C 
ENDBRANCH  19  20
ENDBRANCH  18  19
ENDBRANCH  14  15
ENDBRANCH  12  13
TORSDOF 6
ENDMDL
MODEL 3
REMARK VINA RESULT:      -7.6      2.084     11.867
REMARK  Name = C:\Users\Docking\Desktop\test protocol\1iep_ligandH.pdb
REMARK  8 active torsions:
REMARK  status: ('A' for Active; 'I' for Inactive)
REMARK    1  A    between atoms: _5  and  _11
REMARK    2  A    between atoms: _19  and  _21
REMARK    3  A    between atoms: _22  and  _66
REMARK    4  A    between atoms: _27  and  _30
REMARK    5  A    between atoms: _32  and  _33
REMARK    6  A    between atoms: _38  and  _43
REMARK    7  A    between atoms: _43  and  _46
REMARK    8  A    between atoms: _53  and  _55
REMARK                            x       y       z     vdW  Elec       q    Type
REMARK                         _______ _______ _______ _____ _____    ______ ____
ROOT
ATOM     10  C   UNL     1      46.241  49.074  32.421  0.00  0.00    +0.038 A 
ATOM     11  C   UNL     1      46.181  50.439  32.800  0.00  0.00    +0.047 A 
ATOM     12  C   UNL     1      44.907  51.130  32.922  0.00  0.00    +0.035 A 
ATOM     32  C   UNL     1      43.713  50.400  32.653  0.00  0.00    +0.024 A 
ATOM     33  C   UNL     1      43.756  49.011  32.266  0.00  0.00    +0.007 A 
ATOM     34  C   UNL     1      45.010  48.325  32.141  0.00  0.00    -0.029 A 
ATOM     35  C   UNL     1      44.997  46.838  31.716  0.00  0.00    +0.045 C 
ENDROOT
BRANCH  10   9
ATOM      4  C   UNL     1      50.139  47.794  29.929  0.00  0.00    +0.077 A 
ATOM      5  C   UNL     1      49.629  48.375  28.720  0.00  0.00    +0.048 A 
ATOM      6  C   UNL     1      48.357  48.987  28.781  0.00  0.00    +0.116 A 
ATOM      7  N   UNL     1      47.656  49.011  29.967  0.00  0.00    -0.223 NA
ATOM      8  C   UNL     1      48.176  48.440  31.114  0.00  0.00    +0.220 A 
ATOM      9  N   UNL     1      47.492  48.459  32.320  0.00  0.00    -0.283 N 
ATOM     36  H   UNL     1      47.906  48.021  33.142  0.00  0.00    +0.155 HD
ATOM     37  N   UNL     1      49.388  47.848  31.082  0.00  0.00    -0.214 NA
BRANCH   4   3
ATOM      1  C   UNL     1      53.141  45.362  29.320  0.00  0.00    +0.020 A 
ATOM      2  C   UNL     1      51.843  45.983  29.187  0.00  0.00    +0.013 A 
ATOM      3  C   UNL     1      51.469  47.114  30.026  0.00  0.00    +0.019 A 
ATOM     38  C   UNL     1      52.439  47.598  30.997  0.00  0.00    +0.120 A 
ATOM     39  N   UNL     1      53.681  46.979  31.104  0.00  0.00    -0.263 NA
ATOM     40  C   UNL     1      54.051  45.889  30.303  0.00  0.00    +0.111 A 
ENDBRANCH   4   3
ENDBRANCH  10   9
BRANCH  12  13
ATOM     13  N   UNL     1      44.784  52.518  33.295  0.00  0.00    -0.281 N 
ATOM     14  C   UNL     1      44.776  53.059  34.570  0.00  0.00    +0.248 C 
ATOM     30  O   UNL     1      44.659  52.407  35.597  0.00  0.00    -0.270 OA
ATOM     31  H   UNL     1      44.691  53.181  32.526  0.00  0.00    +0.155 HD
BRANCH  14  15
ATOM     15  C   UNL     1      44.902  54.540  34.727  0.00  0.00    +0.037 A 
ATOM     16  C   UNL     1      46.197  55.212  34.588  0.00  0.00    +0.013 A 
ATOM     17  C   UNL     1      46.294  56.639  34.760  0.00  0.00    +0.005 A 
ATOM     18  C   UNL     1      45.090  57.406  35.072  0.00  0.00    -0.033 A 
ATOM     28  C   UNL     1      43.818  56.716  35.200  0.00  0.00    +0.005 A 
ATOM     29  C   UNL     1      43.719  55.316  35.032  0.00  0.00    +0.013 A 
BRANCH  18  19
ATOM     19  C   UNL     1      45.104  58.930  35.294  0.00  0.00    +0.119 C 
BRANCH  19  20
ATOM     20  N   UNL     1      46.070  59.731  34.484  0.00  0.00    -0.302 NA
ATOM     21  C   UNL     1      47.417  59.893  35.193  0.00  0.00    +0.066 C 
ATOM     22  C   UNL     1      48.423  60.713  34.322  0.00  0.00    -0.064 C 
ATOM     23  N   UNL     1      47.815  62.079  33.995  0.00  0.00    +0.379 N 
ATOM     24  C   UNL     1      48.782  62.875  33.225  0.00  0.00    -0.096 C 
ATOM     25  H   UNL     1      47.634  62.607  34.960  0.00  0.00    -0.082 HD
ATOM     26  C   UNL     1      46.474  61.926  33.293  0.00  0.00    -0.064 C 
ATOM     27  C   UNL     1      45.491  61.085  34.154  0.00  0.00    +0.066 C 
ENDBRANCH  19  20
ENDBRANCH  18  19
ENDBRANCH  14  15
ENDBRANCH  12  13
TORSDOF 6
ENDMDL
MODEL 4
REMARK VINA RESULT:      -7.6     20.078     24.860
REMARK  Name = C:\Users\Docking\Desktop\test protocol\1iep_ligandH.pdb
REMARK  8 active torsions:
REMARK  status: ('A' for Active; 'I' for Inactive)
REMARK    1  A    between atoms: _5  and  _11
REMARK    2  A    between atoms: _19  and  _21
REMARK    3  A    between atoms: _22  and  _66
REMARK    4  A    between atoms: _27  and  _30
REMARK    5  A    between atoms: _32  and  _33
REMARK    6  A    between atoms: _38  and  _43
REMARK    7  A    between atoms: _43  and  _46
REMARK    8  A    between atoms: _53  and  _55
REMARK                            x       y       z     vdW  Elec       q    Type
REMARK                         _______ _______ _______ _____ _____    ______ ____
ROOT
ATOM     10  C   UNL     1      35.229  79.428  39.108  0.00  0.00    +0.038 A 
ATOM     11  C   UNL     1      35.847  78.157  38.989  0.00  0.00    +0.047 A 
ATOM     12  C   UNL     1      35.075  76.975  38.634  0.00  0.00    +0.035 A 
ATOM     32  C   UNL     1      33.676  77.126  38.406  0.00  0.00    +0.024 A 
ATOM     33  C   UNL     1      33.032  78.411  38.524  0.00  0.00    +0.007 A 
ATOM     34  C   UNL     1      33.788  79.579  38.875  0.00  0.00    -0.029 A 
ATOM     35  C   UNL     1      33.044  80.929  38.994  0.00  0.00    +0.045 C 
ENDROOT
BRANCH  10   9
ATOM      4  C   UNL     1      37.402  82.237  42.336  0.00  0.00    +0.077 A 
ATOM      5  C   UNL     1      36.900  81.463  43.435  0.00  0.00    +0.048 A 
ATOM      6  C   UNL     1      36.081  80.354  43.127  0.00  0.00    +0.116 A 
ATOM      7  N   UNL     1      35.792  80.051  41.814  0.00  0.00    -0.223 NA
ATOM      8  C   UNL     1      36.290  80.819  40.778  0.00  0.00    +0.220 A 
ATOM      9  N   UNL     1      36.018  80.528  39.450  0.00  0.00    -0.283 N 
ATOM     36  H   UNL     1      36.399  81.124  38.715  0.00  0.00    +0.155 HD
ATOM     37  N   UNL     1      37.074  81.885  41.046  0.00  0.00    -0.214 NA
BRANCH   4   3
ATOM      1  C   UNL     1      40.251  84.643  43.517  0.00  0.00    +0.020 A 
ATOM      2  C   UNL     1      39.432  83.459  43.396  0.00  0.00    +0.013 A 
ATOM      3  C   UNL     1      38.283  83.437  42.500  0.00  0.00    +0.019 A 
ATOM     38  C   UNL     1      37.988  84.638  41.734  0.00  0.00    +0.120 A 
ATOM     39  N   UNL     1      38.793  85.764  41.873  0.00  0.00    -0.263 NA
ATOM     40  C   UNL     1      39.901  85.798  42.733  0.00  0.00    +0.111 A 
ENDBRANCH   4   3
ENDBRANCH  10   9
BRANCH  12  13
ATOM     13  N   UNL     1      35.645  75.657  38.507  0.00  0.00    -0.281 N 
ATOM     14  C   UNL     1      35.967  74.978  37.343  0.00  0.00    +0.248 C 
ATOM     30  O   UNL     1      35.613  75.317  36.224  0.00  0.00    -0.270 OA
ATOM     31  H   UNL     1      35.835  75.166  39.380  0.00  0.00    +0.155 HD
BRANCH  14  15
ATOM     15  C   UNL     1      36.789  73.733  37.438  0.00  0.00    +0.037 A 
ATOM     16  C   UNL     1      37.910  73.632  38.375  0.00  0.00    +0.013 A 
ATOM     17  C   UNL     1      38.697  72.426  38.435  0.00  0.00    +0.005 A 
ATOM     18  C   UNL     1      38.364  71.309  37.553  0.00  0.00    -0.033 A 
ATOM     28  C   UNL     1      37.243  71.434  36.637  0.00  0.00    +0.005 A 
ATOM     29  C   UNL     1      36.470  72.615  36.575  0.00  0.00    +0.013 A 
BRANCH  18  19
ATOM     19  C   UNL     1      39.162  69.992  37.534  0.00  0.00    +0.119 C 
BRANCH  19  20
ATOM     20  N   UNL     1      39.203  69.198  38.798  0.00  0.00    -0.302 NA
ATOM     21  C   UNL     1      40.198  68.038  38.715  0.00  0.00    +0.066 C 
ATOM     22  C   UNL     1      40.244  67.231  40.054  0.00  0.00    -0.064 C 
ATOM     23  N   UNL     1      38.841  66.719  40.386  0.00  0.00    +0.379 N 
ATOM     24  C   UNL     1      38.891  65.911  41.613  0.00  0.00    -0.096 C 
ATOM     25  H   UNL     1      38.520  66.050  39.553  0.00  0.00    -0.082 HD
ATOM     26  C   UNL     1      37.844  67.866  40.467  0.00  0.00    -0.064 C 
ATOM     27  C   UNL     1      37.828  68.679  39.142  0.00  0.00    +0.066 C 
ENDBRANCH  19  20
ENDBRANCH  18  19
ENDBRANCH  14  15
ENDBRANCH  12  13
TORSDOF 6
ENDMDL
MODEL 5
REMARK VINA RESULT:      -7.4      2.008     11.341
REMARK  Name = C:\Users\Docking\Desktop\test protocol\1iep_ligandH.pdb
REMARK  8 active torsions:
REMARK  status: ('A' for Active; 'I' for Inactive)
REMARK    1  A    between atoms: _5  and  _11
REMARK    2  A    between atoms: _19  and  _21
REMARK    3  A    between atoms: _22  and  _66
REMARK    4  A    between atoms: _27  and  _30
REMARK    5  A    between atoms: _32  and  _33
REMARK    6  A    between atoms: _38  and  _43
REMARK    7  A    between atoms: _43  and  _46
REMARK    8  A    between atoms: _53  and  _55
REMARK                            x       y       z     vdW  Elec       q    Type
REMARK                         _______ _______ _______ _____ _____    ______ ____
ROOT
ATOM     10  C   UNL     1      45.752  49.641  31.734  0.00  0.00    +0.038 A 
ATOM     11  C   UNL     1      45.773  51.036  31.989  0.00  0.00    +0.047 A 
ATOM     12  C   UNL     1      44.608  51.719  32.530  0.00  0.00    +0.035 A 
ATOM     32  C   UNL     1      43.440  50.950  32.803  0.00  0.00    +0.024 A 
ATOM     33  C   UNL     1      43.401  49.531  32.550  0.00  0.00    +0.007 A 
ATOM     34  C   UNL     1      44.546  48.852  32.013  0.00  0.00    -0.029 A 
ATOM     35  C   UNL     1      44.446  47.331  31.755  0.00  0.00    +0.045 C 
ENDROOT
BRANCH  10   9
ATOM      4  C   UNL     1      50.400  48.469  31.976  0.00  0.00    +0.077 A 
ATOM      5  C   UNL     1      50.565  49.141  33.232  0.00  0.00    +0.048 A 
ATOM      6  C   UNL     1      49.431  49.782  33.779  0.00  0.00    +0.116 A 
ATOM      7  N   UNL     1      48.227  49.747  33.111  0.00  0.00    -0.223 NA
ATOM      8  C   UNL     1      48.102  49.091  31.900  0.00  0.00    +0.220 A 
ATOM      9  N   UNL     1      46.899  49.036  31.214  0.00  0.00    -0.283 N 
ATOM     36  H   UNL     1      46.850  48.549  30.319  0.00  0.00    +0.155 HD
ATOM     37  N   UNL     1      49.171  48.472  31.356  0.00  0.00    -0.214 NA
BRANCH   4   3
ATOM      1  C   UNL     1      53.907  47.008  31.042  0.00  0.00    +0.020 A 
ATOM      2  C   UNL     1      52.878  47.726  31.759  0.00  0.00    +0.013 A 
ATOM      3  C   UNL     1      51.504  47.742  31.272  0.00  0.00    +0.019 A 
ATOM     38  C   UNL     1      51.202  47.017  30.048  0.00  0.00    +0.120 A 
ATOM     39  N   UNL     1      52.214  46.336  29.378  0.00  0.00    -0.263 NA
ATOM     40  C   UNL     1      53.540  46.314  29.836  0.00  0.00    +0.111 A 
ENDBRANCH   4   3
ENDBRANCH  10   9
BRANCH  12  13
ATOM     13  N   UNL     1      44.568  53.135  32.802  0.00  0.00    -0.281 N 
ATOM     14  C   UNL     1      45.262  53.836  33.775  0.00  0.00    +0.248 C 
ATOM     30  O   UNL     1      45.865  53.317  34.703  0.00  0.00    -0.270 OA
ATOM     31  H   UNL     1      43.953  53.687  32.204  0.00  0.00    +0.155 HD
BRANCH  14  15
ATOM     15  C   UNL     1      45.277  55.329  33.716  0.00  0.00    +0.037 A 
ATOM     16  C   UNL     1      44.827  56.047  32.521  0.00  0.00    +0.013 A 
ATOM     17  C   UNL     1      44.867  57.488  32.485  0.00  0.00    +0.005 A 
ATOM     18  C   UNL     1      45.360  58.220  33.650  0.00  0.00    -0.033 A 
ATOM     28  C   UNL     1      45.795  57.482  34.824  0.00  0.00    +0.005 A 
ATOM     29  C   UNL     1      45.758  56.070  34.863  0.00  0.00    +0.013 A 
BRANCH  18  19
ATOM     19  C   UNL     1      45.458  59.756  33.692  0.00  0.00    +0.119 C 
BRANCH  19  20
ATOM     20  N   UNL     1      46.826  60.352  33.754  0.00  0.00    -0.302 NA
ATOM     21  C   UNL     1      46.800  61.872  33.567  0.00  0.00    +0.066 C 
ATOM     22  C   UNL     1      48.237  62.481  33.658  0.00  0.00    -0.064 C 
ATOM     23  N   UNL     1      49.134  61.822  32.609  0.00  0.00    +0.379 N 
ATOM     24  C   UNL     1      50.470  62.434  32.652  0.00  0.00    -0.096 C 
ATOM     25  H   UNL     1      48.696  62.037  31.606  0.00  0.00    -0.082 HD
ATOM     26  C   UNL     1      49.164  60.311  32.786  0.00  0.00    -0.064 C 
ATOM     27  C   UNL     1      47.728  59.719  32.724  0.00  0.00    +0.066 C 
ENDBRANCH  19  20
ENDBRANCH  18  19
ENDBRANCH  14  15
ENDBRANCH  12  13
TORSDOF 6
ENDMDL
