MODEL 1
REMARK VINA RESULT:     -11.7      0.000      0.000
REMARK  Name = C:\Users\Docking\Desktop\test protocol\1iep_ligandH.pdb
REMARK  8 active torsions:
REMARK  status: ('A' for Active; 'I' for Inactive)
REMARK    1  A    between atoms: _5  and  _11
REMARK    2  A    between atoms: _19  and  _21
REMARK    3  A    between atoms: _22  and  _66
REMARK    4  A    between atoms: _27  and  _30
REMARK    5  A    between atoms: _32  and  _33
REMARK    6  A    between atoms: _38  and  _43
REMARK    7  A    between atoms: _43  and  _46
REMARK    8  A    between atoms: _53  and  _55
REMARK                            x       y       z     vdW  Elec       q    Type
REMARK                         _______ _______ _______ _____ _____    ______ ____
ROOT
ATOM     10  C   UNL     1       6.871  24.197   4.398  0.00  0.00    +0.038 A 
ATOM     11  C   UNL     1       5.477  24.151   4.656  0.00  0.00    +0.047 A 
ATOM     12  C   UNL     1       4.929  23.269   5.674  0.00  0.00    +0.035 A 
ATOM     32  C   UNL     1       5.831  22.449   6.414  0.00  0.00    +0.024 A 
ATOM     33  C   UNL     1       7.250  22.483   6.164  0.00  0.00    +0.007 A 
ATOM     34  C   UNL     1       7.796  23.349   5.159  0.00  0.00    -0.029 A 
ATOM     35  C   UNL     1       9.325  23.339   4.929  0.00  0.00    +0.045 C 
ENDROOT
BRANCH  10   9
ATOM      4  C   UNL     1       9.140  28.187   2.995  0.00  0.00    +0.077 A 
ATOM      5  C   UNL     1       9.384  28.596   4.348  0.00  0.00    +0.048 A 
ATOM      6  C   UNL     1       8.903  27.754   5.376  0.00  0.00    +0.116 A 
ATOM      7  N   UNL     1       8.230  26.593   5.063  0.00  0.00    -0.223 NA
ATOM      8  C   UNL     1       8.010  26.230   3.747  0.00  0.00    +0.220 A 
ATOM      9  N   UNL     1       7.342  25.063   3.408  0.00  0.00    -0.283 N 
ATOM     36  H   UNL     1       7.194  24.834   2.426  0.00  0.00    +0.155 HD
ATOM     37  N   UNL     1       8.459  27.017   2.747  0.00  0.00    -0.214 NA
BRANCH   4   3
ATOM      1  C   UNL     1      11.085  29.334  -0.199  0.00  0.00    +0.020 A 
ATOM      2  C   UNL     1      10.691  28.544   0.944  0.00  0.00    +0.013 A 
ATOM      3  C   UNL     1       9.590  28.968   1.799  0.00  0.00    +0.019 A 
ATOM     38  C   UNL     1       8.902  30.206   1.467  0.00  0.00    +0.120 A 
ATOM     39  N   UNL     1       9.305  30.948   0.360  0.00  0.00    -0.263 NA
ATOM     40  C   UNL     1      10.364  30.550  -0.469  0.00  0.00    +0.111 A 
ENDBRANCH   4   3
ENDBRANCH  10   9
BRANCH  12  13
ATOM     13  N   UNL     1       3.522  23.173   5.975  0.00  0.00    -0.281 N 
ATOM     14  C   UNL     1       2.791  22.036   6.275  0.00  0.00    +0.248 C 
ATOM     30  O   UNL     1       3.196  20.893   6.121  0.00  0.00    -0.270 OA
ATOM     31  H   UNL     1       3.002  24.051   5.965  0.00  0.00    +0.155 HD
BRANCH  14  15
ATOM     15  C   UNL     1       1.404  22.189   6.811  0.00  0.00    +0.037 A 
ATOM     16  C   UNL     1       0.879  21.278   7.832  0.00  0.00    +0.013 A 
ATOM     17  C   UNL     1      -0.468  21.438   8.319  0.00  0.00    +0.005 A 
ATOM     18  C   UNL     1      -1.299  22.516   7.787  0.00  0.00    -0.033 A 
ATOM     28  C   UNL     1      -0.751  23.408   6.779  0.00  0.00    +0.005 A 
ATOM     29  C   UNL     1       0.569  23.254   6.298  0.00  0.00    +0.013 A 
BRANCH  18  19
ATOM     19  C   UNL     1      -2.755  22.748   8.234  0.00  0.00    +0.119 C 
BRANCH  19  20
ATOM     20  N   UNL     1      -3.406  21.666   9.031  0.00  0.00    -0.302 NA
ATOM     21  C   UNL     1      -3.998  20.571   8.139  0.00  0.00    +0.066 C 
ATOM     22  C   UNL     1      -4.655  19.437   8.990  0.00  0.00    -0.064 C 
ATOM     23  N   UNL     1      -5.732  20.040   9.894  0.00  0.00    +0.379 N 
ATOM     24  C   UNL     1      -6.392  18.967  10.654  0.00  0.00    -0.096 C 
ATOM     25  H   UNL     1      -6.499  20.511   9.237  0.00  0.00    -0.082 HD
ATOM     26  C   UNL     1      -5.152  21.131  10.783  0.00  0.00    -0.064 C 
ATOM     27  C   UNL     1      -4.476  22.239   9.928  0.00  0.00    +0.066 C 
ENDBRANCH  19  20
ENDBRANCH  18  19
ENDBRANCH  14  15
ENDBRANCH  12  13
TORSDOF 6
ENDMDL
MODEL 2
REMARK VINA RESULT:     -11.4      4.139      6.161
REMARK  Name = C:\Users\Docking\Desktop\test protocol\1iep_ligandH.pdb
REMARK  8 active torsions:
REMARK  status: ('A' for Active; 'I' for Inactive)
REMARK    1  A    between atoms: _5  and  _11
REMARK    2  A    between atoms: _19  and  _21
REMARK    3  A    between atoms: _22  and  _66
REMARK    4  A    between atoms: _27  and  _30
REMARK    5  A    between atoms: _32  and  _33
REMARK    6  A    between atoms: _38  and  _43
REMARK    7  A    between atoms: _43  and  _46
REMARK    8  A    between atoms: _53  and  _55
REMARK                            x       y       z     vdW  Elec       q    Type
REMARK                         _______ _______ _______ _____ _____    ______ ____
ROOT
ATOM     10  C   UNL     1       9.142  26.318   1.010  0.00  0.00    +0.038 A 
ATOM     11  C   UNL     1       8.095  25.557   1.589  0.00  0.00    +0.047 A 
ATOM     12  C   UNL     1       7.989  25.397   3.031  0.00  0.00    +0.035 A 
ATOM     32  C   UNL     1       8.967  26.029   3.854  0.00  0.00    +0.024 A 
ATOM     33  C   UNL     1      10.039  26.805   3.282  0.00  0.00    +0.007 A 
ATOM     34  C   UNL     1      10.150  26.964   1.860  0.00  0.00    -0.029 A 
ATOM     35  C   UNL     1      11.324  27.801   1.302  0.00  0.00    +0.045 C 
ENDROOT
BRANCH  10   9
ATOM      4  C   UNL     1       9.976  24.527  -3.364  0.00  0.00    +0.077 A 
ATOM      5  C   UNL     1      10.364  23.252  -2.833  0.00  0.00    +0.048 A 
ATOM      6  C   UNL     1      10.342  23.100  -1.429  0.00  0.00    +0.116 A 
ATOM      7  N   UNL     1       9.959  24.152  -0.625  0.00  0.00    -0.223 NA
ATOM      8  C   UNL     1       9.592  25.369  -1.169  0.00  0.00    +0.220 A 
ATOM      9  N   UNL     1       9.196  26.438  -0.381  0.00  0.00    -0.283 N 
ATOM     36  H   UNL     1       8.940  27.321  -0.820  0.00  0.00    +0.155 HD
ATOM     37  N   UNL     1       9.606  25.539  -2.508  0.00  0.00    -0.214 NA
BRANCH   4   3
ATOM      1  C   UNL     1      10.643  24.435  -7.218  0.00  0.00    +0.020 A 
ATOM      2  C   UNL     1      10.709  24.091  -5.816  0.00  0.00    +0.013 A 
ATOM      3  C   UNL     1       9.944  24.841  -4.828  0.00  0.00    +0.019 A 
ATOM     38  C   UNL     1       9.115  25.942  -5.295  0.00  0.00    +0.120 A 
ATOM     39  N   UNL     1       9.072  26.251  -6.651  0.00  0.00    -0.263 NA
ATOM     40  C   UNL     1       9.805  25.537  -7.611  0.00  0.00    +0.111 A 
ENDBRANCH   4   3
ENDBRANCH  10   9
BRANCH  12  13
ATOM     13  N   UNL     1       6.952  24.631   3.676  0.00  0.00    -0.281 N 
ATOM     14  C   UNL     1       7.092  23.676   4.670  0.00  0.00    +0.248 C 
ATOM     30  O   UNL     1       8.157  23.181   5.008  0.00  0.00    -0.270 OA
ATOM     31  H   UNL     1       5.999  24.813   3.361  0.00  0.00    +0.155 HD
BRANCH  14  15
ATOM     15  C   UNL     1       5.871  23.191   5.382  0.00  0.00    +0.037 A 
ATOM     16  C   UNL     1       4.544  23.727   5.067  0.00  0.00    +0.013 A 
ATOM     17  C   UNL     1       3.385  23.254   5.781  0.00  0.00    +0.005 A 
ATOM     18  C   UNL     1       3.547  22.237   6.817  0.00  0.00    -0.033 A 
ATOM     28  C   UNL     1       4.874  21.719   7.106  0.00  0.00    +0.005 A 
ATOM     29  C   UNL     1       6.013  22.181   6.409  0.00  0.00    +0.013 A 
BRANCH  18  19
ATOM     19  C   UNL     1       2.369  21.689   7.644  0.00  0.00    +0.119 C 
BRANCH  19  20
ATOM     20  N   UNL     1       0.992  22.055   7.197  0.00  0.00    -0.302 NA
ATOM     21  C   UNL     1       0.608  23.475   7.623  0.00  0.00    +0.066 C 
ATOM     22  C   UNL     1      -0.827  23.849   7.128  0.00  0.00    -0.064 C 
ATOM     23  N   UNL     1      -1.832  22.831   7.669  0.00  0.00    +0.379 N 
ATOM     24  C   UNL     1      -3.190  23.212   7.253  0.00  0.00    -0.096 C 
ATOM     25  H   UNL     1      -1.794  22.877   8.782  0.00  0.00    -0.082 HD
ATOM     26  C   UNL     1      -1.456  21.416   7.252  0.00  0.00    -0.064 C 
ATOM     27  C   UNL     1      -0.018  21.064   7.724  0.00  0.00    +0.066 C 
ENDBRANCH  19  20
ENDBRANCH  18  19
ENDBRANCH  14  15
ENDBRANCH  12  13
TORSDOF 6
ENDMDL
MODEL 3
REMARK VINA RESULT:     -11.3      6.541     13.939
REMARK  Name = C:\Users\Docking\Desktop\test protocol\1iep_ligandH.pdb
REMARK  8 active torsions:
REMARK  status: ('A' for Active; 'I' for Inactive)
REMARK    1  A    between atoms: _5  and  _11
REMARK    2  A    between atoms: _19  and  _21
REMARK    3  A    between atoms: _22  and  _66
REMARK    4  A    between atoms: _27  and  _30
REMARK    5  A    between atoms: _32  and  _33
REMARK    6  A    between atoms: _38  and  _43
REMARK    7  A    between atoms: _43  and  _46
REMARK    8  A    between atoms: _53  and  _55
REMARK                            x       y       z     vdW  Elec       q    Type
REMARK                         _______ _______ _______ _____ _____    ______ ____
ROOT
ATOM     10  C   UNL     1       8.143  25.756   2.675  0.00  0.00    +0.038 A 
ATOM     11  C   UNL     1       8.460  25.395   1.341  0.00  0.00    +0.047 A 
ATOM     12  C   UNL     1       9.703  25.825   0.720  0.00  0.00    +0.035 A 
ATOM     32  C   UNL     1      10.602  26.620   1.488  0.00  0.00    +0.024 A 
ATOM     33  C   UNL     1      10.296  26.997   2.846  0.00  0.00    +0.007 A 
ATOM     34  C   UNL     1       9.070  26.578   3.463  0.00  0.00    -0.029 A 
ATOM     35  C   UNL     1       8.790  27.018   4.919  0.00  0.00    +0.045 C 
ENDROOT
BRANCH  10   9
ATOM      4  C   UNL     1       5.615  23.014   5.696  0.00  0.00    +0.077 A 
ATOM      5  C   UNL     1       6.798  22.387   6.211  0.00  0.00    +0.048 A 
ATOM      6  C   UNL     1       8.037  22.793   5.666  0.00  0.00    +0.116 A 
ATOM      7  N   UNL     1       8.078  23.756   4.681  0.00  0.00    -0.223 NA
ATOM      8  C   UNL     1       6.918  24.340   4.206  0.00  0.00    +0.220 A 
ATOM      9  N   UNL     1       6.936  25.315   3.222  0.00  0.00    -0.283 N 
ATOM     36  H   UNL     1       6.058  25.716   2.893  0.00  0.00    +0.155 HD
ATOM     37  N   UNL     1       5.722  23.968   4.709  0.00  0.00    -0.214 NA
BRANCH   4   3
ATOM      1  C   UNL     1       2.603  21.414   7.613  0.00  0.00    +0.020 A 
ATOM      2  C   UNL     1       3.957  21.684   7.187  0.00  0.00    +0.013 A 
ATOM      3  C   UNL     1       4.232  22.694   6.173  0.00  0.00    +0.019 A 
ATOM     38  C   UNL     1       3.105  23.420   5.605  0.00  0.00    +0.120 A 
ATOM     39  N   UNL     1       1.812  23.137   6.034  0.00  0.00    -0.263 NA
ATOM     40  C   UNL     1       1.535  22.166   7.008  0.00  0.00    +0.111 A 
ENDBRANCH   4   3
ENDBRANCH  10   9
BRANCH  12  13
ATOM     13  N   UNL     1      10.075  25.496  -0.634  0.00  0.00    -0.281 N 
ATOM     14  C   UNL     1      10.220  24.237  -1.195  0.00  0.00    +0.248 C 
ATOM     30  O   UNL     1      10.259  23.196  -0.557  0.00  0.00    -0.270 OA
ATOM     31  H   UNL     1      10.254  26.286  -1.253  0.00  0.00    +0.155 HD
BRANCH  14  15
ATOM     15  C   UNL     1      10.355  24.120  -2.679  0.00  0.00    +0.037 A 
ATOM     16  C   UNL     1      11.633  23.765  -3.300  0.00  0.00    +0.013 A 
ATOM     17  C   UNL     1      11.741  23.675  -4.735  0.00  0.00    +0.005 A 
ATOM     18  C   UNL     1      10.564  23.940  -5.559  0.00  0.00    -0.033 A 
ATOM     28  C   UNL     1       9.306  24.286  -4.916  0.00  0.00    +0.005 A 
ATOM     29  C   UNL     1       9.198  24.375  -3.511  0.00  0.00    +0.013 A 
BRANCH  18  19
ATOM     19  C   UNL     1      10.591  23.889  -7.098  0.00  0.00    +0.119 C 
BRANCH  19  20
ATOM     20  N   UNL     1       9.623  22.970  -7.769  0.00  0.00    -0.302 NA
ATOM     21  C   UNL     1       9.629  21.573  -7.142  0.00  0.00    +0.066 C 
ATOM     22  C   UNL     1       8.595  20.632  -7.841  0.00  0.00    -0.064 C 
ATOM     23  N   UNL     1       8.908  20.556  -9.337  0.00  0.00    +0.379 N 
ATOM     24  C   UNL     1       7.973  19.626  -9.987  0.00  0.00    -0.096 C 
ATOM     25  H   UNL     1       9.934  20.135  -9.446  0.00  0.00    -0.082 HD
ATOM     26  C   UNL     1       8.907  21.942  -9.967  0.00  0.00    -0.064 C 
ATOM     27  C   UNL     1       9.917  22.877  -9.246  0.00  0.00    +0.066 C 
ENDBRANCH  19  20
ENDBRANCH  18  19
ENDBRANCH  14  15
ENDBRANCH  12  13
TORSDOF 6
ENDMDL
MODEL 4
REMARK VINA RESULT:     -11.2      6.559     14.986
REMARK  Name = C:\Users\Docking\Desktop\test protocol\1iep_ligandH.pdb
REMARK  8 active torsions:
REMARK  status: ('A' for Active; 'I' for Inactive)
REMARK    1  A    between atoms: _5  and  _11
REMARK    2  A    between atoms: _19  and  _21
REMARK    3  A    between atoms: _22  and  _66
REMARK    4  A    between atoms: _27  and  _30
REMARK    5  A    between atoms: _32  and  _33
REMARK    6  A    between atoms: _38  and  _43
REMARK    7  A    between atoms: _43  and  _46
REMARK    8  A    between atoms: _53  and  _55
REMARK                            x       y       z     vdW  Elec       q    Type
REMARK                         _______ _______ _______ _____ _____    ______ ____
ROOT
ATOM     10  C   UNL     1       8.317  25.818   2.551  0.00  0.00    +0.038 A 
ATOM     11  C   UNL     1       8.702  25.385   1.256  0.00  0.00    +0.047 A 
ATOM     12  C   UNL     1       9.942  25.840   0.648  0.00  0.00    +0.035 A 
ATOM     32  C   UNL     1      10.769  26.734   1.389  0.00  0.00    +0.024 A 
ATOM     33  C   UNL     1      10.393  27.185   2.706  0.00  0.00    +0.007 A 
ATOM     34  C   UNL     1       9.169  26.742   3.309  0.00  0.00    -0.029 A 
ATOM     35  C   UNL     1       8.813  27.262   4.721  0.00  0.00    +0.045 C 
ENDROOT
BRANCH  10   9
ATOM      4  C   UNL     1       5.827  23.075   5.603  0.00  0.00    +0.077 A 
ATOM      5  C   UNL     1       7.022  22.509   6.161  0.00  0.00    +0.048 A 
ATOM      6  C   UNL     1       8.256  22.944   5.629  0.00  0.00    +0.116 A 
ATOM      7  N   UNL     1       8.282  23.878   4.616  0.00  0.00    -0.223 NA
ATOM      8  C   UNL     1       7.112  24.403   4.100  0.00  0.00    +0.220 A 
ATOM      9  N   UNL     1       7.115  25.349   3.086  0.00  0.00    -0.283 N 
ATOM     36  H   UNL     1       6.230  25.707   2.727  0.00  0.00    +0.155 HD
ATOM     37  N   UNL     1       5.920  24.002   4.589  0.00  0.00    -0.214 NA
BRANCH   4   3
ATOM      1  C   UNL     1       2.830  21.349   7.431  0.00  0.00    +0.020 A 
ATOM      2  C   UNL     1       4.182  21.654   7.021  0.00  0.00    +0.013 A 
ATOM      3  C   UNL     1       4.448  22.718   6.062  0.00  0.00    +0.019 A 
ATOM     38  C   UNL     1       3.315  23.463   5.533  0.00  0.00    +0.120 A 
ATOM     39  N   UNL     1       2.024  23.146   5.945  0.00  0.00    -0.263 NA
ATOM     40  C   UNL     1       1.756  22.123   6.866  0.00  0.00    +0.111 A 
ENDBRANCH   4   3
ENDBRANCH  10   9
BRANCH  12  13
ATOM     13  N   UNL     1      10.381  25.441  -0.666  0.00  0.00    -0.281 N 
ATOM     14  C   UNL     1      10.346  24.176  -1.228  0.00  0.00    +0.248 C 
ATOM     30  O   UNL     1      10.127  23.148  -0.604  0.00  0.00    -0.270 OA
ATOM     31  H   UNL     1      10.764  26.182  -1.254  0.00  0.00    +0.155 HD
BRANCH  14  15
ATOM     15  C   UNL     1      10.605  24.028  -2.693  0.00  0.00    +0.037 A 
ATOM     16  C   UNL     1      11.955  24.178  -3.244  0.00  0.00    +0.013 A 
ATOM     17  C   UNL     1      12.175  24.047  -4.663  0.00  0.00    +0.005 A 
ATOM     18  C   UNL     1      11.041  23.765  -5.540  0.00  0.00    -0.033 A 
ATOM     28  C   UNL     1       9.714  23.616  -4.966  0.00  0.00    +0.005 A 
ATOM     29  C   UNL     1       9.495  23.744  -3.576  0.00  0.00    +0.013 A 
BRANCH  18  19
ATOM     19  C   UNL     1      11.180  23.630  -7.068  0.00  0.00    +0.119 C 
BRANCH  19  20
ATOM     20  N   UNL     1      12.351  22.861  -7.584  0.00  0.00    -0.302 NA
ATOM     21  C   UNL     1      13.324  23.750  -8.363  0.00  0.00    +0.066 C 
ATOM     22  C   UNL     1      14.555  22.933  -8.876  0.00  0.00    -0.064 C 
ATOM     23  N   UNL     1      14.068  21.772  -9.744  0.00  0.00    +0.379 N 
ATOM     24  C   UNL     1      15.225  21.037 -10.275  0.00  0.00    -0.096 C 
ATOM     25  H   UNL     1      13.516  22.206 -10.610  0.00  0.00    -0.082 HD
ATOM     26  C   UNL     1      13.097  20.885  -8.977  0.00  0.00    -0.064 C 
ATOM     27  C   UNL     1      11.893  21.712  -8.447  0.00  0.00    +0.066 C 
ENDBRANCH  19  20
ENDBRANCH  18  19
ENDBRANCH  14  15
ENDBRANCH  12  13
TORSDOF 6
ENDMDL
MODEL 5
REMARK VINA RESULT:     -11.2      5.262      7.660
REMARK  Name = C:\Users\Docking\Desktop\test protocol\1iep_ligandH.pdb
REMARK  8 active torsions:
REMARK  status: ('A' for Active; 'I' for Inactive)
REMARK    1  A    between atoms: _5  and  _11
REMARK    2  A    between atoms: _19  and  _21
REMARK    3  A    between atoms: _22  and  _66
REMARK    4  A    between atoms: _27  and  _30
REMARK    5  A    between atoms: _32  and  _33
REMARK    6  A    between atoms: _38  and  _43
REMARK    7  A    between atoms: _43  and  _46
REMARK    8  A    between atoms: _53  and  _55
REMARK                            x       y       z     vdW  Elec       q    Type
REMARK                         _______ _______ _______ _____ _____    ______ ____
ROOT
ATOM     10  C   UNL     1      10.134  25.190  -0.239  0.00  0.00    +0.038 A 
ATOM     11  C   UNL     1       9.359  24.419   0.664  0.00  0.00    +0.047 A 
ATOM     12  C   UNL     1       8.667  25.040   1.782  0.00  0.00    +0.035 A 
ATOM     32  C   UNL     1       8.784  26.451   1.949  0.00  0.00    +0.024 A 
ATOM     33  C   UNL     1       9.568  27.250   1.041  0.00  0.00    +0.007 A 
ATOM     34  C   UNL     1      10.255  26.642  -0.062  0.00  0.00    -0.029 A 
ATOM     35  C   UNL     1      11.087  27.547  -1.000  0.00  0.00    +0.045 C 
ENDROOT
BRANCH  10   9
ATOM      4  C   UNL     1      10.361  23.748  -4.812  0.00  0.00    +0.077 A 
ATOM      5  C   UNL     1       9.076  24.311  -5.115  0.00  0.00    +0.048 A 
ATOM      6  C   UNL     1       8.387  24.957  -4.064  0.00  0.00    +0.116 A 
ATOM      7  N   UNL     1       8.950  25.029  -2.808  0.00  0.00    -0.223 NA
ATOM      8  C   UNL     1      10.189  24.474  -2.549  0.00  0.00    +0.220 A 
ATOM      9  N   UNL     1      10.778  24.542  -1.296  0.00  0.00    -0.283 N 
ATOM     36  H   UNL     1      11.690  24.113  -1.143  0.00  0.00    +0.155 HD
ATOM     37  N   UNL     1      10.867  23.850  -3.535  0.00  0.00    -0.214 NA
BRANCH   4   3
ATOM      1  C   UNL     1      13.443  22.431  -6.828  0.00  0.00    +0.020 A 
ATOM      2  C   UNL     1      12.667  23.139  -5.836  0.00  0.00    +0.013 A 
ATOM      3  C   UNL     1      11.213  23.037  -5.816  0.00  0.00    +0.019 A 
ATOM     38  C   UNL     1      10.570  22.203  -6.821  0.00  0.00    +0.120 A 
ATOM     39  N   UNL     1      11.344  21.534  -7.765  0.00  0.00    -0.263 NA
ATOM     40  C   UNL     1      12.744  21.626  -7.795  0.00  0.00    +0.111 A 
ENDBRANCH   4   3
ENDBRANCH  10   9
BRANCH  12  13
ATOM     13  N   UNL     1       7.872  24.307   2.736  0.00  0.00    -0.281 N 
ATOM     14  C   UNL     1       7.827  24.470   4.111  0.00  0.00    +0.248 C 
ATOM     30  O   UNL     1       8.628  25.132   4.755  0.00  0.00    -0.270 OA
ATOM     31  H   UNL     1       7.270  23.580   2.351  0.00  0.00    +0.155 HD
BRANCH  14  15
ATOM     15  C   UNL     1       6.745  23.788   4.884  0.00  0.00    +0.037 A 
ATOM     16  C   UNL     1       5.337  24.145   4.698  0.00  0.00    +0.013 A 
ATOM     17  C   UNL     1       4.314  23.483   5.469  0.00  0.00    +0.005 A 
ATOM     18  C   UNL     1       4.697  22.455   6.433  0.00  0.00    -0.033 A 
ATOM     28  C   UNL     1       6.102  22.116   6.594  0.00  0.00    +0.005 A 
ATOM     29  C   UNL     1       7.107  22.764   5.841  0.00  0.00    +0.013 A 
BRANCH  18  19
ATOM     19  C   UNL     1       3.675  21.712   7.314  0.00  0.00    +0.119 C 
BRANCH  19  20
ATOM     20  N   UNL     1       2.243  21.767   6.894  0.00  0.00    -0.302 NA
ATOM     21  C   UNL     1       1.716  23.204   6.839  0.00  0.00    +0.066 C 
ATOM     22  C   UNL     1       0.223  23.244   6.376  0.00  0.00    -0.064 C 
ATOM     23  N   UNL     1      -0.625  22.392   7.322  0.00  0.00    +0.379 N 
ATOM     24  C   UNL     1      -2.038  22.475   6.925  0.00  0.00    -0.096 C 
ATOM     25  H   UNL     1      -0.535  22.829   8.344  0.00  0.00    -0.082 HD
ATOM     26  C   UNL     1      -0.105  20.963   7.385  0.00  0.00    -0.064 C 
ATOM     27  C   UNL     1       1.387  20.935   7.817  0.00  0.00    +0.066 C 
ENDBRANCH  19  20
ENDBRANCH  18  19
ENDBRANCH  14  15
ENDBRANCH  12  13
TORSDOF 6
ENDMDL
