MODEL 1
REMARK VINA RESULT:     -10.6      0.000      0.000
REMARK  Name = C:\Users\Docking\Desktop\test protocol\1iep_ligandH.pdb
REMARK  8 active torsions:
REMARK  status: ('A' for Active; 'I' for Inactive)
REMARK    1  A    between atoms: _5  and  _11
REMARK    2  A    between atoms: _19  and  _21
REMARK    3  A    between atoms: _22  and  _66
REMARK    4  A    between atoms: _27  and  _30
REMARK    5  A    between atoms: _32  and  _33
REMARK    6  A    between atoms: _38  and  _43
REMARK    7  A    between atoms: _43  and  _46
REMARK    8  A    between atoms: _53  and  _55
REMARK                            x       y       z     vdW  Elec       q    Type
REMARK                         _______ _______ _______ _____ _____    ______ ____
ROOT
ATOM     10  C   UNL     1       7.951  26.162   2.950  0.00  0.00    +0.038 A 
ATOM     11  C   UNL     1       8.190  25.787   1.603  0.00  0.00    +0.047 A 
ATOM     12  C   UNL     1       9.413  26.177   0.918  0.00  0.00    +0.035 A 
ATOM     32  C   UNL     1      10.373  26.946   1.637  0.00  0.00    +0.024 A 
ATOM     33  C   UNL     1      10.147  27.337   3.007  0.00  0.00    +0.007 A 
ATOM     34  C   UNL     1       8.941  26.957   3.686  0.00  0.00    -0.029 A 
ATOM     35  C   UNL     1       8.748  27.410   5.152  0.00  0.00    +0.045 C 
ENDROOT
BRANCH  10   9
ATOM      4  C   UNL     1       5.388  23.128   5.645  0.00  0.00    +0.077 A 
ATOM      5  C   UNL     1       6.510  22.256   5.836  0.00  0.00    +0.048 A 
ATOM      6  C   UNL     1       7.728  22.620   5.217  0.00  0.00    +0.116 A 
ATOM      7  N   UNL     1       7.805  23.773   4.467  0.00  0.00    -0.223 NA
ATOM      8  C   UNL     1       6.703  24.592   4.302  0.00  0.00    +0.220 A 
ATOM      9  N   UNL     1       6.760  25.760   3.558  0.00  0.00    -0.283 N 
ATOM     36  H   UNL     1       5.923  26.333   3.454  0.00  0.00    +0.155 HD
ATOM     37  N   UNL     1       5.528  24.265   4.881  0.00  0.00    -0.214 NA
BRANCH   4   3
ATOM      1  C   UNL     1       2.492  21.798   7.913  0.00  0.00    +0.020 A 
ATOM      2  C   UNL     1       3.819  22.002   7.379  0.00  0.00    +0.013 A 
ATOM      3  C   UNL     1       4.035  22.881   6.237  0.00  0.00    +0.019 A 
ATOM     38  C   UNL     1       2.878  23.544   5.654  0.00  0.00    +0.120 A 
ATOM     39  N   UNL     1       1.612  23.328   6.188  0.00  0.00    -0.263 NA
ATOM     40  C   UNL     1       1.392  22.483   7.286  0.00  0.00    +0.111 A 
ENDBRANCH   4   3
ENDBRANCH  10   9
BRANCH  12  13
ATOM     13  N   UNL     1       9.706  25.832  -0.451  0.00  0.00    -0.281 N 
ATOM     14  C   UNL     1       9.722  24.573  -1.027  0.00  0.00    +0.248 C 
ATOM     30  O   UNL     1       9.695  23.525  -0.399  0.00  0.00    -0.270 OA
ATOM     31  H   UNL     1       9.929  26.611  -1.070  0.00  0.00    +0.155 HD
BRANCH  14  15
ATOM     15  C   UNL     1       9.794  24.461  -2.516  0.00  0.00    +0.037 A 
ATOM     16  C   UNL     1       8.644  24.797  -3.359  0.00  0.00    +0.013 A 
ATOM     17  C   UNL     1       8.733  24.664  -4.791  0.00  0.00    +0.005 A 
ATOM     18  C   UNL     1       9.980  24.193  -5.390  0.00  0.00    -0.033 A 
ATOM     28  C   UNL     1      11.107  23.872  -4.531  0.00  0.00    +0.005 A 
ATOM     29  C   UNL     1      11.023  24.000  -3.126  0.00  0.00    +0.013 A 
BRANCH  18  19
ATOM     19  C   UNL     1      10.159  24.001  -6.908  0.00  0.00    +0.119 C 
BRANCH  19  20
ATOM     20  N   UNL     1       9.226  23.057  -7.592  0.00  0.00    -0.302 NA
ATOM     21  C   UNL     1       9.209  21.680  -6.922  0.00  0.00    +0.066 C 
ATOM     22  C   UNL     1       8.211  20.712  -7.637  0.00  0.00    -0.064 C 
ATOM     23  N   UNL     1       8.591  20.591  -9.114  0.00  0.00    +0.379 N 
ATOM     24  C   UNL     1       7.690  19.637  -9.776  0.00  0.00    -0.096 C 
ATOM     25  H   UNL     1       9.623  20.173  -9.164  0.00  0.00    -0.082 HD
ATOM     26  C   UNL     1       8.613  21.956  -9.787  0.00  0.00    -0.064 C 
ATOM     27  C   UNL     1       9.586  22.919  -9.051  0.00  0.00    +0.066 C 
ENDBRANCH  19  20
ENDBRANCH  18  19
ENDBRANCH  14  15
ENDBRANCH  12  13
TORSDOF 6
ENDMDL
MODEL 2
REMARK VINA RESULT:     -10.6      1.457      1.592
REMARK  Name = C:\Users\Docking\Desktop\test protocol\1iep_ligandH.pdb
REMARK  8 active torsions:
REMARK  status: ('A' for Active; 'I' for Inactive)
REMARK    1  A    between atoms: _5  and  _11
REMARK    2  A    between atoms: _19  and  _21
REMARK    3  A    between atoms: _22  and  _66
REMARK    4  A    between atoms: _27  and  _30
REMARK    5  A    between atoms: _32  and  _33
REMARK    6  A    between atoms: _38  and  _43
REMARK    7  A    between atoms: _43  and  _46
REMARK    8  A    between atoms: _53  and  _55
REMARK                            x       y       z     vdW  Elec       q    Type
REMARK                         _______ _______ _______ _____ _____    ______ ____
ROOT
ATOM     10  C   UNL     1       8.198  26.050   2.456  0.00  0.00    +0.038 A 
ATOM     11  C   UNL     1       8.587  25.610   1.165  0.00  0.00    +0.047 A 
ATOM     12  C   UNL     1       9.816  26.082   0.548  0.00  0.00    +0.035 A 
ATOM     32  C   UNL     1      10.628  27.001   1.275  0.00  0.00    +0.024 A 
ATOM     33  C   UNL     1      10.248  27.459   2.588  0.00  0.00    +0.007 A 
ATOM     34  C   UNL     1       9.035  26.998   3.201  0.00  0.00    -0.029 A 
ATOM     35  C   UNL     1       8.674  27.528   4.609  0.00  0.00    +0.045 C 
ENDROOT
BRANCH  10   9
ATOM      4  C   UNL     1       5.772  23.363   5.608  0.00  0.00    +0.077 A 
ATOM      5  C   UNL     1       6.980  22.864   6.201  0.00  0.00    +0.048 A 
ATOM      6  C   UNL     1       8.204  23.318   5.662  0.00  0.00    +0.116 A 
ATOM      7  N   UNL     1       8.209  24.205   4.607  0.00  0.00    -0.223 NA
ATOM      8  C   UNL     1       7.026  24.665   4.057  0.00  0.00    +0.220 A 
ATOM      9  N   UNL     1       7.008  25.564   3.001  0.00  0.00    -0.283 N 
ATOM     36  H   UNL     1       6.115  25.873   2.619  0.00  0.00    +0.155 HD
ATOM     37  N   UNL     1       5.844  24.245   4.554  0.00  0.00    -0.214 NA
BRANCH   4   3
ATOM      1  C   UNL     1       2.819  21.640   7.508  0.00  0.00    +0.020 A 
ATOM      2  C   UNL     1       4.163  21.974   7.098  0.00  0.00    +0.013 A 
ATOM      3  C   UNL     1       4.401  22.979   6.069  0.00  0.00    +0.019 A 
ATOM     38  C   UNL     1       3.247  23.633   5.471  0.00  0.00    +0.120 A 
ATOM     39  N   UNL     1       1.964  23.290   5.885  0.00  0.00    -0.263 NA
ATOM     40  C   UNL     1       1.723  22.323   6.873  0.00  0.00    +0.111 A 
ENDBRANCH   4   3
ENDBRANCH  10   9
BRANCH  12  13
ATOM     13  N   UNL     1      10.258  25.677  -0.764  0.00  0.00    -0.281 N 
ATOM     14  C   UNL     1      10.097  24.444  -1.373  0.00  0.00    +0.248 C 
ATOM     30  O   UNL     1       9.735  23.430  -0.796  0.00  0.00    -0.270 OA
ATOM     31  H   UNL     1      10.748  26.386  -1.309  0.00  0.00    +0.155 HD
BRANCH  14  15
ATOM     15  C   UNL     1      10.397  24.314  -2.832  0.00  0.00    +0.037 A 
ATOM     16  C   UNL     1       9.536  23.526  -3.717  0.00  0.00    +0.013 A 
ATOM     17  C   UNL     1       9.857  23.404  -5.117  0.00  0.00    +0.005 A 
ATOM     18  C   UNL     1      11.045  24.074  -5.641  0.00  0.00    -0.033 A 
ATOM     28  C   UNL     1      11.878  24.854  -4.741  0.00  0.00    +0.005 A 
ATOM     29  C   UNL     1      11.568  24.975  -3.368  0.00  0.00    +0.013 A 
BRANCH  18  19
ATOM     19  C   UNL     1      11.475  23.981  -7.117  0.00  0.00    +0.119 C 
BRANCH  19  20
ATOM     20  N   UNL     1      11.458  22.628  -7.750  0.00  0.00    -0.302 NA
ATOM     21  C   UNL     1      12.802  22.277  -8.393  0.00  0.00    +0.066 C 
ATOM     22  C   UNL     1      12.773  20.850  -9.031  0.00  0.00    -0.064 C 
ATOM     23  N   UNL     1      11.645  20.779 -10.062  0.00  0.00    +0.379 N 
ATOM     24  C   UNL     1      11.652  19.457 -10.705  0.00  0.00    -0.096 C 
ATOM     25  H   UNL     1      11.858  21.539 -10.848  0.00  0.00    -0.082 HD
ATOM     26  C   UNL     1      10.305  21.129  -9.431  0.00  0.00    -0.064 C 
ATOM     27  C   UNL     1      10.354  22.537  -8.775  0.00  0.00    +0.066 C 
ENDBRANCH  19  20
ENDBRANCH  18  19
ENDBRANCH  14  15
ENDBRANCH  12  13
TORSDOF 6
ENDMDL
MODEL 3
REMARK VINA RESULT:     -10.0      2.132      2.727
REMARK  Name = C:\Users\Docking\Desktop\test protocol\1iep_ligandH.pdb
REMARK  8 active torsions:
REMARK  status: ('A' for Active; 'I' for Inactive)
REMARK    1  A    between atoms: _5  and  _11
REMARK    2  A    between atoms: _19  and  _21
REMARK    3  A    between atoms: _22  and  _66
REMARK    4  A    between atoms: _27  and  _30
REMARK    5  A    between atoms: _32  and  _33
REMARK    6  A    between atoms: _38  and  _43
REMARK    7  A    between atoms: _43  and  _46
REMARK    8  A    between atoms: _53  and  _55
REMARK                            x       y       z     vdW  Elec       q    Type
REMARK                         _______ _______ _______ _____ _____    ______ ____
ROOT
ATOM     10  C   UNL     1       7.966  25.981   2.746  0.00  0.00    +0.038 A 
ATOM     11  C   UNL     1       8.526  25.428   1.566  0.00  0.00    +0.047 A 
ATOM     12  C   UNL     1       9.781  25.926   1.024  0.00  0.00    +0.035 A 
ATOM     32  C   UNL     1      10.439  26.987   1.711  0.00  0.00    +0.024 A 
ATOM     33  C   UNL     1       9.883  27.562   2.911  0.00  0.00    +0.007 A 
ATOM     34  C   UNL     1       8.645  27.076   3.449  0.00  0.00    -0.029 A 
ATOM     35  C   UNL     1       8.092  27.734   4.735  0.00  0.00    +0.045 C 
ENDROOT
BRANCH  10   9
ATOM      4  C   UNL     1       5.428  23.284   5.799  0.00  0.00    +0.077 A 
ATOM      5  C   UNL     1       6.608  22.847   6.487  0.00  0.00    +0.048 A 
ATOM      6  C   UNL     1       7.850  23.333   6.019  0.00  0.00    +0.116 A 
ATOM      7  N   UNL     1       7.895  24.193   4.943  0.00  0.00    -0.223 NA
ATOM      8  C   UNL     1       6.737  24.594   4.301  0.00  0.00    +0.220 A 
ATOM      9  N   UNL     1       6.759  25.464   3.222  0.00  0.00    -0.283 N 
ATOM     36  H   UNL     1       5.884  25.730   2.772  0.00  0.00    +0.155 HD
ATOM     37  N   UNL     1       5.540  24.142   4.728  0.00  0.00    -0.214 NA
BRANCH   4   3
ATOM      1  C   UNL     1       1.531  23.079   6.077  0.00  0.00    +0.020 A 
ATOM      2  C   UNL     1       2.846  23.529   5.681  0.00  0.00    +0.013 A 
ATOM      3  C   UNL     1       4.042  22.860   6.177  0.00  0.00    +0.019 A 
ATOM     38  C   UNL     1       3.872  21.730   7.078  0.00  0.00    +0.120 A 
ATOM     39  N   UNL     1       2.593  21.320   7.442  0.00  0.00    -0.263 NA
ATOM     40  C   UNL     1       1.435  21.957   6.973  0.00  0.00    +0.111 A 
ENDBRANCH   4   3
ENDBRANCH  10   9
BRANCH  12  13
ATOM     13  N   UNL     1      10.394  25.409  -0.174  0.00  0.00    -0.281 N 
ATOM     14  C   UNL     1      10.576  26.058  -1.385  0.00  0.00    +0.248 C 
ATOM     30  O   UNL     1      10.045  27.115  -1.690  0.00  0.00    -0.270 OA
ATOM     31  H   UNL     1      10.735  24.449  -0.124  0.00  0.00    +0.155 HD
BRANCH  14  15
ATOM     15  C   UNL     1      11.466  25.434  -2.411  0.00  0.00    +0.037 A 
ATOM     16  C   UNL     1      12.764  26.024  -2.751  0.00  0.00    +0.013 A 
ATOM     17  C   UNL     1      13.595  25.411  -3.757  0.00  0.00    +0.005 A 
ATOM     18  C   UNL     1      13.132  24.200  -4.429  0.00  0.00    -0.033 A 
ATOM     28  C   UNL     1      11.843  23.633  -4.068  0.00  0.00    +0.005 A 
ATOM     29  C   UNL     1      11.025  24.231  -3.084  0.00  0.00    +0.013 A 
BRANCH  18  19
ATOM     19  C   UNL     1      13.944  23.491  -5.529  0.00  0.00    +0.119 C 
BRANCH  19  20
ATOM     20  N   UNL     1      13.492  23.678  -6.940  0.00  0.00    -0.302 NA
ATOM     21  C   UNL     1      12.501  24.838  -7.077  0.00  0.00    +0.066 C 
ATOM     22  C   UNL     1      12.057  25.034  -8.563  0.00  0.00    -0.064 C 
ATOM     23  N   UNL     1      11.444  23.734  -9.086  0.00  0.00    +0.379 N 
ATOM     24  C   UNL     1      10.973  23.933 -10.464  0.00  0.00    -0.096 C 
ATOM     25  H   UNL     1      10.556  23.501  -8.454  0.00  0.00    -0.082 HD
ATOM     26  C   UNL     1      12.422  22.575  -8.951  0.00  0.00    -0.064 C 
ATOM     27  C   UNL     1      12.880  22.407  -7.475  0.00  0.00    +0.066 C 
ENDBRANCH  19  20
ENDBRANCH  18  19
ENDBRANCH  14  15
ENDBRANCH  12  13
TORSDOF 6
ENDMDL
MODEL 4
REMARK VINA RESULT:      -9.1      2.383      3.106
REMARK  Name = C:\Users\Docking\Desktop\test protocol\1iep_ligandH.pdb
REMARK  8 active torsions:
REMARK  status: ('A' for Active; 'I' for Inactive)
REMARK    1  A    between atoms: _5  and  _11
REMARK    2  A    between atoms: _19  and  _21
REMARK    3  A    between atoms: _22  and  _66
REMARK    4  A    between atoms: _27  and  _30
REMARK    5  A    between atoms: _32  and  _33
REMARK    6  A    between atoms: _38  and  _43
REMARK    7  A    between atoms: _43  and  _46
REMARK    8  A    between atoms: _53  and  _55
REMARK                            x       y       z     vdW  Elec       q    Type
REMARK                         _______ _______ _______ _____ _____    ______ ____
ROOT
ATOM     10  C   UNL     1       8.321  27.090   0.518  0.00  0.00    +0.038 A 
ATOM     11  C   UNL     1       8.936  26.455  -0.591  0.00  0.00    +0.047 A 
ATOM     12  C   UNL     1       9.883  27.166  -1.435  0.00  0.00    +0.035 A 
ATOM     32  C   UNL     1      10.184  28.523  -1.118  0.00  0.00    +0.024 A 
ATOM     33  C   UNL     1       9.568  29.184   0.006  0.00  0.00    +0.007 A 
ATOM     34  C   UNL     1       8.631  28.488   0.840  0.00  0.00    -0.029 A 
ATOM     35  C   UNL     1       7.996  29.248   2.027  0.00  0.00    +0.045 C 
ENDROOT
BRANCH  10   9
ATOM      4  C   UNL     1       7.204  24.514   4.411  0.00  0.00    +0.077 A 
ATOM      5  C   UNL     1       8.539  24.609   4.930  0.00  0.00    +0.048 A 
ATOM      6  C   UNL     1       9.484  25.323   4.160  0.00  0.00    +0.116 A 
ATOM      7  N   UNL     1       9.112  25.896   2.964  0.00  0.00    -0.223 NA
ATOM      8  C   UNL     1       7.817  25.784   2.492  0.00  0.00    +0.220 A 
ATOM      9  N   UNL     1       7.419  26.359   1.295  0.00  0.00    -0.283 N 
ATOM     36  H   UNL     1       6.456  26.248   0.977  0.00  0.00    +0.155 HD
ATOM     37  N   UNL     1       6.896  25.106   3.207  0.00  0.00    -0.214 NA
BRANCH   4   3
ATOM      1  C   UNL     1       3.651  23.395   5.603  0.00  0.00    +0.020 A 
ATOM      2  C   UNL     1       4.686  24.120   4.904  0.00  0.00    +0.013 A 
ATOM      3  C   UNL     1       6.092  23.795   5.110  0.00  0.00    +0.019 A 
ATOM     38  C   UNL     1       6.419  22.723   6.037  0.00  0.00    +0.120 A 
ATOM     39  N   UNL     1       5.400  22.043   6.698  0.00  0.00    -0.263 NA
ATOM     40  C   UNL     1       4.044  22.347   6.508  0.00  0.00    +0.111 A 
ENDBRANCH   4   3
ENDBRANCH  10   9
BRANCH  12  13
ATOM     13  N   UNL     1      10.533  26.577  -2.580  0.00  0.00    -0.281 N 
ATOM     14  C   UNL     1      11.876  26.275  -2.736  0.00  0.00    +0.248 C 
ATOM     30  O   UNL     1      12.762  26.666  -1.991  0.00  0.00    -0.270 OA
ATOM     31  H   UNL     1       9.929  26.355  -3.371  0.00  0.00    +0.155 HD
BRANCH  14  15
ATOM     15  C   UNL     1      12.296  25.430  -3.894  0.00  0.00    +0.037 A 
ATOM     16  C   UNL     1      12.135  25.896  -5.274  0.00  0.00    +0.013 A 
ATOM     17  C   UNL     1      12.533  25.054  -6.373  0.00  0.00    +0.005 A 
ATOM     18  C   UNL     1      13.098  23.735  -6.097  0.00  0.00    -0.033 A 
ATOM     28  C   UNL     1      13.252  23.300  -4.719  0.00  0.00    +0.005 A 
ATOM     29  C   UNL     1      12.862  24.122  -3.639  0.00  0.00    +0.013 A 
BRANCH  18  19
ATOM     19  C   UNL     1      13.531  22.761  -7.209  0.00  0.00    +0.119 C 
BRANCH  19  20
ATOM     20  N   UNL     1      12.502  22.381  -8.223  0.00  0.00    -0.302 NA
ATOM     21  C   UNL     1      11.221  21.854  -7.571  0.00  0.00    +0.066 C 
ATOM     22  C   UNL     1      10.147  21.482  -8.645  0.00  0.00    -0.064 C 
ATOM     23  N   UNL     1      10.731  20.446  -9.607  0.00  0.00    +0.379 N 
ATOM     24  C   UNL     1       9.705  20.050 -10.583  0.00  0.00    -0.096 C 
ATOM     25  H   UNL     1      10.996  19.542  -9.010  0.00  0.00    -0.082 HD
ATOM     26  C   UNL     1      12.007  20.960 -10.258  0.00  0.00    -0.064 C 
ATOM     27  C   UNL     1      13.056  21.355  -9.181  0.00  0.00    +0.066 C 
ENDBRANCH  19  20
ENDBRANCH  18  19
ENDBRANCH  14  15
ENDBRANCH  12  13
TORSDOF 6
ENDMDL
MODEL 5
REMARK VINA RESULT:      -8.9      3.157      4.157
REMARK  Name = C:\Users\Docking\Desktop\test protocol\1iep_ligandH.pdb
REMARK  8 active torsions:
REMARK  status: ('A' for Active; 'I' for Inactive)
REMARK    1  A    between atoms: _5  and  _11
REMARK    2  A    between atoms: _19  and  _21
REMARK    3  A    between atoms: _22  and  _66
REMARK    4  A    between atoms: _27  and  _30
REMARK    5  A    between atoms: _32  and  _33
REMARK    6  A    between atoms: _38  and  _43
REMARK    7  A    between atoms: _43  and  _46
REMARK    8  A    between atoms: _53  and  _55
REMARK                            x       y       z     vdW  Elec       q    Type
REMARK                         _______ _______ _______ _____ _____    ______ ____
ROOT
ATOM     10  C   UNL     1       8.323  26.923   0.484  0.00  0.00    +0.038 A 
ATOM     11  C   UNL     1       8.903  26.239  -0.615  0.00  0.00    +0.047 A 
ATOM     12  C   UNL     1       9.876  26.890  -1.478  0.00  0.00    +0.035 A 
ATOM     32  C   UNL     1      10.238  28.238  -1.191  0.00  0.00    +0.024 A 
ATOM     33  C   UNL     1       9.657  28.949  -0.079  0.00  0.00    +0.007 A 
ATOM     34  C   UNL     1       8.695  28.313   0.774  0.00  0.00    -0.029 A 
ATOM     35  C   UNL     1       8.100  29.125   1.948  0.00  0.00    +0.045 C 
ENDROOT
BRANCH  10   9
ATOM      4  C   UNL     1       7.133  24.416   4.400  0.00  0.00    +0.077 A 
ATOM      5  C   UNL     1       8.482  24.426   4.889  0.00  0.00    +0.048 A 
ATOM      6  C   UNL     1       9.453  25.081   4.099  0.00  0.00    +0.116 A 
ATOM      7  N   UNL     1       9.091  25.678   2.911  0.00  0.00    -0.223 NA
ATOM      8  C   UNL     1       7.782  25.648   2.468  0.00  0.00    +0.220 A 
ATOM      9  N   UNL     1       7.394  26.249   1.280  0.00  0.00    -0.283 N 
ATOM     36  H   UNL     1       6.419  26.199   0.984  0.00  0.00    +0.155 HD
ATOM     37  N   UNL     1       6.836  25.028   3.203  0.00  0.00    -0.214 NA
BRANCH   4   3
ATOM      1  C   UNL     1       3.539  23.486   5.633  0.00  0.00    +0.020 A 
ATOM      2  C   UNL     1       4.602  24.144   4.909  0.00  0.00    +0.013 A 
ATOM      3  C   UNL     1       5.994  23.767   5.123  0.00  0.00    +0.019 A 
ATOM     38  C   UNL     1       6.278  22.712   6.084  0.00  0.00    +0.120 A 
ATOM     39  N   UNL     1       5.234  22.097   6.767  0.00  0.00    -0.263 NA
ATOM     40  C   UNL     1       3.891  22.452   6.571  0.00  0.00    +0.111 A 
ENDBRANCH   4   3
ENDBRANCH  10   9
BRANCH  12  13
ATOM     13  N   UNL     1      10.492  26.248  -2.612  0.00  0.00    -0.281 N 
ATOM     14  C   UNL     1      11.811  25.846  -2.751  0.00  0.00    +0.248 C 
ATOM     30  O   UNL     1      12.716  26.171  -1.997  0.00  0.00    -0.270 OA
ATOM     31  H   UNL     1       9.883  26.069  -3.411  0.00  0.00    +0.155 HD
BRANCH  14  15
ATOM     15  C   UNL     1      12.180  24.966  -3.901  0.00  0.00    +0.037 A 
ATOM     16  C   UNL     1      13.557  24.503  -4.093  0.00  0.00    +0.013 A 
ATOM     17  C   UNL     1      13.890  23.669  -5.220  0.00  0.00    +0.005 A 
ATOM     18  C   UNL     1      12.842  23.292  -6.166  0.00  0.00    -0.033 A 
ATOM     28  C   UNL     1      11.483  23.761  -5.949  0.00  0.00    +0.005 A 
ATOM     29  C   UNL     1      11.154  24.579  -4.846  0.00  0.00    +0.013 A 
BRANCH  18  19
ATOM     19  C   UNL     1      13.110  22.423  -7.409  0.00  0.00    +0.119 C 
BRANCH  19  20
ATOM     20  N   UNL     1      14.124  22.921  -8.385  0.00  0.00    -0.302 NA
ATOM     21  C   UNL     1      13.828  24.352  -8.842  0.00  0.00    +0.066 C 
ATOM     22  C   UNL     1      14.911  24.865  -9.846  0.00  0.00    -0.064 C 
ATOM     23  N   UNL     1      14.981  23.918 -11.045  0.00  0.00    +0.379 N 
ATOM     24  C   UNL     1      15.957  24.429 -12.018  0.00  0.00    -0.096 C 
ATOM     25  H   UNL     1      13.980  23.921 -11.536  0.00  0.00    -0.082 HD
ATOM     26  C   UNL     1      15.273  22.492 -10.599  0.00  0.00    -0.064 C 
ATOM     27  C   UNL     1      14.207  22.002  -9.580  0.00  0.00    +0.066 C 
ENDBRANCH  19  20
ENDBRANCH  18  19
ENDBRANCH  14  15
ENDBRANCH  12  13
TORSDOF 6
ENDMDL
