MODEL 1
REMARK VINA RESULT:     -11.6      0.000      0.000
REMARK  Name = C:\Users\Docking\Desktop\test protocol\1iep_ligandH.pdb
REMARK  8 active torsions:
REMARK  status: ('A' for Active; 'I' for Inactive)
REMARK    1  A    between atoms: _5  and  _11
REMARK    2  A    between atoms: _19  and  _21
REMARK    3  A    between atoms: _22  and  _66
REMARK    4  A    between atoms: _27  and  _30
REMARK    5  A    between atoms: _32  and  _33
REMARK    6  A    between atoms: _38  and  _43
REMARK    7  A    between atoms: _43  and  _46
REMARK    8  A    between atoms: _53  and  _55
REMARK                            x       y       z     vdW  Elec       q    Type
REMARK                         _______ _______ _______ _____ _____    ______ ____
ROOT
ATOM     10  C   UNL     1       7.385  25.669   3.738  0.00  0.00    +0.038 A 
ATOM     11  C   UNL     1       7.879  25.184   2.501  0.00  0.00    +0.047 A 
ATOM     12  C   UNL     1       9.204  25.550   2.023  0.00  0.00    +0.035 A 
ATOM     32  C   UNL     1       9.999  26.412   2.834  0.00  0.00    +0.024 A 
ATOM     33  C   UNL     1       9.512  26.915   4.094  0.00  0.00    +0.007 A 
ATOM     34  C   UNL     1       8.206  26.559   4.569  0.00  0.00    -0.029 A 
ATOM     35  C   UNL     1       7.732  27.134   5.924  0.00  0.00    +0.045 C 
ENDROOT
BRANCH  10   9
ATOM      4  C   UNL     1       4.400  22.779   6.142  0.00  0.00    +0.077 A 
ATOM      5  C   UNL     1       5.477  21.949   6.598  0.00  0.00    +0.048 A 
ATOM      6  C   UNL     1       6.784  22.295   6.186  0.00  0.00    +0.116 A 
ATOM      7  N   UNL     1       6.986  23.393   5.378  0.00  0.00    -0.223 NA
ATOM      8  C   UNL     1       5.925  24.172   4.954  0.00  0.00    +0.220 A 
ATOM      9  N   UNL     1       6.106  25.285   4.148  0.00  0.00    -0.283 N 
ATOM     36  H   UNL     1       5.297  25.830   3.851  0.00  0.00    +0.155 HD
ATOM     37  N   UNL     1       4.668  23.861   5.333  0.00  0.00    -0.214 NA
BRANCH   4   3
ATOM      1  C   UNL     1       1.129  21.263   7.657  0.00  0.00    +0.020 A 
ATOM      2  C   UNL     1       2.528  21.445   7.346  0.00  0.00    +0.013 A 
ATOM      3  C   UNL     1       2.965  22.545   6.495  0.00  0.00    +0.019 A 
ATOM     38  C   UNL     1       1.953  23.449   5.971  0.00  0.00    +0.120 A 
ATOM     39  N   UNL     1       0.612  23.248   6.286  0.00  0.00    -0.263 NA
ATOM     40  C   UNL     1       0.180  22.193   7.103  0.00  0.00    +0.111 A 
ENDBRANCH   4   3
ENDBRANCH  10   9
BRANCH  12  13
ATOM     13  N   UNL     1       9.756  25.095   0.772  0.00  0.00    -0.281 N 
ATOM     14  C   UNL     1       9.965  25.829  -0.384  0.00  0.00    +0.248 C 
ATOM     30  O   UNL     1       9.509  26.944  -0.587  0.00  0.00    -0.270 OA
ATOM     31  H   UNL     1      10.025  24.111   0.733  0.00  0.00    +0.155 HD
BRANCH  14  15
ATOM     15  C   UNL     1      10.788  25.232  -1.480  0.00  0.00    +0.037 A 
ATOM     16  C   UNL     1      11.944  25.941  -2.034  0.00  0.00    +0.013 A 
ATOM     17  C   UNL     1      12.711  25.350  -3.102  0.00  0.00    +0.005 A 
ATOM     18  C   UNL     1      12.324  24.040  -3.622  0.00  0.00    -0.033 A 
ATOM     28  C   UNL     1      11.176  23.357  -3.050  0.00  0.00    +0.005 A 
ATOM     29  C   UNL     1      10.421  23.933  -2.004  0.00  0.00    +0.013 A 
BRANCH  18  19
ATOM     19  C   UNL     1      13.072  23.344  -4.774  0.00  0.00    +0.119 C 
BRANCH  19  20
ATOM     20  N   UNL     1      12.262  22.908  -5.951  0.00  0.00    -0.302 NA
ATOM     21  C   UNL     1      13.060  22.005  -6.895  0.00  0.00    +0.066 C 
ATOM     22  C   UNL     1      12.190  21.541  -8.109  0.00  0.00    -0.064 C 
ATOM     23  N   UNL     1      11.660  22.768  -8.852  0.00  0.00    +0.379 N 
ATOM     24  C   UNL     1      10.890  22.336 -10.027  0.00  0.00    -0.096 C 
ATOM     25  H   UNL     1      12.539  23.347  -9.218  0.00  0.00    -0.082 HD
ATOM     26  C   UNL     1      10.868  23.673  -7.919  0.00  0.00    -0.064 C 
ATOM     27  C   UNL     1      11.732  24.105  -6.702  0.00  0.00    +0.066 C 
ENDBRANCH  19  20
ENDBRANCH  18  19
ENDBRANCH  14  15
ENDBRANCH  12  13
TORSDOF 6
ENDMDL
MODEL 2
REMARK VINA RESULT:     -11.5      6.095     10.741
REMARK  Name = C:\Users\Docking\Desktop\test protocol\1iep_ligandH.pdb
REMARK  8 active torsions:
REMARK  status: ('A' for Active; 'I' for Inactive)
REMARK    1  A    between atoms: _5  and  _11
REMARK    2  A    between atoms: _19  and  _21
REMARK    3  A    between atoms: _22  and  _66
REMARK    4  A    between atoms: _27  and  _30
REMARK    5  A    between atoms: _32  and  _33
REMARK    6  A    between atoms: _38  and  _43
REMARK    7  A    between atoms: _43  and  _46
REMARK    8  A    between atoms: _53  and  _55
REMARK                            x       y       z     vdW  Elec       q    Type
REMARK                         _______ _______ _______ _____ _____    ______ ____
ROOT
ATOM     10  C   UNL     1      -1.119  23.891   8.278  0.00  0.00    +0.038 A 
ATOM     11  C   UNL     1       0.215  24.206   7.912  0.00  0.00    +0.047 A 
ATOM     12  C   UNL     1       1.001  23.305   7.083  0.00  0.00    +0.035 A 
ATOM     32  C   UNL     1       0.395  22.093   6.641  0.00  0.00    +0.024 A 
ATOM     33  C   UNL     1      -0.959  21.757   7.003  0.00  0.00    +0.007 A 
ATOM     34  C   UNL     1      -1.738  22.640   7.823  0.00  0.00    -0.029 A 
ATOM     35  C   UNL     1      -3.183  22.225   8.186  0.00  0.00    +0.045 C 
ENDROOT
BRANCH  10   9
ATOM      4  C   UNL     1      -2.988  28.229   9.127  0.00  0.00    +0.077 A 
ATOM      5  C   UNL     1      -2.488  28.753   7.889  0.00  0.00    +0.048 A 
ATOM      6  C   UNL     1      -1.748  27.875   7.065  0.00  0.00    +0.116 A 
ATOM      7  N   UNL     1      -1.531  26.572   7.460  0.00  0.00    -0.223 NA
ATOM      8  C   UNL     1      -2.026  26.100   8.662  0.00  0.00    +0.220 A 
ATOM      9  N   UNL     1      -1.827  24.792   9.076  0.00  0.00    -0.283 N 
ATOM     36  H   UNL     1      -2.202  24.484   9.972  0.00  0.00    +0.155 HD
ATOM     37  N   UNL     1      -2.734  26.919   9.467  0.00  0.00    -0.214 NA
BRANCH   4   3
ATOM      1  C   UNL     1      -4.374  31.186  11.281  0.00  0.00    +0.020 A 
ATOM      2  C   UNL     1      -3.572  30.456  10.327  0.00  0.00    +0.013 A 
ATOM      3  C   UNL     1      -3.790  29.032  10.104  0.00  0.00    +0.019 A 
ATOM     38  C   UNL     1      -4.836  28.372  10.869  0.00  0.00    +0.120 A 
ATOM     39  N   UNL     1      -5.592  29.099  11.782  0.00  0.00    -0.263 NA
ATOM     40  C   UNL     1      -5.390  30.470  12.006  0.00  0.00    +0.111 A 
ENDBRANCH   4   3
ENDBRANCH  10   9
BRANCH  12  13
ATOM     13  N   UNL     1       2.362  23.568   6.687  0.00  0.00    -0.281 N 
ATOM     14  C   UNL     1       3.464  22.740   6.824  0.00  0.00    +0.248 C 
ATOM     30  O   UNL     1       3.486  21.726   7.507  0.00  0.00    -0.270 OA
ATOM     31  H   UNL     1       2.535  24.475   6.253  0.00  0.00    +0.155 HD
BRANCH  14  15
ATOM     15  C   UNL     1       4.729  23.097   6.113  0.00  0.00    +0.037 A 
ATOM     16  C   UNL     1       5.981  22.385   6.384  0.00  0.00    +0.013 A 
ATOM     17  C   UNL     1       7.190  22.761   5.696  0.00  0.00    +0.005 A 
ATOM     18  C   UNL     1       7.153  23.854   4.727  0.00  0.00    -0.033 A 
ATOM     28  C   UNL     1       5.896  24.539   4.473  0.00  0.00    +0.005 A 
ATOM     29  C   UNL     1       4.709  24.174   5.146  0.00  0.00    +0.013 A 
BRANCH  18  19
ATOM     19  C   UNL     1       8.399  24.336   3.962  0.00  0.00    +0.119 C 
BRANCH  19  20
ATOM     20  N   UNL     1       8.455  25.780   3.586  0.00  0.00    -0.302 NA
ATOM     21  C   UNL     1       9.253  26.008   2.299  0.00  0.00    +0.066 C 
ATOM     22  C   UNL     1       9.282  27.522   1.908  0.00  0.00    -0.064 C 
ATOM     23  N   UNL     1       9.873  28.333   3.063  0.00  0.00    +0.379 N 
ATOM     24  C   UNL     1       9.955  29.749   2.677  0.00  0.00    -0.096 C 
ATOM     25  H   UNL     1      10.912  27.968   3.235  0.00  0.00    -0.082 HD
ATOM     26  C   UNL     1       9.087  28.109   4.348  0.00  0.00    -0.064 C 
ATOM     27  C   UNL     1       9.040  26.599   4.711  0.00  0.00    +0.066 C 
ENDBRANCH  19  20
ENDBRANCH  18  19
ENDBRANCH  14  15
ENDBRANCH  12  13
TORSDOF 6
ENDMDL
MODEL 3
REMARK VINA RESULT:     -11.4      1.862      2.152
REMARK  Name = C:\Users\Docking\Desktop\test protocol\1iep_ligandH.pdb
REMARK  8 active torsions:
REMARK  status: ('A' for Active; 'I' for Inactive)
REMARK    1  A    between atoms: _5  and  _11
REMARK    2  A    between atoms: _19  and  _21
REMARK    3  A    between atoms: _22  and  _66
REMARK    4  A    between atoms: _27  and  _30
REMARK    5  A    between atoms: _32  and  _33
REMARK    6  A    between atoms: _38  and  _43
REMARK    7  A    between atoms: _43  and  _46
REMARK    8  A    between atoms: _53  and  _55
REMARK                            x       y       z     vdW  Elec       q    Type
REMARK                         _______ _______ _______ _____ _____    ______ ____
ROOT
ATOM     10  C   UNL     1       7.597  25.937   3.323  0.00  0.00    +0.038 A 
ATOM     11  C   UNL     1       7.973  25.615   1.994  0.00  0.00    +0.047 A 
ATOM     12  C   UNL     1       9.232  26.082   1.434  0.00  0.00    +0.035 A 
ATOM     32  C   UNL     1      10.085  26.873   2.257  0.00  0.00    +0.024 A 
ATOM     33  C   UNL     1       9.718  27.211   3.610  0.00  0.00    +0.007 A 
ATOM     34  C   UNL     1       8.476  26.755   4.167  0.00  0.00    -0.029 A 
ATOM     35  C   UNL     1       8.131  27.153   5.621  0.00  0.00    +0.045 C 
ENDROOT
BRANCH  10   9
ATOM      4  C   UNL     1       4.993  22.914   5.992  0.00  0.00    +0.077 A 
ATOM      5  C   UNL     1       6.160  22.205   6.433  0.00  0.00    +0.048 A 
ATOM      6  C   UNL     1       7.410  22.646   5.944  0.00  0.00    +0.116 A 
ATOM      7  N   UNL     1       7.477  23.716   5.080  0.00  0.00    -0.223 NA
ATOM      8  C   UNL     1       6.333  24.377   4.672  0.00  0.00    +0.220 A 
ATOM      9  N   UNL     1       6.377  25.461   3.810  0.00  0.00    -0.283 N 
ATOM     36  H   UNL     1       5.510  25.917   3.527  0.00  0.00    +0.155 HD
ATOM     37  N   UNL     1       5.126  23.975   5.124  0.00  0.00    -0.214 NA
BRANCH   4   3
ATOM      1  C   UNL     1       1.942  21.203   7.743  0.00  0.00    +0.020 A 
ATOM      2  C   UNL     1       3.305  21.494   7.359  0.00  0.00    +0.013 A 
ATOM      3  C   UNL     1       3.601  22.571   6.423  0.00  0.00    +0.019 A 
ATOM     38  C   UNL     1       2.488  23.341   5.889  0.00  0.00    +0.120 A 
ATOM     39  N   UNL     1       1.186  23.037   6.276  0.00  0.00    -0.263 NA
ATOM     40  C   UNL     1       0.889  22.003   7.175  0.00  0.00    +0.111 A 
ENDBRANCH   4   3
ENDBRANCH  10   9
BRANCH  12  13
ATOM     13  N   UNL     1       9.663  25.794   0.089  0.00  0.00    -0.281 N 
ATOM     14  C   UNL     1       9.791  24.555  -0.518  0.00  0.00    +0.248 C 
ATOM     30  O   UNL     1       9.757  23.487   0.077  0.00  0.00    -0.270 OA
ATOM     31  H   UNL     1       9.904  26.601  -0.487  0.00  0.00    +0.155 HD
BRANCH  14  15
ATOM     15  C   UNL     1      10.001  24.492  -1.996  0.00  0.00    +0.037 A 
ATOM     16  C   UNL     1       9.565  25.583  -2.872  0.00  0.00    +0.013 A 
ATOM     17  C   UNL     1       9.764  25.490  -4.297  0.00  0.00    +0.005 A 
ATOM     18  C   UNL     1      10.405  24.301  -4.854  0.00  0.00    -0.033 A 
ATOM     28  C   UNL     1      10.832  23.236  -3.962  0.00  0.00    +0.005 A 
ATOM     29  C   UNL     1      10.638  23.323  -2.565  0.00  0.00    +0.013 A 
BRANCH  18  19
ATOM     19  C   UNL     1      10.639  24.107  -6.364  0.00  0.00    +0.119 C 
BRANCH  19  20
ATOM     20  N   UNL     1       9.758  23.131  -7.073  0.00  0.00    -0.302 NA
ATOM     21  C   UNL     1       8.422  22.933  -6.351  0.00  0.00    +0.066 C 
ATOM     22  C   UNL     1       7.504  21.927  -7.118  0.00  0.00    -0.064 C 
ATOM     23  N   UNL     1       8.236  20.593  -7.277  0.00  0.00    +0.379 N 
ATOM     24  C   UNL     1       7.354  19.626  -7.947  0.00  0.00    -0.096 C 
ATOM     25  H   UNL     1       8.453  20.202  -6.256  0.00  0.00    -0.082 HD
ATOM     26  C   UNL     1       9.567  20.781  -7.992  0.00  0.00    -0.064 C 
ATOM     27  C   UNL     1      10.460  21.806  -7.237  0.00  0.00    +0.066 C 
ENDBRANCH  19  20
ENDBRANCH  18  19
ENDBRANCH  14  15
ENDBRANCH  12  13
TORSDOF 6
ENDMDL
MODEL 4
REMARK VINA RESULT:     -10.3      7.961     15.205
REMARK  Name = C:\Users\Docking\Desktop\test protocol\1iep_ligandH.pdb
REMARK  8 active torsions:
REMARK  status: ('A' for Active; 'I' for Inactive)
REMARK    1  A    between atoms: _5  and  _11
REMARK    2  A    between atoms: _19  and  _21
REMARK    3  A    between atoms: _22  and  _66
REMARK    4  A    between atoms: _27  and  _30
REMARK    5  A    between atoms: _32  and  _33
REMARK    6  A    between atoms: _38  and  _43
REMARK    7  A    between atoms: _43  and  _46
REMARK    8  A    between atoms: _53  and  _55
REMARK                            x       y       z     vdW  Elec       q    Type
REMARK                         _______ _______ _______ _____ _____    ______ ____
ROOT
ATOM     10  C   UNL     1      -6.153  20.495  10.227  0.00  0.00    +0.038 A 
ATOM     11  C   UNL     1      -4.795  20.570   9.825  0.00  0.00    +0.047 A 
ATOM     12  C   UNL     1      -4.426  21.068   8.510  0.00  0.00    +0.035 A 
ATOM     32  C   UNL     1      -5.466  21.484   7.628  0.00  0.00    +0.024 A 
ATOM     33  C   UNL     1      -6.852  21.413   8.019  0.00  0.00    +0.007 A 
ATOM     34  C   UNL     1      -7.222  20.920   9.315  0.00  0.00    -0.029 A 
ATOM     35  C   UNL     1      -8.724  20.861   9.678  0.00  0.00    +0.045 C 
ENDROOT
BRANCH  10   9
ATOM      4  C   UNL     1      -6.590  21.053  14.974  0.00  0.00    +0.077 A 
ATOM      5  C   UNL     1      -6.163  22.421  14.912  0.00  0.00    +0.048 A 
ATOM      6  C   UNL     1      -5.833  22.941  13.640  0.00  0.00    +0.116 A 
ATOM      7  N   UNL     1      -5.928  22.143  12.520  0.00  0.00    -0.223 NA
ATOM      8  C   UNL     1      -6.341  20.827  12.615  0.00  0.00    +0.220 A 
ATOM      9  N   UNL     1      -6.451  20.009  11.502  0.00  0.00    -0.283 N 
ATOM     36  H   UNL     1      -6.753  19.041  11.614  0.00  0.00    +0.155 HD
ATOM     37  N   UNL     1      -6.660  20.306  13.819  0.00  0.00    -0.214 NA
BRANCH   4   3
ATOM      1  C   UNL     1      -6.783  19.980  18.730  0.00  0.00    +0.020 A 
ATOM      2  C   UNL     1      -6.374  20.677  17.533  0.00  0.00    +0.013 A 
ATOM      3  C   UNL     1      -6.976  20.361  16.244  0.00  0.00    +0.019 A 
ATOM     38  C   UNL     1      -7.997  19.325  16.201  0.00  0.00    +0.120 A 
ATOM     39  N   UNL     1      -8.369  18.669  17.370  0.00  0.00    -0.263 NA
ATOM     40  C   UNL     1      -7.796  18.964  18.616  0.00  0.00    +0.111 A 
ENDBRANCH   4   3
ENDBRANCH  10   9
BRANCH  12  13
ATOM     13  N   UNL     1      -3.064  21.160   8.044  0.00  0.00    -0.281 N 
ATOM     14  C   UNL     1      -2.244  22.277   8.024  0.00  0.00    +0.248 C 
ATOM     30  O   UNL     1      -2.631  23.421   8.207  0.00  0.00    -0.270 OA
ATOM     31  H   UNL     1      -2.655  20.297   7.686  0.00  0.00    +0.155 HD
BRANCH  14  15
ATOM     15  C   UNL     1      -0.787  22.097   7.746  0.00  0.00    +0.037 A 
ATOM     16  C   UNL     1      -0.064  23.013   6.860  0.00  0.00    +0.013 A 
ATOM     17  C   UNL     1       1.338  22.808   6.595  0.00  0.00    +0.005 A 
ATOM     18  C   UNL     1       2.027  21.681   7.220  0.00  0.00    -0.033 A 
ATOM     28  C   UNL     1       1.287  20.791   8.099  0.00  0.00    +0.005 A 
ATOM     29  C   UNL     1      -0.088  20.988   8.359  0.00  0.00    +0.013 A 
BRANCH  18  19
ATOM     19  C   UNL     1       3.517  21.373   6.977  0.00  0.00    +0.119 C 
BRANCH  19  20
ATOM     20  N   UNL     1       4.399  22.517   6.599  0.00  0.00    -0.302 NA
ATOM     21  C   UNL     1       3.951  23.180   5.293  0.00  0.00    +0.066 C 
ATOM     22  C   UNL     1       4.871  24.389   4.924  0.00  0.00    -0.064 C 
ATOM     23  N   UNL     1       6.320  23.910   4.820  0.00  0.00    +0.379 N 
ATOM     24  C   UNL     1       7.180  25.032   4.416  0.00  0.00    -0.096 C 
ATOM     25  H   UNL     1       6.365  23.142   4.013  0.00  0.00    -0.082 HD
ATOM     26  C   UNL     1       6.773  23.247   6.113  0.00  0.00    -0.064 C 
ATOM     27  C   UNL     1       5.834  22.066   6.486  0.00  0.00    +0.066 C 
ENDBRANCH  19  20
ENDBRANCH  18  19
ENDBRANCH  14  15
ENDBRANCH  12  13
TORSDOF 6
ENDMDL
MODEL 5
REMARK VINA RESULT:     -10.1      1.613      2.527
REMARK  Name = C:\Users\Docking\Desktop\test protocol\1iep_ligandH.pdb
REMARK  8 active torsions:
REMARK  status: ('A' for Active; 'I' for Inactive)
REMARK    1  A    between atoms: _5  and  _11
REMARK    2  A    between atoms: _19  and  _21
REMARK    3  A    between atoms: _22  and  _66
REMARK    4  A    between atoms: _27  and  _30
REMARK    5  A    between atoms: _32  and  _33
REMARK    6  A    between atoms: _38  and  _43
REMARK    7  A    between atoms: _43  and  _46
REMARK    8  A    between atoms: _53  and  _55
REMARK                            x       y       z     vdW  Elec       q    Type
REMARK                         _______ _______ _______ _____ _____    ______ ____
ROOT
ATOM     10  C   UNL     1       8.300  26.098   1.788  0.00  0.00    +0.038 A 
ATOM     11  C   UNL     1       8.725  25.424   0.614  0.00  0.00    +0.047 A 
ATOM     12  C   UNL     1       9.868  25.896  -0.153  0.00  0.00    +0.035 A 
ATOM     32  C   UNL     1      10.557  27.056   0.307  0.00  0.00    +0.024 A 
ATOM     33  C   UNL     1      10.138  27.753   1.497  0.00  0.00    +0.007 A 
ATOM     34  C   UNL     1       9.010  27.294   2.256  0.00  0.00    -0.029 A 
ATOM     35  C   UNL     1       8.602  28.085   3.521  0.00  0.00    +0.045 C 
ENDROOT
BRANCH  10   9
ATOM      4  C   UNL     1       6.341  23.449   5.278  0.00  0.00    +0.077 A 
ATOM      5  C   UNL     1       7.623  22.995   5.734  0.00  0.00    +0.048 A 
ATOM      6  C   UNL     1       8.762  23.460   5.039  0.00  0.00    +0.116 A 
ATOM      7  N   UNL     1       8.617  24.317   3.969  0.00  0.00    -0.223 NA
ATOM      8  C   UNL     1       7.366  24.734   3.554  0.00  0.00    +0.220 A 
ATOM      9  N   UNL     1       7.197  25.601   2.485  0.00  0.00    -0.283 N 
ATOM     36  H   UNL     1       6.257  25.880   2.206  0.00  0.00    +0.155 HD
ATOM     37  N   UNL     1       6.263  24.302   4.200  0.00  0.00    -0.214 NA
BRANCH   4   3
ATOM      1  C   UNL     1       3.661  21.605   7.450  0.00  0.00    +0.020 A 
ATOM      2  C   UNL     1       4.936  21.952   6.866  0.00  0.00    +0.013 A 
ATOM      3  C   UNL     1       5.045  23.048   5.912  0.00  0.00    +0.019 A 
ATOM     38  C   UNL     1       3.836  23.779   5.567  0.00  0.00    +0.120 A 
ATOM     39  N   UNL     1       2.621  23.422   6.144  0.00  0.00    -0.263 NA
ATOM     40  C   UNL     1       2.503  22.368   7.062  0.00  0.00    +0.111 A 
ENDBRANCH   4   3
ENDBRANCH  10   9
BRANCH  12  13
ATOM     13  N   UNL     1      10.340  25.258  -1.356  0.00  0.00    -0.281 N 
ATOM     14  C   UNL     1      10.060  25.602  -2.669  0.00  0.00    +0.248 C 
ATOM     30  O   UNL     1       9.185  26.386  -3.006  0.00  0.00    -0.270 OA
ATOM     31  H   UNL     1      10.955  24.455  -1.225  0.00  0.00    +0.155 HD
BRANCH  14  15
ATOM     15  C   UNL     1      10.858  24.975  -3.766  0.00  0.00    +0.037 A 
ATOM     16  C   UNL     1      11.808  23.893  -3.492  0.00  0.00    +0.013 A 
ATOM     17  C   UNL     1      12.578  23.318  -4.566  0.00  0.00    +0.005 A 
ATOM     18  C   UNL     1      12.400  23.822  -5.925  0.00  0.00    -0.033 A 
ATOM     28  C   UNL     1      11.447  24.893  -6.169  0.00  0.00    +0.005 A 
ATOM     29  C   UNL     1      10.692  25.460  -5.119  0.00  0.00    +0.013 A 
BRANCH  18  19
ATOM     19  C   UNL     1      13.194  23.282  -7.129  0.00  0.00    +0.119 C 
BRANCH  19  20
ATOM     20  N   UNL     1      12.418  22.617  -8.217  0.00  0.00    -0.302 NA
ATOM     21  C   UNL     1      11.334  21.687  -7.665  0.00  0.00    +0.066 C 
ATOM     22  C   UNL     1      10.517  21.017  -8.817  0.00  0.00    -0.064 C 
ATOM     23  N   UNL     1      11.471  20.252  -9.736  0.00  0.00    +0.379 N 
ATOM     24  C   UNL     1      10.699  19.573 -10.788  0.00  0.00    -0.096 C 
ATOM     25  H   UNL     1      11.972  19.466  -9.124  0.00  0.00    -0.082 HD
ATOM     26  C   UNL     1      12.553  21.168 -10.288  0.00  0.00    -0.064 C 
ATOM     27  C   UNL     1      13.340  21.851  -9.135  0.00  0.00    +0.066 C 
ENDBRANCH  19  20
ENDBRANCH  18  19
ENDBRANCH  14  15
ENDBRANCH  12  13
TORSDOF 6
ENDMDL
