MODEL 1
REMARK VINA RESULT:     -11.3      0.000      0.000
REMARK  Name = C:\Users\Docking\Desktop\test protocol\1iep_ligandH.pdb
REMARK  8 active torsions:
REMARK  status: ('A' for Active; 'I' for Inactive)
REMARK    1  A    between atoms: _5  and  _11
REMARK    2  A    between atoms: _19  and  _21
REMARK    3  A    between atoms: _22  and  _66
REMARK    4  A    between atoms: _27  and  _30
REMARK    5  A    between atoms: _32  and  _33
REMARK    6  A    between atoms: _38  and  _43
REMARK    7  A    between atoms: _43  and  _46
REMARK    8  A    between atoms: _53  and  _55
REMARK                            x       y       z     vdW  Elec       q    Type
REMARK                         _______ _______ _______ _____ _____    ______ ____
ROOT
ATOM     10  C   UNL     1       2.724  -5.228   4.802  0.00  0.00    +0.038 A 
ATOM     11  C   UNL     1       2.817  -3.870   4.405  0.00  0.00    +0.047 A 
ATOM     12  C   UNL     1       1.680  -3.179   3.814  0.00  0.00    +0.035 A 
ATOM     32  C   UNL     1       0.464  -3.903   3.646  0.00  0.00    +0.024 A 
ATOM     33  C   UNL     1       0.353  -5.284   4.043  0.00  0.00    +0.007 A 
ATOM     34  C   UNL     1       1.471  -5.971   4.624  0.00  0.00    -0.029 A 
ATOM     35  C   UNL     1       1.297  -7.454   5.025  0.00  0.00    +0.045 C 
ENDROOT
BRANCH  10   9
ATOM      4  C   UNL     1       5.327  -6.648   8.576  0.00  0.00    +0.077 A 
ATOM      5  C   UNL     1       4.385  -6.098   9.508  0.00  0.00    +0.048 A 
ATOM      6  C   UNL     1       3.247  -5.452   8.975  0.00  0.00    +0.116 A 
ATOM      7  N   UNL     1       3.075  -5.368   7.610  0.00  0.00    -0.223 NA
ATOM      8  C   UNL     1       4.004  -5.907   6.740  0.00  0.00    +0.220 A 
ATOM      9  N   UNL     1       3.846  -5.841   5.364  0.00  0.00    -0.283 N 
ATOM     36  H   UNL     1       4.558  -6.245   4.755  0.00  0.00    +0.155 HD
ATOM     37  N   UNL     1       5.099  -6.528   7.224  0.00  0.00    -0.214 NA
BRANCH   4   3
ATOM      1  C   UNL     1       7.999  -8.599  10.663  0.00  0.00    +0.020 A 
ATOM      2  C   UNL     1       6.773  -7.916  10.320  0.00  0.00    +0.013 A 
ATOM      3  C   UNL     1       6.577  -7.364   8.985  0.00  0.00    +0.019 A 
ATOM     38  C   UNL     1       7.649  -7.522   8.014  0.00  0.00    +0.120 A 
ATOM     39  N   UNL     1       8.819  -8.183   8.374  0.00  0.00    -0.263 NA
ATOM     40  C   UNL     1       9.020  -8.717   9.655  0.00  0.00    +0.111 A 
ENDBRANCH   4   3
ENDBRANCH  10   9
BRANCH  12  13
ATOM     13  N   UNL     1       1.717  -1.804   3.384  0.00  0.00    -0.281 N 
ATOM     14  C   UNL     1       1.750  -0.665   4.173  0.00  0.00    +0.248 C 
ATOM     30  O   UNL     1       1.535  -0.652   5.376  0.00  0.00    -0.270 OA
ATOM     31  H   UNL     1       1.720  -1.650   2.376  0.00  0.00    +0.155 HD
BRANCH  14  15
ATOM     15  C   UNL     1       2.049   0.650   3.531  0.00  0.00    +0.037 A 
ATOM     16  C   UNL     1       2.515   0.730   2.144  0.00  0.00    +0.013 A 
ATOM     17  C   UNL     1       2.813   2.011   1.553  0.00  0.00    +0.005 A 
ATOM     18  C   UNL     1       2.645   3.223   2.351  0.00  0.00    -0.033 A 
ATOM     28  C   UNL     1       2.177   3.116   3.722  0.00  0.00    +0.005 A 
ATOM     29  C   UNL     1       1.884   1.862   4.305  0.00  0.00    +0.013 A 
BRANCH  18  19
ATOM     19  C   UNL     1       2.959   4.631   1.809  0.00  0.00    +0.119 C 
BRANCH  19  20
ATOM     20  N   UNL     1       3.562   5.610   2.761  0.00  0.00    -0.302 NA
ATOM     21  C   UNL     1       3.285   7.058   2.348  0.00  0.00    +0.066 C 
ATOM     22  C   UNL     1       3.904   8.070   3.367  0.00  0.00    -0.064 C 
ATOM     23  N   UNL     1       5.408   7.818   3.481  0.00  0.00    +0.379 N 
ATOM     24  C   UNL     1       6.003   8.805   4.395  0.00  0.00    -0.096 C 
ATOM     25  H   UNL     1       5.855   7.978   2.473  0.00  0.00    -0.082 HD
ATOM     26  C   UNL     1       5.693   6.380   3.889  0.00  0.00    -0.064 C 
ATOM     27  C   UNL     1       5.049   5.383   2.886  0.00  0.00    +0.066 C 
ENDBRANCH  19  20
ENDBRANCH  18  19
ENDBRANCH  14  15
ENDBRANCH  12  13
TORSDOF 6
ENDMDL
MODEL 2
REMARK VINA RESULT:     -10.9      7.220     13.603
REMARK  Name = C:\Users\Docking\Desktop\test protocol\1iep_ligandH.pdb
REMARK  8 active torsions:
REMARK  status: ('A' for Active; 'I' for Inactive)
REMARK    1  A    between atoms: _5  and  _11
REMARK    2  A    between atoms: _19  and  _21
REMARK    3  A    between atoms: _22  and  _66
REMARK    4  A    between atoms: _27  and  _30
REMARK    5  A    between atoms: _32  and  _33
REMARK    6  A    between atoms: _38  and  _43
REMARK    7  A    between atoms: _43  and  _46
REMARK    8  A    between atoms: _53  and  _55
REMARK                            x       y       z     vdW  Elec       q    Type
REMARK                         _______ _______ _______ _____ _____    ______ ____
ROOT
ATOM     10  C   UNL     1      14.325 -10.706   9.218  0.00  0.00    +0.038 A 
ATOM     11  C   UNL     1      13.060 -10.091   9.400  0.00  0.00    +0.047 A 
ATOM     12  C   UNL     1      11.850 -10.682   8.849  0.00  0.00    +0.035 A 
ATOM     32  C   UNL     1      11.965 -11.901   8.120  0.00  0.00    +0.024 A 
ATOM     33  C   UNL     1      13.243 -12.540   7.925  0.00  0.00    +0.007 A 
ATOM     34  C   UNL     1      14.440 -11.961   8.465  0.00  0.00    -0.029 A 
ATOM     35  C   UNL     1      15.784 -12.685   8.219  0.00  0.00    +0.045 C 
ENDROOT
BRANCH  10   9
ATOM      4  C   UNL     1      17.499 -10.095  12.766  0.00  0.00    +0.077 A 
ATOM      5  C   UNL     1      16.837 -11.053  13.604  0.00  0.00    +0.048 A 
ATOM      6  C   UNL     1      15.678 -11.675  13.087  0.00  0.00    +0.116 A 
ATOM      7  N   UNL     1      15.226 -11.356  11.825  0.00  0.00    -0.223 NA
ATOM      8  C   UNL     1      15.887 -10.426  11.044  0.00  0.00    +0.220 A 
ATOM      9  N   UNL     1      15.454 -10.096   9.769  0.00  0.00    -0.283 N 
ATOM     36  H   UNL     1      15.965  -9.400   9.228  0.00  0.00    +0.155 HD
ATOM     37  N   UNL     1      16.994  -9.817  11.516  0.00  0.00    -0.214 NA
BRANCH   4   3
ATOM      1  C   UNL     1      20.736  -8.990  14.665  0.00  0.00    +0.020 A 
ATOM      2  C   UNL     1      19.549  -9.737  14.318  0.00  0.00    +0.013 A 
ATOM      3  C   UNL     1      18.736  -9.355  13.170  0.00  0.00    +0.019 A 
ATOM     38  C   UNL     1      19.156  -8.202  12.387  0.00  0.00    +0.120 A 
ATOM     39  N   UNL     1      20.302  -7.500  12.746  0.00  0.00    -0.263 NA
ATOM     40  C   UNL     1      21.091  -7.858  13.849  0.00  0.00    +0.111 A 
ENDBRANCH   4   3
ENDBRANCH  10   9
BRANCH  12  13
ATOM     13  N   UNL     1      10.539 -10.098   8.993  0.00  0.00    -0.281 N 
ATOM     14  C   UNL     1      10.150  -9.080   9.848  0.00  0.00    +0.248 C 
ATOM     30  O   UNL     1      10.826  -8.659  10.775  0.00  0.00    -0.270 OA
ATOM     31  H   UNL     1       9.810 -10.483   8.393  0.00  0.00    +0.155 HD
BRANCH  14  15
ATOM     15  C   UNL     1       8.810  -8.448   9.654  0.00  0.00    +0.037 A 
ATOM     16  C   UNL     1       8.420  -7.872   8.365  0.00  0.00    +0.013 A 
ATOM     17  C   UNL     1       7.128  -7.252   8.210  0.00  0.00    +0.005 A 
ATOM     18  C   UNL     1       6.214  -7.207   9.349  0.00  0.00    -0.033 A 
ATOM     28  C   UNL     1       6.624  -7.791  10.615  0.00  0.00    +0.005 A 
ATOM     29  C   UNL     1       7.890  -8.398  10.771  0.00  0.00    +0.013 A 
BRANCH  18  19
ATOM     19  C   UNL     1       4.824  -6.548   9.280  0.00  0.00    +0.119 C 
BRANCH  19  20
ATOM     20  N   UNL     1       4.247  -6.309   7.924  0.00  0.00    -0.302 NA
ATOM     21  C   UNL     1       3.267  -5.133   7.915  0.00  0.00    +0.066 C 
ATOM     22  C   UNL     1       2.689  -4.883   6.484  0.00  0.00    -0.064 C 
ATOM     23  N   UNL     1       2.010  -6.158   5.981  0.00  0.00    +0.379 N 
ATOM     24  C   UNL     1       1.415  -5.909   4.660  0.00  0.00    -0.096 C 
ATOM     25  H   UNL     1       1.180  -6.398   6.686  0.00  0.00    -0.082 HD
ATOM     26  C   UNL     1       2.977  -7.333   5.989  0.00  0.00    -0.064 C 
ATOM     27  C   UNL     1       3.567  -7.554   7.410  0.00  0.00    +0.066 C 
ENDBRANCH  19  20
ENDBRANCH  18  19
ENDBRANCH  14  15
ENDBRANCH  12  13
TORSDOF 6
ENDMDL
MODEL 3
REMARK VINA RESULT:     -10.5      1.633      2.234
REMARK  Name = C:\Users\Docking\Desktop\test protocol\1iep_ligandH.pdb
REMARK  8 active torsions:
REMARK  status: ('A' for Active; 'I' for Inactive)
REMARK    1  A    between atoms: _5  and  _11
REMARK    2  A    between atoms: _19  and  _21
REMARK    3  A    between atoms: _22  and  _66
REMARK    4  A    between atoms: _27  and  _30
REMARK    5  A    between atoms: _32  and  _33
REMARK    6  A    between atoms: _38  and  _43
REMARK    7  A    between atoms: _43  and  _46
REMARK    8  A    between atoms: _53  and  _55
REMARK                            x       y       z     vdW  Elec       q    Type
REMARK                         _______ _______ _______ _____ _____    ______ ____
ROOT
ATOM     10  C   UNL     1       2.779  -5.331   4.820  0.00  0.00    +0.038 A 
ATOM     11  C   UNL     1       2.732  -3.956   4.476  0.00  0.00    +0.047 A 
ATOM     12  C   UNL     1       1.537  -3.366   3.893  0.00  0.00    +0.035 A 
ATOM     32  C   UNL     1       0.406  -4.206   3.676  0.00  0.00    +0.024 A 
ATOM     33  C   UNL     1       0.437  -5.606   4.019  0.00  0.00    +0.007 A 
ATOM     34  C   UNL     1       1.614  -6.194   4.592  0.00  0.00    -0.029 A 
ATOM     35  C   UNL     1       1.592  -7.702   4.933  0.00  0.00    +0.045 C 
ENDROOT
BRANCH  10   9
ATOM      4  C   UNL     1       5.416  -6.748   8.572  0.00  0.00    +0.077 A 
ATOM      5  C   UNL     1       4.378  -6.412   9.503  0.00  0.00    +0.048 A 
ATOM      6  C   UNL     1       3.184  -5.871   8.977  0.00  0.00    +0.116 A 
ATOM      7  N   UNL     1       3.049  -5.684   7.619  0.00  0.00    -0.223 NA
ATOM      8  C   UNL     1       4.070  -6.017   6.748  0.00  0.00    +0.220 A 
ATOM      9  N   UNL     1       3.952  -5.844   5.377  0.00  0.00    -0.283 N 
ATOM     36  H   UNL     1       4.731  -6.096   4.769  0.00  0.00    +0.155 HD
ATOM     37  N   UNL     1       5.220  -6.534   7.226  0.00  0.00    -0.214 NA
BRANCH   4   3
ATOM      1  C   UNL     1       8.323  -8.307  10.674  0.00  0.00    +0.020 A 
ATOM      2  C   UNL     1       7.034  -7.748  10.338  0.00  0.00    +0.013 A 
ATOM      3  C   UNL     1       6.734  -7.333   8.974  0.00  0.00    +0.019 A 
ATOM     38  C   UNL     1       7.769  -7.499   7.964  0.00  0.00    +0.120 A 
ATOM     39  N   UNL     1       9.002  -8.039   8.317  0.00  0.00    -0.263 NA
ATOM     40  C   UNL     1       9.302  -8.441   9.627  0.00  0.00    +0.111 A 
ENDBRANCH   4   3
ENDBRANCH  10   9
BRANCH  12  13
ATOM     13  N   UNL     1       1.434  -1.978   3.517  0.00  0.00    -0.281 N 
ATOM     14  C   UNL     1       1.583  -0.863   4.325  0.00  0.00    +0.248 C 
ATOM     30  O   UNL     1       1.618  -0.894   5.546  0.00  0.00    -0.270 OA
ATOM     31  H   UNL     1       1.225  -1.795   2.535  0.00  0.00    +0.155 HD
BRANCH  14  15
ATOM     15  C   UNL     1       1.696   0.483   3.685  0.00  0.00    +0.037 A 
ATOM     16  C   UNL     1       1.726   0.631   2.227  0.00  0.00    +0.013 A 
ATOM     17  C   UNL     1       1.853   1.940   1.636  0.00  0.00    +0.005 A 
ATOM     18  C   UNL     1       1.948   3.111   2.503  0.00  0.00    -0.033 A 
ATOM     28  C   UNL     1       1.910   2.936   3.946  0.00  0.00    +0.005 A 
ATOM     29  C   UNL     1       1.787   1.655   4.529  0.00  0.00    +0.013 A 
BRANCH  18  19
ATOM     19  C   UNL     1       2.107   4.544   1.960  0.00  0.00    +0.119 C 
BRANCH  19  20
ATOM     20  N   UNL     1       1.069   5.543   2.353  0.00  0.00    -0.302 NA
ATOM     21  C   UNL     1       0.129   5.882   1.193  0.00  0.00    +0.066 C 
ATOM     22  C   UNL     1      -0.964   6.912   1.628  0.00  0.00    -0.064 C 
ATOM     23  N   UNL     1      -0.286   8.175   2.163  0.00  0.00    +0.379 N 
ATOM     24  C   UNL     1      -1.311   9.168   2.519  0.00  0.00    -0.096 C 
ATOM     25  H   UNL     1       0.328   8.604   1.338  0.00  0.00    -0.082 HD
ATOM     26  C   UNL     1       0.653   7.846   3.315  0.00  0.00    -0.064 C 
ATOM     27  C   UNL     1       1.716   6.800   2.880  0.00  0.00    +0.066 C 
ENDBRANCH  19  20
ENDBRANCH  18  19
ENDBRANCH  14  15
ENDBRANCH  12  13
TORSDOF 6
ENDMDL
MODEL 4
REMARK VINA RESULT:     -10.5      2.022     12.320
REMARK  Name = C:\Users\Docking\Desktop\test protocol\1iep_ligandH.pdb
REMARK  8 active torsions:
REMARK  status: ('A' for Active; 'I' for Inactive)
REMARK    1  A    between atoms: _5  and  _11
REMARK    2  A    between atoms: _19  and  _21
REMARK    3  A    between atoms: _22  and  _66
REMARK    4  A    between atoms: _27  and  _30
REMARK    5  A    between atoms: _32  and  _33
REMARK    6  A    between atoms: _38  and  _43
REMARK    7  A    between atoms: _43  and  _46
REMARK    8  A    between atoms: _53  and  _55
REMARK                            x       y       z     vdW  Elec       q    Type
REMARK                         _______ _______ _______ _____ _____    ______ ____
ROOT
ATOM     10  C   UNL     1       1.315  -0.817   3.709  0.00  0.00    +0.038 A 
ATOM     11  C   UNL     1       1.971  -1.489   4.772  0.00  0.00    +0.047 A 
ATOM     12  C   UNL     1       2.258  -2.913   4.699  0.00  0.00    +0.035 A 
ATOM     32  C   UNL     1       1.864  -3.622   3.527  0.00  0.00    +0.024 A 
ATOM     33  C   UNL     1       1.194  -2.956   2.438  0.00  0.00    +0.007 A 
ATOM     34  C   UNL     1       0.907  -1.551   2.505  0.00  0.00    -0.029 A 
ATOM     35  C   UNL     1       0.181  -0.890   1.311  0.00  0.00    +0.045 C 
ENDROOT
BRANCH  10   9
ATOM      4  C   UNL     1       2.382   3.777   2.819  0.00  0.00    +0.077 A 
ATOM      5  C   UNL     1       3.551   3.421   2.068  0.00  0.00    +0.048 A 
ATOM      6  C   UNL     1       3.847   2.046   1.940  0.00  0.00    +0.116 A 
ATOM      7  N   UNL     1       3.027   1.104   2.524  0.00  0.00    -0.223 NA
ATOM      8  C   UNL     1       1.908   1.481   3.243  0.00  0.00    +0.220 A 
ATOM      9  N   UNL     1       1.065   0.551   3.832  0.00  0.00    -0.283 N 
ATOM     36  H   UNL     1       0.253   0.870   4.361  0.00  0.00    +0.155 HD
ATOM     37  N   UNL     1       1.605   2.789   3.381  0.00  0.00    -0.214 NA
BRANCH   4   3
ATOM      1  C   UNL     1       0.153   6.955   3.308  0.00  0.00    +0.020 A 
ATOM      2  C   UNL     1       0.531   5.577   3.091  0.00  0.00    +0.013 A 
ATOM      3  C   UNL     1       1.935   5.189   3.041  0.00  0.00    +0.019 A 
ATOM     38  C   UNL     1       2.940   6.227   3.216  0.00  0.00    +0.120 A 
ATOM     39  N   UNL     1       2.546   7.545   3.421  0.00  0.00    -0.263 NA
ATOM     40  C   UNL     1       1.198   7.931   3.470  0.00  0.00    +0.111 A 
ENDBRANCH   4   3
ENDBRANCH  10   9
BRANCH  12  13
ATOM     13  N   UNL     1       2.914  -3.651   5.750  0.00  0.00    -0.281 N 
ATOM     14  C   UNL     1       2.683  -4.958   6.146  0.00  0.00    +0.248 C 
ATOM     30  O   UNL     1       1.723  -5.627   5.794  0.00  0.00    -0.270 OA
ATOM     31  H   UNL     1       3.638  -3.148   6.265  0.00  0.00    +0.155 HD
BRANCH  14  15
ATOM     15  C   UNL     1       3.651  -5.612   7.078  0.00  0.00    +0.037 A 
ATOM     16  C   UNL     1       4.825  -6.330   6.574  0.00  0.00    +0.013 A 
ATOM     17  C   UNL     1       5.734  -6.966   7.494  0.00  0.00    +0.005 A 
ATOM     18  C   UNL     1       5.472  -6.886   8.930  0.00  0.00    -0.033 A 
ATOM     28  C   UNL     1       4.303  -6.163   9.402  0.00  0.00    +0.005 A 
ATOM     29  C   UNL     1       3.410  -5.539   8.503  0.00  0.00    +0.013 A 
BRANCH  18  19
ATOM     19  C   UNL     1       6.377  -7.553   9.983  0.00  0.00    +0.119 C 
BRANCH  19  20
ATOM     20  N   UNL     1       7.837  -7.627   9.682  0.00  0.00    -0.302 NA
ATOM     21  C   UNL     1       8.115  -8.331   8.350  0.00  0.00    +0.066 C 
ATOM     22  C   UNL     1       9.646  -8.380   8.040  0.00  0.00    -0.064 C 
ATOM     23  N   UNL     1      10.374  -9.083   9.187  0.00  0.00    +0.379 N 
ATOM     24  C   UNL     1      11.807  -9.182   8.872  0.00  0.00    -0.096 C 
ATOM     25  H   UNL     1       9.971 -10.120   9.258  0.00  0.00    -0.082 HD
ATOM     26  C   UNL     1      10.102  -8.391  10.515  0.00  0.00    -0.064 C 
ATOM     27  C   UNL     1       8.575  -8.322  10.799  0.00  0.00    +0.066 C 
ENDBRANCH  19  20
ENDBRANCH  18  19
ENDBRANCH  14  15
ENDBRANCH  12  13
TORSDOF 6
ENDMDL
MODEL 5
REMARK VINA RESULT:     -10.5      6.433     12.263
REMARK  Name = C:\Users\Docking\Desktop\test protocol\1iep_ligandH.pdb
REMARK  8 active torsions:
REMARK  status: ('A' for Active; 'I' for Inactive)
REMARK    1  A    between atoms: _5  and  _11
REMARK    2  A    between atoms: _19  and  _21
REMARK    3  A    between atoms: _22  and  _66
REMARK    4  A    between atoms: _27  and  _30
REMARK    5  A    between atoms: _32  and  _33
REMARK    6  A    between atoms: _38  and  _43
REMARK    7  A    between atoms: _43  and  _46
REMARK    8  A    between atoms: _53  and  _55
REMARK                            x       y       z     vdW  Elec       q    Type
REMARK                         _______ _______ _______ _____ _____    ______ ____
ROOT
ATOM     10  C   UNL     1      12.865  -9.525   9.308  0.00  0.00    +0.038 A 
ATOM     11  C   UNL     1      11.609  -9.167   8.754  0.00  0.00    +0.047 A 
ATOM     12  C   UNL     1      10.514  -8.720   9.601  0.00  0.00    +0.035 A 
ATOM     32  C   UNL     1      10.734  -8.646  11.007  0.00  0.00    +0.024 A 
ATOM     33  C   UNL     1      12.004  -9.007  11.587  0.00  0.00    +0.007 A 
ATOM     34  C   UNL     1      13.087  -9.452  10.757  0.00  0.00    -0.029 A 
ATOM     35  C   UNL     1      14.424  -9.832  11.433  0.00  0.00    +0.045 C 
ENDROOT
BRANCH  10   9
ATOM      4  C   UNL     1      15.336 -12.959   7.041  0.00  0.00    +0.077 A 
ATOM      5  C   UNL     1      14.553 -14.001   7.640  0.00  0.00    +0.048 A 
ATOM      6  C   UNL     1      13.528 -13.611   8.531  0.00  0.00    +0.116 A 
ATOM      7  N   UNL     1      13.312 -12.276   8.796  0.00  0.00    -0.223 NA
ATOM      8  C   UNL     1      14.087 -11.296   8.203  0.00  0.00    +0.220 A 
ATOM      9  N   UNL     1      13.882  -9.948   8.448  0.00  0.00    -0.283 N 
ATOM     36  H   UNL     1      14.480  -9.256   7.997  0.00  0.00    +0.155 HD
ATOM     37  N   UNL     1      15.073 -11.643   7.349  0.00  0.00    -0.214 NA
BRANCH   4   3
ATOM      1  C   UNL     1      17.525 -13.029   3.800  0.00  0.00    +0.020 A 
ATOM      2  C   UNL     1      16.420 -12.759   4.691  0.00  0.00    +0.013 A 
ATOM      3  C   UNL     1      16.453 -13.211   6.076  0.00  0.00    +0.019 A 
ATOM     38  C   UNL     1      17.628 -13.938   6.532  0.00  0.00    +0.120 A 
ATOM     39  N   UNL     1      18.677 -14.184   5.651  0.00  0.00    -0.263 NA
ATOM     40  C   UNL     1      18.655 -13.755   4.315  0.00  0.00    +0.111 A 
ENDBRANCH   4   3
ENDBRANCH  10   9
BRANCH  12  13
ATOM     13  N   UNL     1       9.215  -8.351   9.096  0.00  0.00    -0.281 N 
ATOM     14  C   UNL     1       8.006  -8.355   9.773  0.00  0.00    +0.248 C 
ATOM     30  O   UNL     1       7.824  -8.884  10.860  0.00  0.00    -0.270 OA
ATOM     31  H   UNL     1       9.182  -8.050   8.122  0.00  0.00    +0.155 HD
BRANCH  14  15
ATOM     15  C   UNL     1       6.824  -7.689   9.145  0.00  0.00    +0.037 A 
ATOM     16  C   UNL     1       6.792  -7.394   7.711  0.00  0.00    +0.013 A 
ATOM     17  C   UNL     1       5.647  -6.735   7.134  0.00  0.00    +0.005 A 
ATOM     18  C   UNL     1       4.524  -6.367   7.993  0.00  0.00    -0.033 A 
ATOM     28  C   UNL     1       4.581  -6.676   9.412  0.00  0.00    +0.005 A 
ATOM     29  C   UNL     1       5.701  -7.321   9.981  0.00  0.00    +0.013 A 
BRANCH  18  19
ATOM     19  C   UNL     1       3.271  -5.642   7.467  0.00  0.00    +0.119 C 
BRANCH  19  20
ATOM     20  N   UNL     1       3.029  -5.675   5.994  0.00  0.00    -0.302 NA
ATOM     21  C   UNL     1       2.929  -4.269   5.395  0.00  0.00    +0.066 C 
ATOM     22  C   UNL     1       2.699  -4.323   3.850  0.00  0.00    -0.064 C 
ATOM     23  N   UNL     1       1.433  -5.129   3.554  0.00  0.00    +0.379 N 
ATOM     24  C   UNL     1       1.182  -5.133   2.105  0.00  0.00    -0.096 C 
ATOM     25  H   UNL     1       0.578  -4.608   4.044  0.00  0.00    -0.082 HD
ATOM     26  C   UNL     1       1.523  -6.528   4.147  0.00  0.00    -0.064 C 
ATOM     27  C   UNL     1       1.781  -6.463   5.679  0.00  0.00    +0.066 C 
ENDBRANCH  19  20
ENDBRANCH  18  19
ENDBRANCH  14  15
ENDBRANCH  12  13
TORSDOF 6
ENDMDL
