MODEL 1
REMARK VINA RESULT:     -11.6      0.000      0.000
REMARK  Name = C:\Users\Docking\Desktop\test protocol\1iep_ligandH.pdb
REMARK  8 active torsions:
REMARK  status: ('A' for Active; 'I' for Inactive)
REMARK    1  A    between atoms: _5  and  _11
REMARK    2  A    between atoms: _19  and  _21
REMARK    3  A    between atoms: _22  and  _66
REMARK    4  A    between atoms: _27  and  _30
REMARK    5  A    between atoms: _32  and  _33
REMARK    6  A    between atoms: _38  and  _43
REMARK    7  A    between atoms: _43  and  _46
REMARK    8  A    between atoms: _53  and  _55
REMARK                            x       y       z     vdW  Elec       q    Type
REMARK                         _______ _______ _______ _____ _____    ______ ____
ROOT
ATOM     10  C   UNL     1       1.127  -1.444   3.811  0.00  0.00    +0.038 A 
ATOM     11  C   UNL     1       1.818  -2.044   4.894  0.00  0.00    +0.047 A 
ATOM     12  C   UNL     1       2.274  -3.424   4.824  0.00  0.00    +0.035 A 
ATOM     32  C   UNL     1       2.012  -4.162   3.633  0.00  0.00    +0.024 A 
ATOM     33  C   UNL     1       1.310  -3.568   2.523  0.00  0.00    +0.007 A 
ATOM     34  C   UNL     1       0.855  -2.208   2.587  0.00  0.00    -0.029 A 
ATOM     35  C   UNL     1       0.102  -1.625   1.369  0.00  0.00    +0.045 C 
ENDROOT
BRANCH  10   9
ATOM      4  C   UNL     1       1.665   3.252   2.977  0.00  0.00    +0.077 A 
ATOM      5  C   UNL     1       2.891   3.045   2.262  0.00  0.00    +0.048 A 
ATOM      6  C   UNL     1       3.353   1.715   2.137  0.00  0.00    +0.116 A 
ATOM      7  N   UNL     1       2.633   0.678   2.690  0.00  0.00    -0.223 NA
ATOM      8  C   UNL     1       1.455   0.913   3.375  0.00  0.00    +0.220 A 
ATOM      9  N   UNL     1       0.712  -0.116   3.932  0.00  0.00    -0.283 N 
ATOM     36  H   UNL     1      -0.148   0.099   4.437  0.00  0.00    +0.155 HD
ATOM     37  N   UNL     1       0.994   2.174   3.509  0.00  0.00    -0.214 NA
BRANCH   4   3
ATOM      1  C   UNL     1      -0.937   6.151   3.332  0.00  0.00    +0.020 A 
ATOM      2  C   UNL     1      -0.391   4.831   3.117  0.00  0.00    +0.013 A 
ATOM      3  C   UNL     1       1.046   4.599   3.191  0.00  0.00    +0.019 A 
ATOM     38  C   UNL     1       1.909   5.732   3.487  0.00  0.00    +0.120 A 
ATOM     39  N   UNL     1       1.355   6.992   3.688  0.00  0.00    -0.263 NA
ATOM     40  C   UNL     1      -0.026   7.228   3.618  0.00  0.00    +0.111 A 
ENDBRANCH   4   3
ENDBRANCH  10   9
BRANCH  12  13
ATOM     13  N   UNL     1       2.974  -4.089   5.895  0.00  0.00    -0.281 N 
ATOM     14  C   UNL     1       2.907  -5.425   6.255  0.00  0.00    +0.248 C 
ATOM     30  O   UNL     1       2.067  -6.211   5.842  0.00  0.00    -0.270 OA
ATOM     31  H   UNL     1       3.593  -3.504   6.456  0.00  0.00    +0.155 HD
BRANCH  14  15
ATOM     15  C   UNL     1       3.908  -5.963   7.226  0.00  0.00    +0.037 A 
ATOM     16  C   UNL     1       5.228  -6.419   6.781  0.00  0.00    +0.013 A 
ATOM     17  C   UNL     1       6.169  -6.949   7.736  0.00  0.00    +0.005 A 
ATOM     18  C   UNL     1       5.794  -7.024   9.146  0.00  0.00    -0.033 A 
ATOM     28  C   UNL     1       4.480  -6.559   9.560  0.00  0.00    +0.005 A 
ATOM     29  C   UNL     1       3.555  -6.040   8.627  0.00  0.00    +0.013 A 
BRANCH  18  19
ATOM     19  C   UNL     1       6.726  -7.594  10.231  0.00  0.00    +0.119 C 
BRANCH  19  20
ATOM     20  N   UNL     1       8.124  -7.926   9.825  0.00  0.00    -0.302 NA
ATOM     21  C   UNL     1       8.173  -9.098   8.840  0.00  0.00    +0.066 C 
ATOM     22  C   UNL     1       9.642  -9.418   8.408  0.00  0.00    -0.064 C 
ATOM     23  N   UNL     1      10.482  -9.719   9.650  0.00  0.00    +0.379 N 
ATOM     24  C   UNL     1      11.848 -10.076   9.244  0.00  0.00    -0.096 C 
ATOM     25  H   UNL     1      10.035 -10.608  10.153  0.00  0.00    -0.082 HD
ATOM     26  C   UNL     1      10.436  -8.560  10.636  0.00  0.00    -0.064 C 
ATOM     27  C   UNL     1       8.971  -8.232  11.036  0.00  0.00    +0.066 C 
ENDBRANCH  19  20
ENDBRANCH  18  19
ENDBRANCH  14  15
ENDBRANCH  12  13
TORSDOF 6
ENDMDL
MODEL 2
REMARK VINA RESULT:     -11.3      2.255     12.532
REMARK  Name = C:\Users\Docking\Desktop\test protocol\1iep_ligandH.pdb
REMARK  8 active torsions:
REMARK  status: ('A' for Active; 'I' for Inactive)
REMARK    1  A    between atoms: _5  and  _11
REMARK    2  A    between atoms: _19  and  _21
REMARK    3  A    between atoms: _22  and  _66
REMARK    4  A    between atoms: _27  and  _30
REMARK    5  A    between atoms: _32  and  _33
REMARK    6  A    between atoms: _38  and  _43
REMARK    7  A    between atoms: _43  and  _46
REMARK    8  A    between atoms: _53  and  _55
REMARK                            x       y       z     vdW  Elec       q    Type
REMARK                         _______ _______ _______ _____ _____    ______ ____
ROOT
ATOM     10  C   UNL     1       2.822  -4.913   4.814  0.00  0.00    +0.038 A 
ATOM     11  C   UNL     1       2.812  -3.540   4.458  0.00  0.00    +0.047 A 
ATOM     12  C   UNL     1       1.642  -2.929   3.847  0.00  0.00    +0.035 A 
ATOM     32  C   UNL     1       0.498  -3.745   3.614  0.00  0.00    +0.024 A 
ATOM     33  C   UNL     1       0.490  -5.143   3.969  0.00  0.00    +0.007 A 
ATOM     34  C   UNL     1       1.642  -5.752   4.570  0.00  0.00    -0.029 A 
ATOM     35  C   UNL     1       1.581  -7.256   4.923  0.00  0.00    +0.045 C 
ENDROOT
BRANCH  10   9
ATOM      4  C   UNL     1       5.222  -6.709   8.562  0.00  0.00    +0.077 A 
ATOM      5  C   UNL     1       4.098  -6.543   9.437  0.00  0.00    +0.048 A 
ATOM      6  C   UNL     1       2.923  -5.985   8.885  0.00  0.00    +0.116 A 
ATOM      7  N   UNL     1       2.886  -5.624   7.556  0.00  0.00    -0.223 NA
ATOM      8  C   UNL     1       3.989  -5.796   6.740  0.00  0.00    +0.220 A 
ATOM      9  N   UNL     1       3.972  -5.447   5.398  0.00  0.00    -0.283 N 
ATOM     36  H   UNL     1       4.809  -5.583   4.831  0.00  0.00    +0.155 HD
ATOM     37  N   UNL     1       5.124  -6.325   7.243  0.00  0.00    -0.214 NA
BRANCH   4   3
ATOM      1  C   UNL     1       8.086  -8.249  10.736  0.00  0.00    +0.020 A 
ATOM      2  C   UNL     1       6.803  -7.695  10.369  0.00  0.00    +0.013 A 
ATOM      3  C   UNL     1       6.533  -7.287   8.996  0.00  0.00    +0.019 A 
ATOM     38  C   UNL     1       7.591  -7.454   8.011  0.00  0.00    +0.120 A 
ATOM     39  N   UNL     1       8.817  -7.988   8.394  0.00  0.00    -0.263 NA
ATOM     40  C   UNL     1       9.089  -8.383   9.713  0.00  0.00    +0.111 A 
ENDBRANCH   4   3
ENDBRANCH  10   9
BRANCH  12  13
ATOM     13  N   UNL     1       1.577  -1.542   3.457  0.00  0.00    -0.281 N 
ATOM     14  C   UNL     1       1.559  -0.427   4.279  0.00  0.00    +0.248 C 
ATOM     30  O   UNL     1       1.379  -0.461   5.487  0.00  0.00    -0.270 OA
ATOM     31  H   UNL     1       1.541  -1.361   2.454  0.00  0.00    +0.155 HD
BRANCH  14  15
ATOM     15  C   UNL     1       1.754   0.923   3.668  0.00  0.00    +0.037 A 
ATOM     16  C   UNL     1       1.955   1.083   2.225  0.00  0.00    +0.013 A 
ATOM     17  C   UNL     1       2.157   2.395   1.664  0.00  0.00    +0.005 A 
ATOM     18  C   UNL     1       2.159   3.559   2.546  0.00  0.00    -0.033 A 
ATOM     28  C   UNL     1       1.952   3.373   3.973  0.00  0.00    +0.005 A 
ATOM     29  C   UNL     1       1.754   2.088   4.527  0.00  0.00    +0.013 A 
BRANCH  18  19
ATOM     19  C   UNL     1       2.388   4.994   2.037  0.00  0.00    +0.119 C 
BRANCH  19  20
ATOM     20  N   UNL     1       3.271   5.877   2.856  0.00  0.00    -0.302 NA
ATOM     21  C   UNL     1       2.994   7.362   2.603  0.00  0.00    +0.066 C 
ATOM     22  C   UNL     1       3.910   8.271   3.484  0.00  0.00    -0.064 C 
ATOM     23  N   UNL     1       5.376   7.938   3.203  0.00  0.00    +0.379 N 
ATOM     24  C   UNL     1       6.242   8.831   3.987  0.00  0.00    -0.096 C 
ATOM     25  H   UNL     1       5.568   8.143   2.124  0.00  0.00    -0.082 HD
ATOM     26  C   UNL     1       5.661   6.464   3.450  0.00  0.00    -0.064 C 
ATOM     27  C   UNL     1       4.724   5.569   2.591  0.00  0.00    +0.066 C 
ENDBRANCH  19  20
ENDBRANCH  18  19
ENDBRANCH  14  15
ENDBRANCH  12  13
TORSDOF 6
ENDMDL
MODEL 3
REMARK VINA RESULT:     -11.2      5.435     15.577
REMARK  Name = C:\Users\Docking\Desktop\test protocol\1iep_ligandH.pdb
REMARK  8 active torsions:
REMARK  status: ('A' for Active; 'I' for Inactive)
REMARK    1  A    between atoms: _5  and  _11
REMARK    2  A    between atoms: _19  and  _21
REMARK    3  A    between atoms: _22  and  _66
REMARK    4  A    between atoms: _27  and  _30
REMARK    5  A    between atoms: _32  and  _33
REMARK    6  A    between atoms: _38  and  _43
REMARK    7  A    between atoms: _43  and  _46
REMARK    8  A    between atoms: _53  and  _55
REMARK                            x       y       z     vdW  Elec       q    Type
REMARK                         _______ _______ _______ _____ _____    ______ ____
ROOT
ATOM     10  C   UNL     1      12.462  -9.466   9.129  0.00  0.00    +0.038 A 
ATOM     11  C   UNL     1      11.163  -9.180   8.636  0.00  0.00    +0.047 A 
ATOM     12  C   UNL     1      10.125  -8.658   9.511  0.00  0.00    +0.035 A 
ATOM     32  C   UNL     1      10.445  -8.437  10.882  0.00  0.00    +0.024 A 
ATOM     33  C   UNL     1      11.759  -8.723  11.400  0.00  0.00    +0.007 A 
ATOM     34  C   UNL     1      12.787  -9.241  10.542  0.00  0.00    -0.029 A 
ATOM     35  C   UNL     1      14.177  -9.536  11.153  0.00  0.00    +0.045 C 
ENDROOT
BRANCH  10   9
ATOM      4  C   UNL     1      14.685 -13.089   6.900  0.00  0.00    +0.077 A 
ATOM      5  C   UNL     1      13.886 -14.072   7.574  0.00  0.00    +0.048 A 
ATOM      6  C   UNL     1      12.920 -13.604   8.492  0.00  0.00    +0.116 A 
ATOM      7  N   UNL     1      12.771 -12.251   8.711  0.00  0.00    -0.223 NA
ATOM      8  C   UNL     1      13.559 -11.330   8.045  0.00  0.00    +0.220 A 
ATOM      9  N   UNL     1      13.421  -9.965   8.244  0.00  0.00    -0.283 N 
ATOM     36  H   UNL     1      14.027  -9.319   7.740  0.00  0.00    +0.155 HD
ATOM     37  N   UNL     1      14.490 -11.752   7.165  0.00  0.00    -0.214 NA
BRANCH   4   3
ATOM      1  C   UNL     1      17.038 -12.991   3.776  0.00  0.00    +0.020 A 
ATOM      2  C   UNL     1      16.001 -12.621   4.712  0.00  0.00    +0.013 A 
ATOM      3  C   UNL     1      15.746 -13.427   5.899  0.00  0.00    +0.019 A 
ATOM     38  C   UNL     1      16.566 -14.610   6.112  0.00  0.00    +0.120 A 
ATOM     39  N   UNL     1      17.556 -14.942   5.194  0.00  0.00    -0.263 NA
ATOM     40  C   UNL     1      17.809 -14.175   4.047  0.00  0.00    +0.111 A 
ENDBRANCH   4   3
ENDBRANCH  10   9
BRANCH  12  13
ATOM     13  N   UNL     1       8.786  -8.356   9.069  0.00  0.00    -0.281 N 
ATOM     14  C   UNL     1       7.739  -7.841   9.815  0.00  0.00    +0.248 C 
ATOM     30  O   UNL     1       7.733  -7.761  11.034  0.00  0.00    -0.270 OA
ATOM     31  H   UNL     1       8.586  -8.546   8.087  0.00  0.00    +0.155 HD
BRANCH  14  15
ATOM     15  C   UNL     1       6.515  -7.359   9.105  0.00  0.00    +0.037 A 
ATOM     16  C   UNL     1       6.532  -7.077   7.667  0.00  0.00    +0.013 A 
ATOM     17  C   UNL     1       5.343  -6.596   7.010  0.00  0.00    +0.005 A 
ATOM     18  C   UNL     1       4.125  -6.395   7.791  0.00  0.00    -0.033 A 
ATOM     28  C   UNL     1       4.134  -6.687   9.215  0.00  0.00    +0.005 A 
ATOM     29  C   UNL     1       5.299  -7.158   9.863  0.00  0.00    +0.013 A 
BRANCH  18  19
ATOM     19  C   UNL     1       2.815  -5.865   7.177  0.00  0.00    +0.119 C 
BRANCH  19  20
ATOM     20  N   UNL     1       2.744  -5.778   5.688  0.00  0.00    -0.302 NA
ATOM     21  C   UNL     1       2.797  -4.329   5.195  0.00  0.00    +0.066 C 
ATOM     22  C   UNL     1       2.744  -4.258   3.634  0.00  0.00    -0.064 C 
ATOM     23  N   UNL     1       1.476  -4.954   3.136  0.00  0.00    +0.379 N 
ATOM     24  C   UNL     1       1.395  -4.838   1.673  0.00  0.00    -0.096 C 
ATOM     25  H   UNL     1       0.602  -4.413   3.568  0.00  0.00    -0.082 HD
ATOM     26  C   UNL     1       1.415  -6.394   3.625  0.00  0.00    -0.064 C 
ATOM     27  C   UNL     1       1.497  -6.456   5.176  0.00  0.00    +0.066 C 
ENDBRANCH  19  20
ENDBRANCH  18  19
ENDBRANCH  14  15
ENDBRANCH  12  13
TORSDOF 6
ENDMDL
MODEL 4
REMARK VINA RESULT:     -11.1      2.007     13.066
REMARK  Name = C:\Users\Docking\Desktop\test protocol\1iep_ligandH.pdb
REMARK  8 active torsions:
REMARK  status: ('A' for Active; 'I' for Inactive)
REMARK    1  A    between atoms: _5  and  _11
REMARK    2  A    between atoms: _19  and  _21
REMARK    3  A    between atoms: _22  and  _66
REMARK    4  A    between atoms: _27  and  _30
REMARK    5  A    between atoms: _32  and  _33
REMARK    6  A    between atoms: _38  and  _43
REMARK    7  A    between atoms: _43  and  _46
REMARK    8  A    between atoms: _53  and  _55
REMARK                            x       y       z     vdW  Elec       q    Type
REMARK                         _______ _______ _______ _____ _____    ______ ____
ROOT
ATOM     10  C   UNL     1       2.915  -5.347   5.210  0.00  0.00    +0.038 A 
ATOM     11  C   UNL     1       2.711  -3.952   5.053  0.00  0.00    +0.047 A 
ATOM     12  C   UNL     1       1.464  -3.429   4.517  0.00  0.00    +0.035 A 
ATOM     32  C   UNL     1       0.444  -4.356   4.154  0.00  0.00    +0.024 A 
ATOM     33  C   UNL     1       0.634  -5.777   4.306  0.00  0.00    +0.007 A 
ATOM     34  C   UNL     1       1.863  -6.299   4.832  0.00  0.00    -0.029 A 
ATOM     35  C   UNL     1       2.015  -7.832   4.967  0.00  0.00    +0.045 C 
ENDROOT
BRANCH  10   9
ATOM      4  C   UNL     1       5.621  -7.034   8.797  0.00  0.00    +0.077 A 
ATOM      5  C   UNL     1       4.524  -6.997   9.721  0.00  0.00    +0.048 A 
ATOM      6  C   UNL     1       3.282  -6.531   9.235  0.00  0.00    +0.116 A 
ATOM      7  N   UNL     1       3.158  -6.134   7.921  0.00  0.00    -0.223 NA
ATOM      8  C   UNL     1       4.236  -6.181   7.057  0.00  0.00    +0.220 A 
ATOM      9  N   UNL     1       4.132  -5.794   5.730  0.00  0.00    -0.283 N 
ATOM     36  H   UNL     1       4.952  -5.836   5.126  0.00  0.00    +0.155 HD
ATOM     37  N   UNL     1       5.433  -6.621   7.497  0.00  0.00    -0.214 NA
BRANCH   4   3
ATOM      1  C   UNL     1       8.696  -8.392  10.798  0.00  0.00    +0.020 A 
ATOM      2  C   UNL     1       7.354  -7.945  10.501  0.00  0.00    +0.013 A 
ATOM      3  C   UNL     1       6.995  -7.505   9.159  0.00  0.00    +0.019 A 
ATOM     38  C   UNL     1       8.026  -7.530   8.131  0.00  0.00    +0.120 A 
ATOM     39  N   UNL     1       9.310  -7.964   8.447  0.00  0.00    -0.263 NA
ATOM     40  C   UNL     1       9.667  -8.388   9.736  0.00  0.00    +0.111 A 
ENDBRANCH   4   3
ENDBRANCH  10   9
BRANCH  12  13
ATOM     13  N   UNL     1       1.203  -2.024   4.327  0.00  0.00    -0.281 N 
ATOM     14  C   UNL     1       1.055  -1.339   3.132  0.00  0.00    +0.248 C 
ATOM     30  O   UNL     1       1.337  -1.796   2.034  0.00  0.00    -0.270 OA
ATOM     31  H   UNL     1       1.118  -1.466   5.177  0.00  0.00    +0.155 HD
BRANCH  14  15
ATOM     15  C   UNL     1       0.530   0.060   3.162  0.00  0.00    +0.037 A 
ATOM     16  C   UNL     1      -0.508   0.503   2.228  0.00  0.00    +0.013 A 
ATOM     17  C   UNL     1      -0.984   1.863   2.267  0.00  0.00    +0.005 A 
ATOM     18  C   UNL     1      -0.422   2.790   3.246  0.00  0.00    -0.033 A 
ATOM     28  C   UNL     1       0.603   2.323   4.165  0.00  0.00    +0.005 A 
ATOM     29  C   UNL     1       1.072   0.991   4.129  0.00  0.00    +0.013 A 
BRANCH  18  19
ATOM     19  C   UNL     1      -0.855   4.265   3.346  0.00  0.00    +0.119 C 
BRANCH  19  20
ATOM     20  N   UNL     1       0.216   5.300   3.244  0.00  0.00    -0.302 NA
ATOM     21  C   UNL     1      -0.295   6.694   3.619  0.00  0.00    +0.066 C 
ATOM     22  C   UNL     1       0.844   7.761   3.529  0.00  0.00    -0.064 C 
ATOM     23  N   UNL     1       1.429   7.761   2.116  0.00  0.00    +0.379 N 
ATOM     24  C   UNL     1       2.461   8.803   2.011  0.00  0.00    -0.096 C 
ATOM     25  H   UNL     1       0.608   8.026   1.410  0.00  0.00    -0.082 HD
ATOM     26  C   UNL     1       1.937   6.378   1.734  0.00  0.00    -0.064 C 
ATOM     27  C   UNL     1       0.805   5.320   1.855  0.00  0.00    +0.066 C 
ENDBRANCH  19  20
ENDBRANCH  18  19
ENDBRANCH  14  15
ENDBRANCH  12  13
TORSDOF 6
ENDMDL
MODEL 5
REMARK VINA RESULT:     -10.9      5.388     14.952
REMARK  Name = C:\Users\Docking\Desktop\test protocol\1iep_ligandH.pdb
REMARK  8 active torsions:
REMARK  status: ('A' for Active; 'I' for Inactive)
REMARK    1  A    between atoms: _5  and  _11
REMARK    2  A    between atoms: _19  and  _21
REMARK    3  A    between atoms: _22  and  _66
REMARK    4  A    between atoms: _27  and  _30
REMARK    5  A    between atoms: _32  and  _33
REMARK    6  A    between atoms: _38  and  _43
REMARK    7  A    between atoms: _43  and  _46
REMARK    8  A    between atoms: _53  and  _55
REMARK                            x       y       z     vdW  Elec       q    Type
REMARK                         _______ _______ _______ _____ _____    ______ ____
ROOT
ATOM     10  C   UNL     1      11.460 -10.210   8.879  0.00  0.00    +0.038 A 
ATOM     11  C   UNL     1      10.163  -9.845   8.434  0.00  0.00    +0.047 A 
ATOM     12  C   UNL     1       9.452  -8.724   9.028  0.00  0.00    +0.035 A 
ATOM     32  C   UNL     1      10.092  -7.994  10.072  0.00  0.00    +0.024 A 
ATOM     33  C   UNL     1      11.409  -8.352  10.537  0.00  0.00    +0.007 A 
ATOM     34  C   UNL     1      12.115  -9.458   9.956  0.00  0.00    -0.029 A 
ATOM     35  C   UNL     1      13.522  -9.801  10.499  0.00  0.00    +0.045 C 
ENDROOT
BRANCH  10   9
ATOM      4  C   UNL     1      12.266 -13.087   5.123  0.00  0.00    +0.077 A 
ATOM      5  C   UNL     1      11.318 -12.386   4.307  0.00  0.00    +0.048 A 
ATOM      6  C   UNL     1      10.638 -11.295   4.893  0.00  0.00    +0.116 A 
ATOM      7  N   UNL     1      10.896 -10.940   6.200  0.00  0.00    -0.223 NA
ATOM      8  C   UNL     1      11.816 -11.639   6.960  0.00  0.00    +0.220 A 
ATOM      9  N   UNL     1      12.097 -11.295   8.273  0.00  0.00    -0.283 N 
ATOM     36  H   UNL     1      12.777 -11.840   8.803  0.00  0.00    +0.155 HD
ATOM     37  N   UNL     1      12.477 -12.686   6.423  0.00  0.00    -0.214 NA
BRANCH   4   3
ATOM      1  C   UNL     1      13.372 -16.335   3.245  0.00  0.00    +0.020 A 
ATOM      2  C   UNL     1      12.559 -15.221   3.674  0.00  0.00    +0.013 A 
ATOM      3  C   UNL     1      13.066 -14.259   4.645  0.00  0.00    +0.019 A 
ATOM     38  C   UNL     1      14.410 -14.455   5.166  0.00  0.00    +0.120 A 
ATOM     39  N   UNL     1      15.170 -15.538   4.735  0.00  0.00    -0.263 NA
ATOM     40  C   UNL     1      14.692 -16.471   3.802  0.00  0.00    +0.111 A 
ENDBRANCH   4   3
ENDBRANCH  10   9
BRANCH  12  13
ATOM     13  N   UNL     1       8.131  -8.312   8.623  0.00  0.00    -0.281 N 
ATOM     14  C   UNL     1       7.074  -7.926   9.431  0.00  0.00    +0.248 C 
ATOM     30  O   UNL     1       7.038  -8.082  10.643  0.00  0.00    -0.270 OA
ATOM     31  H   UNL     1       7.953  -8.304   7.619  0.00  0.00    +0.155 HD
BRANCH  14  15
ATOM     15  C   UNL     1       5.878  -7.288   8.801  0.00  0.00    +0.037 A 
ATOM     16  C   UNL     1       4.650  -7.054   9.565  0.00  0.00    +0.013 A 
ATOM     17  C   UNL     1       3.506  -6.452   8.928  0.00  0.00    +0.005 A 
ATOM     18  C   UNL     1       3.585  -6.078   7.518  0.00  0.00    -0.033 A 
ATOM     28  C   UNL     1       4.818  -6.315   6.785  0.00  0.00    +0.005 A 
ATOM     29  C   UNL     1       5.941  -6.906   7.406  0.00  0.00    +0.013 A 
BRANCH  18  19
ATOM     19  C   UNL     1       2.406  -5.449   6.752  0.00  0.00    +0.119 C 
BRANCH  19  20
ATOM     20  N   UNL     1       2.436  -5.535   5.261  0.00  0.00    -0.302 NA
ATOM     21  C   UNL     1       2.595  -4.158   4.610  0.00  0.00    +0.066 C 
ATOM     22  C   UNL     1       2.647  -4.268   3.051  0.00  0.00    -0.064 C 
ATOM     23  N   UNL     1       1.380  -4.962   2.549  0.00  0.00    +0.379 N 
ATOM     24  C   UNL     1       1.399  -5.015   1.080  0.00  0.00    -0.096 C 
ATOM     25  H   UNL     1       0.509  -4.337   2.854  0.00  0.00    -0.082 HD
ATOM     26  C   UNL     1       1.213  -6.331   3.194  0.00  0.00    -0.064 C 
ATOM     27  C   UNL     1       1.192  -6.213   4.743  0.00  0.00    +0.066 C 
ENDBRANCH  19  20
ENDBRANCH  18  19
ENDBRANCH  14  15
ENDBRANCH  12  13
TORSDOF 6
ENDMDL
