MODEL 1
REMARK VINA RESULT:      -8.9      0.000      0.000
REMARK  Name = C:\Users\Docking\Desktop\test protocol\1iep_ligandH.pdb
REMARK  8 active torsions:
REMARK  status: ('A' for Active; 'I' for Inactive)
REMARK    1  A    between atoms: _5  and  _11
REMARK    2  A    between atoms: _19  and  _21
REMARK    3  A    between atoms: _22  and  _66
REMARK    4  A    between atoms: _27  and  _30
REMARK    5  A    between atoms: _32  and  _33
REMARK    6  A    between atoms: _38  and  _43
REMARK    7  A    between atoms: _43  and  _46
REMARK    8  A    between atoms: _53  and  _55
REMARK                            x       y       z     vdW  Elec       q    Type
REMARK                         _______ _______ _______ _____ _____    ______ ____
ROOT
ATOM     10  C   UNL     1      32.319   8.408  18.346  0.00  0.00    +0.038 A 
ATOM     11  C   UNL     1      33.573   8.968  17.991  0.00  0.00    +0.047 A 
ATOM     12  C   UNL     1      34.709   8.121  17.662  0.00  0.00    +0.035 A 
ATOM     32  C   UNL     1      34.532   6.707  17.700  0.00  0.00    +0.024 A 
ATOM     33  C   UNL     1      33.265   6.121  18.059  0.00  0.00    +0.007 A 
ATOM     34  C   UNL     1      32.141   6.951  18.388  0.00  0.00    -0.029 A 
ATOM     35  C   UNL     1      30.808   6.268  18.772  0.00  0.00    +0.045 C 
ENDROOT
BRANCH  10   9
ATOM      4  C   UNL     1      29.088  11.744  17.134  0.00  0.00    +0.077 A 
ATOM      5  C   UNL     1      29.564  11.798  15.781  0.00  0.00    +0.048 A 
ATOM      6  C   UNL     1      30.646  10.956  15.440  0.00  0.00    +0.116 A 
ATOM      7  N   UNL     1      31.204  10.127  16.389  0.00  0.00    -0.223 NA
ATOM      8  C   UNL     1      30.722  10.100  17.685  0.00  0.00    +0.220 A 
ATOM      9  N   UNL     1      31.262   9.268  18.653  0.00  0.00    -0.283 N 
ATOM     36  H   UNL     1      30.884   9.283  19.599  0.00  0.00    +0.155 HD
ATOM     37  N   UNL     1      29.690  10.895  18.036  0.00  0.00    -0.214 NA
BRANCH   4   3
ATOM      1  C   UNL     1      25.560  13.373  17.575  0.00  0.00    +0.020 A 
ATOM      2  C   UNL     1      26.625  12.556  17.040  0.00  0.00    +0.013 A 
ATOM      3  C   UNL     1      27.950  12.570  17.647  0.00  0.00    +0.019 A 
ATOM     38  C   UNL     1      28.166  13.427  18.803  0.00  0.00    +0.120 A 
ATOM     39  N   UNL     1      27.121  14.204  19.295  0.00  0.00    -0.263 NA
ATOM     40  C   UNL     1      25.842  14.200  18.718  0.00  0.00    +0.111 A 
ENDBRANCH   4   3
ENDBRANCH  10   9
BRANCH  12  13
ATOM     13  N   UNL     1      36.009   8.633  17.303  0.00  0.00    -0.281 N 
ATOM     14  C   UNL     1      36.574   8.712  16.041  0.00  0.00    +0.248 C 
ATOM     30  O   UNL     1      36.129   8.155  15.048  0.00  0.00    -0.270 OA
ATOM     31  H   UNL     1      36.582   8.978  18.073  0.00  0.00    +0.155 HD
BRANCH  14  15
ATOM     15  C   UNL     1      37.822   9.514  15.857  0.00  0.00    +0.037 A 
ATOM     16  C   UNL     1      38.076  10.717  16.654  0.00  0.00    +0.013 A 
ATOM     17  C   UNL     1      39.280  11.482  16.445  0.00  0.00    +0.005 A 
ATOM     18  C   UNL     1      40.240  11.045  15.435  0.00  0.00    -0.033 A 
ATOM     28  C   UNL     1      39.965   9.844  14.662  0.00  0.00    +0.005 A 
ATOM     29  C   UNL     1      38.786   9.093  14.863  0.00  0.00    +0.013 A 
BRANCH  18  19
ATOM     19  C   UNL     1      41.540  11.811  15.130  0.00  0.00    +0.119 C 
BRANCH  19  20
ATOM     20  N   UNL     1      41.494  12.830  14.039  0.00  0.00    -0.302 NA
ATOM     21  C   UNL     1      42.886  13.140  13.483  0.00  0.00    +0.066 C 
ATOM     22  C   UNL     1      42.816  14.191  12.327  0.00  0.00    -0.064 C 
ATOM     23  N   UNL     1      42.142  15.465  12.840  0.00  0.00    +0.379 N 
ATOM     24  C   UNL     1      42.127  16.475  11.772  0.00  0.00    -0.096 C 
ATOM     25  H   UNL     1      42.763  15.864  13.675  0.00  0.00    -0.082 HD
ATOM     26  C   UNL     1      40.757  15.164  13.397  0.00  0.00    -0.064 C 
ATOM     27  C   UNL     1      40.835  14.097  14.524  0.00  0.00    +0.066 C 
ENDBRANCH  19  20
ENDBRANCH  18  19
ENDBRANCH  14  15
ENDBRANCH  12  13
TORSDOF 6
ENDMDL
MODEL 2
REMARK VINA RESULT:      -8.7     10.980     17.262
REMARK  Name = C:\Users\Docking\Desktop\test protocol\1iep_ligandH.pdb
REMARK  8 active torsions:
REMARK  status: ('A' for Active; 'I' for Inactive)
REMARK    1  A    between atoms: _5  and  _11
REMARK    2  A    between atoms: _19  and  _21
REMARK    3  A    between atoms: _22  and  _66
REMARK    4  A    between atoms: _27  and  _30
REMARK    5  A    between atoms: _32  and  _33
REMARK    6  A    between atoms: _38  and  _43
REMARK    7  A    between atoms: _43  and  _46
REMARK    8  A    between atoms: _53  and  _55
REMARK                            x       y       z     vdW  Elec       q    Type
REMARK                         _______ _______ _______ _____ _____    ______ ____
ROOT
ATOM     10  C   UNL     1      41.911  13.002   5.532  0.00  0.00    +0.038 A 
ATOM     11  C   UNL     1      42.600  13.862   4.639  0.00  0.00    +0.047 A 
ATOM     12  C   UNL     1      43.016  13.402   3.323  0.00  0.00    +0.035 A 
ATOM     32  C   UNL     1      42.712  12.061   2.948  0.00  0.00    +0.024 A 
ATOM     33  C   UNL     1      42.014  11.173   3.844  0.00  0.00    +0.007 A 
ATOM     34  C   UNL     1      41.603  11.620   5.145  0.00  0.00    -0.029 A 
ATOM     35  C   UNL     1      40.863  10.623   6.066  0.00  0.00    +0.045 C 
ENDROOT
BRANCH  10   9
ATOM      4  C   UNL     1      42.842  14.054  10.122  0.00  0.00    +0.077 A 
ATOM      5  C   UNL     1      44.183  13.553  10.026  0.00  0.00    +0.048 A 
ATOM      6  C   UNL     1      44.592  13.027   8.780  0.00  0.00    +0.116 A 
ATOM      7  N   UNL     1      43.717  13.008   7.716  0.00  0.00    -0.223 NA
ATOM      8  C   UNL     1      42.430  13.497   7.843  0.00  0.00    +0.220 A 
ATOM      9  N   UNL     1      41.535  13.496   6.783  0.00  0.00    -0.283 N 
ATOM     36  H   UNL     1      40.592  13.859   6.919  0.00  0.00    +0.155 HD
ATOM     37  N   UNL     1      42.015  14.004   9.022  0.00  0.00    -0.214 NA
BRANCH   4   3
ATOM      1  C   UNL     1      41.528  16.598  12.787  0.00  0.00    +0.020 A 
ATOM      2  C   UNL     1      42.092  16.079  11.562  0.00  0.00    +0.013 A 
ATOM      3  C   UNL     1      42.264  14.644  11.370  0.00  0.00    +0.019 A 
ATOM     38  C   UNL     1      41.851  13.755  12.445  0.00  0.00    +0.120 A 
ATOM     39  N   UNL     1      41.312  14.283  13.614  0.00  0.00    -0.263 NA
ATOM     40  C   UNL     1      41.144  15.662  13.811  0.00  0.00    +0.111 A 
ENDBRANCH   4   3
ENDBRANCH  10   9
BRANCH  12  13
ATOM     13  N   UNL     1      43.725  14.227   2.376  0.00  0.00    -0.281 N 
ATOM     14  C   UNL     1      45.050  14.630   2.422  0.00  0.00    +0.248 C 
ATOM     30  O   UNL     1      45.774  14.516   3.400  0.00  0.00    -0.270 OA
ATOM     31  H   UNL     1      43.185  14.554   1.575  0.00  0.00    +0.155 HD
BRANCH  14  15
ATOM     15  C   UNL     1      45.655  15.263   1.211  0.00  0.00    +0.037 A 
ATOM     16  C   UNL     1      46.989  15.866   1.254  0.00  0.00    +0.013 A 
ATOM     17  C   UNL     1      47.542  16.485   0.076  0.00  0.00    +0.005 A 
ATOM     18  C   UNL     1      46.760  16.502  -1.158  0.00  0.00    -0.033 A 
ATOM     28  C   UNL     1      45.441  15.892  -1.175  0.00  0.00    +0.005 A 
ATOM     29  C   UNL     1      44.895  15.285  -0.021  0.00  0.00    +0.013 A 
BRANCH  18  19
ATOM     19  C   UNL     1      47.262  17.159  -2.457  0.00  0.00    +0.119 C 
BRANCH  19  20
ATOM     20  N   UNL     1      47.872  16.264  -3.485  0.00  0.00    -0.302 NA
ATOM     21  C   UNL     1      46.850  15.291  -4.079  0.00  0.00    +0.066 C 
ATOM     22  C   UNL     1      47.500  14.377  -5.168  0.00  0.00    -0.064 C 
ATOM     23  N   UNL     1      48.679  13.618  -4.556  0.00  0.00    +0.379 N 
ATOM     24  C   UNL     1      49.256  12.714  -5.561  0.00  0.00    -0.096 C 
ATOM     25  H   UNL     1      48.281  12.990  -3.725  0.00  0.00    -0.082 HD
ATOM     26  C   UNL     1      49.699  14.578  -3.960  0.00  0.00    -0.064 C 
ATOM     27  C   UNL     1      49.036  15.502  -2.900  0.00  0.00    +0.066 C 
ENDBRANCH  19  20
ENDBRANCH  18  19
ENDBRANCH  14  15
ENDBRANCH  12  13
TORSDOF 6
ENDMDL
MODEL 3
REMARK VINA RESULT:      -8.2      9.872     15.533
REMARK  Name = C:\Users\Docking\Desktop\test protocol\1iep_ligandH.pdb
REMARK  8 active torsions:
REMARK  status: ('A' for Active; 'I' for Inactive)
REMARK    1  A    between atoms: _5  and  _11
REMARK    2  A    between atoms: _19  and  _21
REMARK    3  A    between atoms: _22  and  _66
REMARK    4  A    between atoms: _27  and  _30
REMARK    5  A    between atoms: _32  and  _33
REMARK    6  A    between atoms: _38  and  _43
REMARK    7  A    between atoms: _43  and  _46
REMARK    8  A    between atoms: _53  and  _55
REMARK                            x       y       z     vdW  Elec       q    Type
REMARK                         _______ _______ _______ _____ _____    ______ ____
ROOT
ATOM     10  C   UNL     1      40.882  12.565   6.953  0.00  0.00    +0.038 A 
ATOM     11  C   UNL     1      41.768  13.355   6.177  0.00  0.00    +0.047 A 
ATOM     12  C   UNL     1      42.162  12.948   4.837  0.00  0.00    +0.035 A 
ATOM     32  C   UNL     1      41.633  11.731   4.318  0.00  0.00    +0.024 A 
ATOM     33  C   UNL     1      40.733  10.914   5.094  0.00  0.00    +0.007 A 
ATOM     34  C   UNL     1      40.342  11.310   6.417  0.00  0.00    -0.029 A 
ATOM     35  C   UNL     1      39.379  10.392   7.206  0.00  0.00    +0.045 C 
ENDROOT
BRANCH  10   9
ATOM      4  C   UNL     1      41.594  12.759  11.696  0.00  0.00    +0.077 A 
ATOM      5  C   UNL     1      42.735  11.892  11.620  0.00  0.00    +0.048 A 
ATOM      6  C   UNL     1      43.101  11.412  10.343  0.00  0.00    +0.116 A 
ATOM      7  N   UNL     1      42.374  11.779   9.231  0.00  0.00    -0.223 NA
ATOM      8  C   UNL     1      41.278  12.615   9.339  0.00  0.00    +0.220 A 
ATOM      9  N   UNL     1      40.537  13.003   8.234  0.00  0.00    -0.283 N 
ATOM     36  H   UNL     1      39.731  13.616   8.356  0.00  0.00    +0.155 HD
ATOM     37  N   UNL     1      40.907  13.086  10.548  0.00  0.00    -0.214 NA
BRANCH   4   3
ATOM      1  C   UNL     1      40.395  15.303  14.415  0.00  0.00    +0.020 A 
ATOM      2  C   UNL     1      40.889  14.783  13.161  0.00  0.00    +0.013 A 
ATOM      3  C   UNL     1      41.085  13.351  12.974  0.00  0.00    +0.019 A 
ATOM     38  C   UNL     1      40.768  12.465  14.084  0.00  0.00    +0.120 A 
ATOM     39  N   UNL     1      40.295  12.994  15.280  0.00  0.00    -0.263 NA
ATOM     40  C   UNL     1      40.104  14.371  15.473  0.00  0.00    +0.111 A 
ENDBRANCH   4   3
ENDBRANCH  10   9
BRANCH  12  13
ATOM     13  N   UNL     1      43.064  13.706   4.006  0.00  0.00    -0.281 N 
ATOM     14  C   UNL     1      44.412  13.951   4.213  0.00  0.00    +0.248 C 
ATOM     30  O   UNL     1      45.000  13.732   5.262  0.00  0.00    -0.270 OA
ATOM     31  H   UNL     1      42.660  14.111   3.161  0.00  0.00    +0.155 HD
BRANCH  14  15
ATOM     15  C   UNL     1      45.219  14.536   3.100  0.00  0.00    +0.037 A 
ATOM     16  C   UNL     1      44.577  15.094   1.908  0.00  0.00    +0.013 A 
ATOM     17  C   UNL     1      45.380  15.637   0.841  0.00  0.00    +0.005 A 
ATOM     18  C   UNL     1      46.836  15.625   0.963  0.00  0.00    -0.033 A 
ATOM     28  C   UNL     1      47.447  15.069   2.159  0.00  0.00    +0.005 A 
ATOM     29  C   UNL     1      46.663  14.535   3.207  0.00  0.00    +0.013 A 
BRANCH  18  19
ATOM     19  C   UNL     1      47.772  16.163  -0.135  0.00  0.00    +0.119 C 
BRANCH  19  20
ATOM     20  N   UNL     1      47.415  15.851  -1.551  0.00  0.00    -0.302 NA
ATOM     21  C   UNL     1      47.546  14.356  -1.860  0.00  0.00    +0.066 C 
ATOM     22  C   UNL     1      47.147  14.044  -3.340  0.00  0.00    -0.064 C 
ATOM     23  N   UNL     1      48.020  14.871  -4.285  0.00  0.00    +0.379 N 
ATOM     24  C   UNL     1      47.687  14.537  -5.678  0.00  0.00    -0.096 C 
ATOM     25  H   UNL     1      49.081  14.576  -4.110  0.00  0.00    -0.082 HD
ATOM     26  C   UNL     1      47.899  16.358  -3.983  0.00  0.00    -0.064 C 
ATOM     27  C   UNL     1      48.268  16.653  -2.503  0.00  0.00    +0.066 C 
ENDBRANCH  19  20
ENDBRANCH  18  19
ENDBRANCH  14  15
ENDBRANCH  12  13
TORSDOF 6
ENDMDL
MODEL 4
REMARK VINA RESULT:      -7.9      8.215      9.227
REMARK  Name = C:\Users\Docking\Desktop\test protocol\1iep_ligandH.pdb
REMARK  8 active torsions:
REMARK  status: ('A' for Active; 'I' for Inactive)
REMARK    1  A    between atoms: _5  and  _11
REMARK    2  A    between atoms: _19  and  _21
REMARK    3  A    between atoms: _22  and  _66
REMARK    4  A    between atoms: _27  and  _30
REMARK    5  A    between atoms: _32  and  _33
REMARK    6  A    between atoms: _38  and  _43
REMARK    7  A    between atoms: _43  and  _46
REMARK    8  A    between atoms: _53  and  _55
REMARK                            x       y       z     vdW  Elec       q    Type
REMARK                         _______ _______ _______ _____ _____    ______ ____
ROOT
ATOM     10  C   UNL     1      30.367   5.057  22.117  0.00  0.00    +0.038 A 
ATOM     11  C   UNL     1      30.599   5.004  20.719  0.00  0.00    +0.047 A 
ATOM     12  C   UNL     1      31.340   3.904  20.121  0.00  0.00    +0.035 A 
ATOM     32  C   UNL     1      31.828   2.874  20.977  0.00  0.00    +0.024 A 
ATOM     33  C   UNL     1      31.603   2.913  22.400  0.00  0.00    +0.007 A 
ATOM     34  C   UNL     1      30.875   3.997  22.996  0.00  0.00    -0.029 A 
ATOM     35  C   UNL     1      30.668   3.991  24.529  0.00  0.00    +0.045 C 
ENDROOT
BRANCH  10   9
ATOM      4  C   UNL     1      30.117   9.235  24.467  0.00  0.00    +0.077 A 
ATOM      5  C   UNL     1      31.533   9.256  24.700  0.00  0.00    +0.048 A 
ATOM      6  C   UNL     1      32.288   8.170  24.205  0.00  0.00    +0.116 A 
ATOM      7  N   UNL     1      31.664   7.144  23.529  0.00  0.00    -0.223 NA
ATOM      8  C   UNL     1      30.297   7.154  23.322  0.00  0.00    +0.220 A 
ATOM      9  N   UNL     1      29.650   6.137  22.638  0.00  0.00    -0.283 N 
ATOM     36  H   UNL     1      28.638   6.177  22.513  0.00  0.00    +0.155 HD
ATOM     37  N   UNL     1      29.553   8.179  23.786  0.00  0.00    -0.214 NA
BRANCH   4   3
ATOM      1  C   UNL     1      27.001  11.571  24.826  0.00  0.00    +0.020 A 
ATOM      2  C   UNL     1      27.863  10.516  24.346  0.00  0.00    +0.013 A 
ATOM      3  C   UNL     1      29.185  10.313  24.925  0.00  0.00    +0.019 A 
ATOM     38  C   UNL     1      29.607  11.202  25.997  0.00  0.00    +0.120 A 
ATOM     39  N   UNL     1      28.756  12.211  26.437  0.00  0.00    -0.263 NA
ATOM     40  C   UNL     1      27.482  12.417  25.886  0.00  0.00    +0.111 A 
ENDBRANCH   4   3
ENDBRANCH  10   9
BRANCH  12  13
ATOM     13  N   UNL     1      31.613   3.800  18.709  0.00  0.00    -0.281 N 
ATOM     14  C   UNL     1      32.382   4.645  17.926  0.00  0.00    +0.248 C 
ATOM     30  O   UNL     1      32.779   5.745  18.280  0.00  0.00    -0.270 OA
ATOM     31  H   UNL     1      31.189   3.006  18.229  0.00  0.00    +0.155 HD
BRANCH  14  15
ATOM     15  C   UNL     1      32.751   4.213  16.543  0.00  0.00    +0.037 A 
ATOM     16  C   UNL     1      34.131   4.304  16.061  0.00  0.00    +0.013 A 
ATOM     17  C   UNL     1      34.457   3.896  14.718  0.00  0.00    +0.005 A 
ATOM     18  C   UNL     1      33.398   3.391  13.847  0.00  0.00    -0.033 A 
ATOM     28  C   UNL     1      32.038   3.306  14.352  0.00  0.00    +0.005 A 
ATOM     29  C   UNL     1      31.715   3.706  15.668  0.00  0.00    +0.013 A 
BRANCH  18  19
ATOM     19  C   UNL     1      33.651   2.952  12.392  0.00  0.00    +0.119 C 
BRANCH  19  20
ATOM     20  N   UNL     1      33.154   3.855  11.310  0.00  0.00    -0.302 NA
ATOM     21  C   UNL     1      31.986   3.236  10.537  0.00  0.00    +0.066 C 
ATOM     22  C   UNL     1      31.464   4.202   9.424  0.00  0.00    -0.064 C 
ATOM     23  N   UNL     1      32.614   4.554   8.478  0.00  0.00    +0.379 N 
ATOM     24  C   UNL     1      32.114   5.416   7.398  0.00  0.00    -0.096 C 
ATOM     25  H   UNL     1      32.973   3.605   8.016  0.00  0.00    -0.082 HD
ATOM     26  C   UNL     1      33.781   5.167   9.239  0.00  0.00    -0.064 C 
ATOM     27  C   UNL     1      34.272   4.211  10.362  0.00  0.00    +0.066 C 
ENDBRANCH  19  20
ENDBRANCH  18  19
ENDBRANCH  14  15
ENDBRANCH  12  13
TORSDOF 6
ENDMDL
MODEL 5
REMARK VINA RESULT:      -7.9      9.820     14.580
REMARK  Name = C:\Users\Docking\Desktop\test protocol\1iep_ligandH.pdb
REMARK  8 active torsions:
REMARK  status: ('A' for Active; 'I' for Inactive)
REMARK    1  A    between atoms: _5  and  _11
REMARK    2  A    between atoms: _19  and  _21
REMARK    3  A    between atoms: _22  and  _66
REMARK    4  A    between atoms: _27  and  _30
REMARK    5  A    between atoms: _32  and  _33
REMARK    6  A    between atoms: _38  and  _43
REMARK    7  A    between atoms: _43  and  _46
REMARK    8  A    between atoms: _53  and  _55
REMARK                            x       y       z     vdW  Elec       q    Type
REMARK                         _______ _______ _______ _____ _____    ______ ____
ROOT
ATOM     10  C   UNL     1      40.413  12.115   8.414  0.00  0.00    +0.038 A 
ATOM     11  C   UNL     1      41.037  12.509   7.203  0.00  0.00    +0.047 A 
ATOM     12  C   UNL     1      42.284  13.259   7.209  0.00  0.00    +0.035 A 
ATOM     32  C   UNL     1      42.869  13.588   8.467  0.00  0.00    +0.024 A 
ATOM     33  C   UNL     1      42.247  13.195   9.707  0.00  0.00    +0.007 A 
ATOM     34  C   UNL     1      41.016  12.458   9.708  0.00  0.00    -0.029 A 
ATOM     35  C   UNL     1      40.391  12.069  11.068  0.00  0.00    +0.045 C 
ENDROOT
BRANCH  10   9
ATOM      4  C   UNL     1      37.955   8.024   7.907  0.00  0.00    +0.077 A 
ATOM      5  C   UNL     1      39.154   7.256   7.727  0.00  0.00    +0.048 A 
ATOM      6  C   UNL     1      40.382   7.954   7.766  0.00  0.00    +0.116 A 
ATOM      7  N   UNL     1      40.398   9.316   7.969  0.00  0.00    -0.223 NA
ATOM      8  C   UNL     1      39.224  10.027   8.136  0.00  0.00    +0.220 A 
ATOM      9  N   UNL     1      39.217  11.396   8.350  0.00  0.00    -0.283 N 
ATOM     36  H   UNL     1      38.329  11.885   8.462  0.00  0.00    +0.155 HD
ATOM     37  N   UNL     1      38.038   9.384   8.103  0.00  0.00    -0.214 NA
BRANCH   4   3
ATOM      1  C   UNL     1      34.091   7.548   8.285  0.00  0.00    +0.020 A 
ATOM      2  C   UNL     1      35.395   8.167   8.316  0.00  0.00    +0.013 A 
ATOM      3  C   UNL     1      36.580   7.430   7.895  0.00  0.00    +0.019 A 
ATOM     38  C   UNL     1      36.409   6.057   7.444  0.00  0.00    +0.120 A 
ATOM     39  N   UNL     1      35.140   5.486   7.427  0.00  0.00    -0.263 NA
ATOM     40  C   UNL     1      33.993   6.185   7.831  0.00  0.00    +0.111 A 
ENDBRANCH   4   3
ENDBRANCH  10   9
BRANCH  12  13
ATOM     13  N   UNL     1      42.960  13.694   6.012  0.00  0.00    -0.281 N 
ATOM     14  C   UNL     1      43.883  12.994   5.253  0.00  0.00    +0.248 C 
ATOM     30  O   UNL     1      44.431  11.962   5.611  0.00  0.00    -0.270 OA
ATOM     31  H   UNL     1      42.729  14.632   5.684  0.00  0.00    +0.155 HD
BRANCH  14  15
ATOM     15  C   UNL     1      44.264  13.524   3.909  0.00  0.00    +0.037 A 
ATOM     16  C   UNL     1      45.346  14.500   3.755  0.00  0.00    +0.013 A 
ATOM     17  C   UNL     1      45.682  15.008   2.449  0.00  0.00    +0.005 A 
ATOM     18  C   UNL     1      44.934  14.540   1.284  0.00  0.00    -0.033 A 
ATOM     28  C   UNL     1      43.868  13.568   1.465  0.00  0.00    +0.005 A 
ATOM     29  C   UNL     1      43.536  13.068   2.744  0.00  0.00    +0.013 A 
BRANCH  18  19
ATOM     19  C   UNL     1      45.209  15.044  -0.145  0.00  0.00    +0.119 C 
BRANCH  19  20
ATOM     20  N   UNL     1      46.596  14.878  -0.673  0.00  0.00    -0.302 NA
ATOM     21  C   UNL     1      47.375  16.197  -0.665  0.00  0.00    +0.066 C 
ATOM     22  C   UNL     1      48.832  16.001  -1.200  0.00  0.00    -0.064 C 
ATOM     23  N   UNL     1      48.779  15.410  -2.610  0.00  0.00    +0.379 N 
ATOM     24  C   UNL     1      50.145  15.279  -3.138  0.00  0.00    -0.096 C 
ATOM     25  H   UNL     1      48.234  16.134  -3.259  0.00  0.00    -0.082 HD
ATOM     26  C   UNL     1      48.004  14.100  -2.627  0.00  0.00    -0.064 C 
ATOM     27  C   UNL     1      46.568  14.301  -2.066  0.00  0.00    +0.066 C 
ENDBRANCH  19  20
ENDBRANCH  18  19
ENDBRANCH  14  15
ENDBRANCH  12  13
TORSDOF 6
ENDMDL
