MODEL 1
REMARK VINA RESULT:      -9.3      0.000      0.000
REMARK  Name = C:\Users\Docking\Desktop\test protocol\1iep_ligandH.pdb
REMARK  8 active torsions:
REMARK  status: ('A' for Active; 'I' for Inactive)
REMARK    1  A    between atoms: _5  and  _11
REMARK    2  A    between atoms: _19  and  _21
REMARK    3  A    between atoms: _22  and  _66
REMARK    4  A    between atoms: _27  and  _30
REMARK    5  A    between atoms: _32  and  _33
REMARK    6  A    between atoms: _38  and  _43
REMARK    7  A    between atoms: _43  and  _46
REMARK    8  A    between atoms: _53  and  _55
REMARK                            x       y       z     vdW  Elec       q    Type
REMARK                         _______ _______ _______ _____ _____    ______ ____
ROOT
ATOM     10  C   UNL     1      46.782 -10.611  -4.303  0.00  0.00    +0.038 A 
ATOM     11  C   UNL     1      45.587 -10.779  -3.558  0.00  0.00    +0.047 A 
ATOM     12  C   UNL     1      45.205  -9.829  -2.525  0.00  0.00    +0.035 A 
ATOM     32  C   UNL     1      46.062  -8.717  -2.278  0.00  0.00    +0.024 A 
ATOM     33  C   UNL     1      47.281  -8.532  -3.026  0.00  0.00    +0.007 A 
ATOM     34  C   UNL     1      47.665  -9.467  -4.044  0.00  0.00    -0.029 A 
ATOM     35  C   UNL     1      48.986  -9.222  -4.810  0.00  0.00    +0.045 C 
ENDROOT
BRANCH  10   9
ATOM      4  C   UNL     1      46.674 -12.217  -8.825  0.00  0.00    +0.077 A 
ATOM      5  C   UNL     1      45.894 -11.097  -9.266  0.00  0.00    +0.048 A 
ATOM      6  C   UNL     1      45.536 -10.133  -8.297  0.00  0.00    +0.116 A 
ATOM      7  N   UNL     1      45.933 -10.288  -6.987  0.00  0.00    -0.223 NA
ATOM      8  C   UNL     1      46.683 -11.382  -6.594  0.00  0.00    +0.220 A 
ATOM      9  N   UNL     1      47.100 -11.554  -5.283  0.00  0.00    -0.283 N 
ATOM     36  H   UNL     1      47.646 -12.378  -5.032  0.00  0.00    +0.155 HD
ATOM     37  N   UNL     1      47.037 -12.316  -7.500  0.00  0.00    -0.214 NA
BRANCH   4   3
ATOM      1  C   UNL     1      48.235 -15.545 -10.162  0.00  0.00    +0.020 A 
ATOM      2  C   UNL     1      47.812 -14.512  -9.245  0.00  0.00    +0.013 A 
ATOM      3  C   UNL     1      47.133 -13.317  -9.730  0.00  0.00    +0.019 A 
ATOM     38  C   UNL     1      46.895 -13.198 -11.161  0.00  0.00    +0.120 A 
ATOM     39  N   UNL     1      47.314 -14.209 -12.020  0.00  0.00    -0.263 NA
ATOM     40  C   UNL     1      47.970 -15.362 -11.565  0.00  0.00    +0.111 A 
ENDBRANCH   4   3
ENDBRANCH  10   9
BRANCH  12  13
ATOM     13  N   UNL     1      44.008  -9.951  -1.730  0.00  0.00    -0.281 N 
ATOM     14  C   UNL     1      43.812 -10.725  -0.598  0.00  0.00    +0.248 C 
ATOM     30  O   UNL     1      44.578 -11.599  -0.217  0.00  0.00    -0.270 OA
ATOM     31  H   UNL     1      43.207  -9.401  -2.041  0.00  0.00    +0.155 HD
BRANCH  14  15
ATOM     15  C   UNL     1      42.582 -10.507   0.222  0.00  0.00    +0.037 A 
ATOM     16  C   UNL     1      42.500  -9.413   1.193  0.00  0.00    +0.013 A 
ATOM     17  C   UNL     1      41.308  -9.235   1.984  0.00  0.00    +0.005 A 
ATOM     18  C   UNL     1      40.187 -10.154   1.805  0.00  0.00    -0.033 A 
ATOM     28  C   UNL     1      40.293 -11.228   0.831  0.00  0.00    +0.005 A 
ATOM     29  C   UNL     1      41.460 -11.406   0.055  0.00  0.00    +0.013 A 
BRANCH  18  19
ATOM     19  C   UNL     1      38.884 -10.053   2.621  0.00  0.00    +0.119 C 
BRANCH  19  20
ATOM     20  N   UNL     1      37.916  -8.984   2.232  0.00  0.00    -0.302 NA
ATOM     21  C   UNL     1      36.492  -9.303   2.698  0.00  0.00    +0.066 C 
ATOM     22  C   UNL     1      35.496  -8.164   2.303  0.00  0.00    -0.064 C 
ATOM     23  N   UNL     1      35.538  -7.957   0.788  0.00  0.00    +0.379 N 
ATOM     24  C   UNL     1      34.560  -6.927   0.407  0.00  0.00    -0.096 C 
ATOM     25  H   UNL     1      35.226  -8.913   0.307  0.00  0.00    -0.082 HD
ATOM     26  C   UNL     1      36.950  -7.643   0.316  0.00  0.00    -0.064 C 
ATOM     27  C   UNL     1      37.937  -8.766   0.740  0.00  0.00    +0.066 C 
ENDBRANCH  19  20
ENDBRANCH  18  19
ENDBRANCH  14  15
ENDBRANCH  12  13
TORSDOF 6
ENDMDL
MODEL 2
REMARK VINA RESULT:      -8.5      6.107      7.480
REMARK  Name = C:\Users\Docking\Desktop\test protocol\1iep_ligandH.pdb
REMARK  8 active torsions:
REMARK  status: ('A' for Active; 'I' for Inactive)
REMARK    1  A    between atoms: _5  and  _11
REMARK    2  A    between atoms: _19  and  _21
REMARK    3  A    between atoms: _22  and  _66
REMARK    4  A    between atoms: _27  and  _30
REMARK    5  A    between atoms: _32  and  _33
REMARK    6  A    between atoms: _38  and  _43
REMARK    7  A    between atoms: _43  and  _46
REMARK    8  A    between atoms: _53  and  _55
REMARK                            x       y       z     vdW  Elec       q    Type
REMARK                         _______ _______ _______ _____ _____    ______ ____
ROOT
ATOM     10  C   UNL     1      44.448  -8.652  -7.251  0.00  0.00    +0.038 A 
ATOM     11  C   UNL     1      43.123  -8.193  -7.459  0.00  0.00    +0.047 A 
ATOM     12  C   UNL     1      42.597  -7.054  -6.722  0.00  0.00    +0.035 A 
ATOM     32  C   UNL     1      43.450  -6.405  -5.783  0.00  0.00    +0.024 A 
ATOM     33  C   UNL     1      44.800  -6.859  -5.558  0.00  0.00    +0.007 A 
ATOM     34  C   UNL     1      45.323  -7.984  -6.280  0.00  0.00    -0.029 A 
ATOM     35  C   UNL     1      46.775  -8.431  -5.994  0.00  0.00    +0.045 C 
ENDROOT
BRANCH  10   9
ATOM      4  C   UNL     1      46.638 -10.583 -11.060  0.00  0.00    +0.077 A 
ATOM      5  C   UNL     1      46.875  -9.297 -11.650  0.00  0.00    +0.048 A 
ATOM      6  C   UNL     1      46.412  -8.164 -10.944  0.00  0.00    +0.116 A 
ATOM      7  N   UNL     1      45.761  -8.318  -9.739  0.00  0.00    -0.223 NA
ATOM      8  C   UNL     1      45.547  -9.573  -9.200  0.00  0.00    +0.220 A 
ATOM      9  N   UNL     1      44.902  -9.750  -7.985  0.00  0.00    -0.283 N 
ATOM     36  H   UNL     1      44.757 -10.693  -7.625  0.00  0.00    +0.155 HD
ATOM     37  N   UNL     1      45.979 -10.670  -9.855  0.00  0.00    -0.214 NA
BRANCH   4   3
ATOM      1  C   UNL     1      47.226 -14.392 -11.733  0.00  0.00    +0.020 A 
ATOM      2  C   UNL     1      46.786 -13.175 -11.090  0.00  0.00    +0.013 A 
ATOM      3  C   UNL     1      47.071 -11.874 -11.683  0.00  0.00    +0.019 A 
ATOM     38  C   UNL     1      47.808 -11.839 -12.937  0.00  0.00    +0.120 A 
ATOM     39  N   UNL     1      48.221 -13.028 -13.532  0.00  0.00    -0.263 NA
ATOM     40  C   UNL     1      47.953 -14.285 -12.970  0.00  0.00    +0.111 A 
ENDBRANCH   4   3
ENDBRANCH  10   9
BRANCH  12  13
ATOM     13  N   UNL     1      41.257  -6.548  -6.885  0.00  0.00    -0.281 N 
ATOM     14  C   UNL     1      40.747  -5.812  -7.942  0.00  0.00    +0.248 C 
ATOM     30  O   UNL     1      41.428  -5.292  -8.813  0.00  0.00    -0.270 OA
ATOM     31  H   UNL     1      40.604  -6.758  -6.129  0.00  0.00    +0.155 HD
BRANCH  14  15
ATOM     15  C   UNL     1      39.269  -5.612  -8.037  0.00  0.00    +0.037 A 
ATOM     16  C   UNL     1      38.377  -6.008  -6.944  0.00  0.00    +0.013 A 
ATOM     17  C   UNL     1      36.953  -5.820  -7.068  0.00  0.00    +0.005 A 
ATOM     18  C   UNL     1      36.412  -5.232  -8.291  0.00  0.00    -0.033 A 
ATOM     28  C   UNL     1      37.320  -4.843  -9.358  0.00  0.00    +0.005 A 
ATOM     29  C   UNL     1      38.716  -5.027  -9.240  0.00  0.00    +0.013 A 
BRANCH  18  19
ATOM     19  C   UNL     1      34.905  -5.014  -8.519  0.00  0.00    +0.119 C 
BRANCH  19  20
ATOM     20  N   UNL     1      34.095  -4.563  -7.348  0.00  0.00    -0.302 NA
ATOM     21  C   UNL     1      33.186  -5.674  -6.816  0.00  0.00    +0.066 C 
ATOM     22  C   UNL     1      32.362  -5.192  -5.577  0.00  0.00    -0.064 C 
ATOM     23  N   UNL     1      31.542  -3.959  -5.963  0.00  0.00    +0.379 N 
ATOM     24  C   UNL     1      30.722  -3.538  -4.817  0.00  0.00    -0.096 C 
ATOM     25  H   UNL     1      30.849  -4.258  -6.783  0.00  0.00    -0.082 HD
ATOM     26  C   UNL     1      32.438  -2.850  -6.496  0.00  0.00    -0.064 C 
ATOM     27  C   UNL     1      33.273  -3.349  -7.708  0.00  0.00    +0.066 C 
ENDBRANCH  19  20
ENDBRANCH  18  19
ENDBRANCH  14  15
ENDBRANCH  12  13
TORSDOF 6
ENDMDL
MODEL 3
REMARK VINA RESULT:      -8.5      6.570      8.135
REMARK  Name = C:\Users\Docking\Desktop\test protocol\1iep_ligandH.pdb
REMARK  8 active torsions:
REMARK  status: ('A' for Active; 'I' for Inactive)
REMARK    1  A    between atoms: _5  and  _11
REMARK    2  A    between atoms: _19  and  _21
REMARK    3  A    between atoms: _22  and  _66
REMARK    4  A    between atoms: _27  and  _30
REMARK    5  A    between atoms: _32  and  _33
REMARK    6  A    between atoms: _38  and  _43
REMARK    7  A    between atoms: _43  and  _46
REMARK    8  A    between atoms: _53  and  _55
REMARK                            x       y       z     vdW  Elec       q    Type
REMARK                         _______ _______ _______ _____ _____    ______ ____
ROOT
ATOM     10  C   UNL     1      44.475  -9.192  -7.605  0.00  0.00    +0.038 A 
ATOM     11  C   UNL     1      43.264  -8.652  -8.107  0.00  0.00    +0.047 A 
ATOM     12  C   UNL     1      42.602  -7.541  -7.441  0.00  0.00    +0.035 A 
ATOM     32  C   UNL     1      43.203  -7.002  -6.267  0.00  0.00    +0.024 A 
ATOM     33  C   UNL     1      44.434  -7.540  -5.741  0.00  0.00    +0.007 A 
ATOM     34  C   UNL     1      45.090  -8.637  -6.393  0.00  0.00    -0.029 A 
ATOM     35  C   UNL     1      46.403  -9.178  -5.781  0.00  0.00    +0.045 C 
ENDROOT
BRANCH  10   9
ATOM      4  C   UNL     1      47.100 -10.985 -11.201  0.00  0.00    +0.077 A 
ATOM      5  C   UNL     1      47.284  -9.691 -11.791  0.00  0.00    +0.048 A 
ATOM      6  C   UNL     1      46.681  -8.590 -11.142  0.00  0.00    +0.116 A 
ATOM      7  N   UNL     1      45.951  -8.782  -9.989  0.00  0.00    -0.223 NA
ATOM      8  C   UNL     1      45.791 -10.044  -9.447  0.00  0.00    +0.220 A 
ATOM      9  N   UNL     1      45.068 -10.259  -8.284  0.00  0.00    -0.283 N 
ATOM     36  H   UNL     1      44.967 -11.206  -7.921  0.00  0.00    +0.155 HD
ATOM     37  N   UNL     1      46.356 -11.111 -10.049  0.00  0.00    -0.214 NA
BRANCH   4   3
ATOM      1  C   UNL     1      49.542 -13.567 -12.837  0.00  0.00    +0.020 A 
ATOM      2  C   UNL     1      49.031 -12.325 -12.301  0.00  0.00    +0.013 A 
ATOM      3  C   UNL     1      47.678 -12.245 -11.767  0.00  0.00    +0.019 A 
ATOM     38  C   UNL     1      46.860 -13.448 -11.789  0.00  0.00    +0.120 A 
ATOM     39  N   UNL     1      47.378 -14.629 -12.312  0.00  0.00    -0.263 NA
ATOM     40  C   UNL     1      48.678 -14.718 -12.830  0.00  0.00    +0.111 A 
ENDBRANCH   4   3
ENDBRANCH  10   9
BRANCH  12  13
ATOM     13  N   UNL     1      41.367  -6.956  -7.901  0.00  0.00    -0.281 N 
ATOM     14  C   UNL     1      40.090  -7.487  -7.816  0.00  0.00    +0.248 C 
ATOM     30  O   UNL     1      39.842  -8.647  -7.522  0.00  0.00    -0.270 OA
ATOM     31  H   UNL     1      41.443  -6.039  -8.342  0.00  0.00    +0.155 HD
BRANCH  14  15
ATOM     15  C   UNL     1      38.920  -6.605  -8.115  0.00  0.00    +0.037 A 
ATOM     16  C   UNL     1      38.781  -5.942  -9.414  0.00  0.00    +0.013 A 
ATOM     17  C   UNL     1      37.651  -5.084  -9.670  0.00  0.00    +0.005 A 
ATOM     18  C   UNL     1      36.651  -4.885  -8.624  0.00  0.00    -0.033 A 
ATOM     28  C   UNL     1      36.812  -5.559  -7.346  0.00  0.00    +0.005 A 
ATOM     29  C   UNL     1      37.918  -6.400  -7.091  0.00  0.00    +0.013 A 
BRANCH  18  19
ATOM     19  C   UNL     1      35.425  -3.970  -8.802  0.00  0.00    +0.119 C 
BRANCH  19  20
ATOM     20  N   UNL     1      34.116  -4.629  -9.090  0.00  0.00    -0.302 NA
ATOM     21  C   UNL     1      33.452  -4.062 -10.348  0.00  0.00    +0.066 C 
ATOM     22  C   UNL     1      32.095  -4.778 -10.647  0.00  0.00    -0.064 C 
ATOM     23  N   UNL     1      31.170  -4.638  -9.436  0.00  0.00    +0.379 N 
ATOM     24  C   UNL     1      29.872  -5.260  -9.736  0.00  0.00    -0.096 C 
ATOM     25  H   UNL     1      30.994  -3.550  -9.270  0.00  0.00    -0.082 HD
ATOM     26  C   UNL     1      31.824  -5.197  -8.180  0.00  0.00    -0.064 C 
ATOM     27  C   UNL     1      33.186  -4.499  -7.909  0.00  0.00    +0.066 C 
ENDBRANCH  19  20
ENDBRANCH  18  19
ENDBRANCH  14  15
ENDBRANCH  12  13
TORSDOF 6
ENDMDL
MODEL 4
REMARK VINA RESULT:      -8.0      6.360      7.825
REMARK  Name = C:\Users\Docking\Desktop\test protocol\1iep_ligandH.pdb
REMARK  8 active torsions:
REMARK  status: ('A' for Active; 'I' for Inactive)
REMARK    1  A    between atoms: _5  and  _11
REMARK    2  A    between atoms: _19  and  _21
REMARK    3  A    between atoms: _22  and  _66
REMARK    4  A    between atoms: _27  and  _30
REMARK    5  A    between atoms: _32  and  _33
REMARK    6  A    between atoms: _38  and  _43
REMARK    7  A    between atoms: _43  and  _46
REMARK    8  A    between atoms: _53  and  _55
REMARK                            x       y       z     vdW  Elec       q    Type
REMARK                         _______ _______ _______ _____ _____    ______ ____
ROOT
ATOM     10  C   UNL     1      45.706  -7.846  -6.518  0.00  0.00    +0.038 A 
ATOM     11  C   UNL     1      44.574  -7.369  -7.227  0.00  0.00    +0.047 A 
ATOM     12  C   UNL     1      43.515  -6.637  -6.549  0.00  0.00    +0.035 A 
ATOM     32  C   UNL     1      43.643  -6.407  -5.148  0.00  0.00    +0.024 A 
ATOM     33  C   UNL     1      44.786  -6.886  -4.412  0.00  0.00    +0.007 A 
ATOM     34  C   UNL     1      45.833  -7.610  -5.075  0.00  0.00    -0.029 A 
ATOM     35  C   UNL     1      47.033  -8.106  -4.234  0.00  0.00    +0.045 C 
ENDROOT
BRANCH  10   9
ATOM      4  C   UNL     1      47.625 -11.904  -8.218  0.00  0.00    +0.077 A 
ATOM      5  C   UNL     1      46.588 -12.707  -7.637  0.00  0.00    +0.048 A 
ATOM      6  C   UNL     1      45.583 -12.038  -6.902  0.00  0.00    +0.116 A 
ATOM      7  N   UNL     1      45.623 -10.667  -6.766  0.00  0.00    -0.223 NA
ATOM      8  C   UNL     1      46.638  -9.923  -7.337  0.00  0.00    +0.220 A 
ATOM      9  N   UNL     1      46.693  -8.542  -7.220  0.00  0.00    -0.283 N 
ATOM     36  H   UNL     1      47.462  -8.030  -7.650  0.00  0.00    +0.155 HD
ATOM     37  N   UNL     1      47.610 -10.538  -8.043  0.00  0.00    -0.214 NA
BRANCH   4   3
ATOM      1  C   UNL     1      50.988 -13.615  -9.247  0.00  0.00    +0.020 A 
ATOM      2  C   UNL     1      49.925 -13.089  -8.422  0.00  0.00    +0.013 A 
ATOM      3  C   UNL     1      48.754 -12.464  -9.025  0.00  0.00    +0.019 A 
ATOM     38  C   UNL     1      48.689 -12.388 -10.477  0.00  0.00    +0.120 A 
ATOM     39  N   UNL     1      49.729 -12.901 -11.245  0.00  0.00    -0.263 NA
ATOM     40  C   UNL     1      50.862 -13.503 -10.677  0.00  0.00    +0.111 A 
ENDBRANCH   4   3
ENDBRANCH  10   9
BRANCH  12  13
ATOM     13  N   UNL     1      42.338  -6.136  -7.215  0.00  0.00    -0.281 N 
ATOM     14  C   UNL     1      41.225  -6.848  -7.628  0.00  0.00    +0.248 C 
ATOM     30  O   UNL     1      41.164  -8.068  -7.678  0.00  0.00    -0.270 OA
ATOM     31  H   UNL     1      42.325  -5.133  -7.404  0.00  0.00    +0.155 HD
BRANCH  14  15
ATOM     15  C   UNL     1      40.007  -6.098  -8.060  0.00  0.00    +0.037 A 
ATOM     16  C   UNL     1      39.724  -5.860  -9.478  0.00  0.00    +0.013 A 
ATOM     17  C   UNL     1      38.551  -5.118  -9.868  0.00  0.00    +0.005 A 
ATOM     18  C   UNL     1      37.650  -4.609  -8.836  0.00  0.00    -0.033 A 
ATOM     28  C   UNL     1      37.952  -4.864  -7.437  0.00  0.00    +0.005 A 
ATOM     29  C   UNL     1      39.101  -5.590  -7.052  0.00  0.00    +0.013 A 
BRANCH  18  19
ATOM     19  C   UNL     1      36.387  -3.790  -9.159  0.00  0.00    +0.119 C 
BRANCH  19  20
ATOM     20  N   UNL     1      35.072  -4.487  -9.044  0.00  0.00    -0.302 NA
ATOM     21  C   UNL     1      34.196  -4.271 -10.282  0.00  0.00    +0.066 C 
ATOM     22  C   UNL     1      32.833  -5.026 -10.154  0.00  0.00    -0.064 C 
ATOM     23  N   UNL     1      32.110  -4.557  -8.891  0.00  0.00    +0.379 N 
ATOM     24  C   UNL     1      30.802  -5.222  -8.798  0.00  0.00    -0.096 C 
ATOM     25  H   UNL     1      31.926  -3.462  -8.993  0.00  0.00    -0.082 HD
ATOM     26  C   UNL     1      32.974  -4.766  -7.655  0.00  0.00    -0.064 C 
ATOM     27  C   UNL     1      34.338  -4.036  -7.805  0.00  0.00    +0.066 C 
ENDBRANCH  19  20
ENDBRANCH  18  19
ENDBRANCH  14  15
ENDBRANCH  12  13
TORSDOF 6
ENDMDL
MODEL 5
REMARK VINA RESULT:      -7.7      7.162     12.836
REMARK  Name = C:\Users\Docking\Desktop\test protocol\1iep_ligandH.pdb
REMARK  8 active torsions:
REMARK  status: ('A' for Active; 'I' for Inactive)
REMARK    1  A    between atoms: _5  and  _11
REMARK    2  A    between atoms: _19  and  _21
REMARK    3  A    between atoms: _22  and  _66
REMARK    4  A    between atoms: _27  and  _30
REMARK    5  A    between atoms: _32  and  _33
REMARK    6  A    between atoms: _38  and  _43
REMARK    7  A    between atoms: _43  and  _46
REMARK    8  A    between atoms: _53  and  _55
REMARK                            x       y       z     vdW  Elec       q    Type
REMARK                         _______ _______ _______ _____ _____    ______ ____
ROOT
ATOM     10  C   UNL     1      48.605 -13.415  -3.880  0.00  0.00    +0.038 A 
ATOM     11  C   UNL     1      48.486 -13.480  -5.292  0.00  0.00    +0.047 A 
ATOM     12  C   UNL     1      47.627 -12.558  -6.019  0.00  0.00    +0.035 A 
ATOM     32  C   UNL     1      46.905 -11.579  -5.275  0.00  0.00    +0.024 A 
ATOM     33  C   UNL     1      47.013 -11.499  -3.840  0.00  0.00    +0.007 A 
ATOM     34  C   UNL     1      47.857 -12.408  -3.118  0.00  0.00    -0.029 A 
ATOM     35  C   UNL     1      47.930 -12.280  -1.578  0.00  0.00    +0.045 C 
ENDROOT
BRANCH  10   9
ATOM      4  C   UNL     1      52.879 -14.729  -2.136  0.00  0.00    +0.077 A 
ATOM      5  C   UNL     1      53.498 -13.511  -2.573  0.00  0.00    +0.048 A 
ATOM      6  C   UNL     1      52.684 -12.576  -3.249  0.00  0.00    +0.116 A 
ATOM      7  N   UNL     1      51.350 -12.848  -3.466  0.00  0.00    -0.223 NA
ATOM      8  C   UNL     1      50.785 -14.033  -3.033  0.00  0.00    +0.220 A 
ATOM      9  N   UNL     1      49.444 -14.325  -3.234  0.00  0.00    -0.283 N 
ATOM     36  H   UNL     1      49.067 -15.213  -2.905  0.00  0.00    +0.155 HD
ATOM     37  N   UNL     1      51.542 -14.944  -2.386  0.00  0.00    -0.214 NA
BRANCH   4   3
ATOM      1  C   UNL     1      55.508 -17.453  -1.150  0.00  0.00    +0.020 A 
ATOM      2  C   UNL     1      54.844 -16.408  -1.895  0.00  0.00    +0.013 A 
ATOM      3  C   UNL     1      53.607 -15.814  -1.405  0.00  0.00    +0.019 A 
ATOM     38  C   UNL     1      53.064 -16.304  -0.146  0.00  0.00    +0.120 A 
ATOM     39  N   UNL     1      53.724 -17.312   0.548  0.00  0.00    -0.263 NA
ATOM     40  C   UNL     1      54.914 -17.892   0.085  0.00  0.00    +0.111 A 
ENDBRANCH   4   3
ENDBRANCH  10   9
BRANCH  12  13
ATOM     13  N   UNL     1      47.461 -12.582  -7.451  0.00  0.00    -0.281 N 
ATOM     14  C   UNL     1      48.132 -11.828  -8.399  0.00  0.00    +0.248 C 
ATOM     30  O   UNL     1      48.831 -10.859  -8.143  0.00  0.00    -0.270 OA
ATOM     31  H   UNL     1      46.763 -13.235  -7.809  0.00  0.00    +0.155 HD
BRANCH  14  15
ATOM     15  C   UNL     1      47.996 -12.194  -9.842  0.00  0.00    +0.037 A 
ATOM     16  C   UNL     1      48.772 -11.507 -10.877  0.00  0.00    +0.013 A 
ATOM     17  C   UNL     1      48.609 -11.868 -12.263  0.00  0.00    +0.005 A 
ATOM     18  C   UNL     1      47.665 -12.923 -12.621  0.00  0.00    -0.033 A 
ATOM     28  C   UNL     1      46.911 -13.591 -11.574  0.00  0.00    +0.005 A 
ATOM     29  C   UNL     1      47.067 -13.240 -10.214  0.00  0.00    +0.013 A 
BRANCH  18  19
ATOM     19  C   UNL     1      47.410 -13.359 -14.076  0.00  0.00    +0.119 C 
BRANCH  19  20
ATOM     20  N   UNL     1      46.892 -12.323 -15.020  0.00  0.00    -0.302 NA
ATOM     21  C   UNL     1      45.599 -11.680 -14.512  0.00  0.00    +0.066 C 
ATOM     22  C   UNL     1      45.083 -10.583 -15.500  0.00  0.00    -0.064 C 
ATOM     23  N   UNL     1      44.873 -11.204 -16.882  0.00  0.00    +0.379 N 
ATOM     24  C   UNL     1      44.333 -10.189 -17.799  0.00  0.00    -0.096 C 
ATOM     25  H   UNL     1      44.108 -12.008 -16.779  0.00  0.00    -0.082 HD
ATOM     26  C   UNL     1      46.154 -11.849 -17.393  0.00  0.00    -0.064 C 
ATOM     27  C   UNL     1      46.674 -12.916 -16.390  0.00  0.00    +0.066 C 
ENDBRANCH  19  20
ENDBRANCH  18  19
ENDBRANCH  14  15
ENDBRANCH  12  13
TORSDOF 6
ENDMDL
