MODEL 1
REMARK VINA RESULT:      -8.4      0.000      0.000
REMARK  Name = C:\Users\Docking\Desktop\test protocol\1iep_ligandH.pdb
REMARK  8 active torsions:
REMARK  status: ('A' for Active; 'I' for Inactive)
REMARK    1  A    between atoms: _5  and  _11
REMARK    2  A    between atoms: _19  and  _21
REMARK    3  A    between atoms: _22  and  _66
REMARK    4  A    between atoms: _27  and  _30
REMARK    5  A    between atoms: _32  and  _33
REMARK    6  A    between atoms: _38  and  _43
REMARK    7  A    between atoms: _43  and  _46
REMARK    8  A    between atoms: _53  and  _55
REMARK                            x       y       z     vdW  Elec       q    Type
REMARK                         _______ _______ _______ _____ _____    ______ ____
ROOT
ATOM     10  C   UNL     1      25.402   5.078  42.944  0.00  0.00    +0.038 A 
ATOM     11  C   UNL     1      24.836   4.199  43.902  0.00  0.00    +0.047 A 
ATOM     12  C   UNL     1      24.698   2.777  43.630  0.00  0.00    +0.035 A 
ATOM     32  C   UNL     1      25.150   2.283  42.371  0.00  0.00    +0.024 A 
ATOM     33  C   UNL     1      25.726   3.163  41.385  0.00  0.00    +0.007 A 
ATOM     34  C   UNL     1      25.863   4.567  41.647  0.00  0.00    -0.029 A 
ATOM     35  C   UNL     1      26.483   5.464  40.550  0.00  0.00    +0.045 C 
ENDROOT
BRANCH  10   9
ATOM      4  C   UNL     1      23.873   9.620  42.676  0.00  0.00    +0.077 A 
ATOM      5  C   UNL     1      22.782   9.264  41.816  0.00  0.00    +0.048 A 
ATOM      6  C   UNL     1      22.653   7.903  41.460  0.00  0.00    +0.116 A 
ATOM      7  N   UNL     1      23.555   6.975  41.935  0.00  0.00    -0.223 NA
ATOM      8  C   UNL     1      24.597   7.352  42.762  0.00  0.00    +0.220 A 
ATOM      9  N   UNL     1      25.510   6.435  43.258  0.00  0.00    -0.283 N 
ATOM     36  H   UNL     1      26.270   6.754  43.859  0.00  0.00    +0.155 HD
ATOM     37  N   UNL     1      24.742   8.646  43.115  0.00  0.00    -0.214 NA
BRANCH   4   3
ATOM      1  C   UNL     1      23.396  13.260  44.025  0.00  0.00    +0.020 A 
ATOM      2  C   UNL     1      23.085  11.921  43.583  0.00  0.00    +0.013 A 
ATOM      3  C   UNL     1      24.140  11.017  43.143  0.00  0.00    +0.019 A 
ATOM     38  C   UNL     1      25.512  11.504  43.164  0.00  0.00    +0.120 A 
ATOM     39  N   UNL     1      25.781  12.800  43.593  0.00  0.00    -0.263 NA
ATOM     40  C   UNL     1      24.773  13.678  44.017  0.00  0.00    +0.111 A 
ENDBRANCH   4   3
ENDBRANCH  10   9
BRANCH  12  13
ATOM     13  N   UNL     1      24.124   1.838  44.561  0.00  0.00    -0.281 N 
ATOM     14  C   UNL     1      24.778   1.080  45.519  0.00  0.00    +0.248 C 
ATOM     30  O   UNL     1      25.990   0.937  45.577  0.00  0.00    -0.270 OA
ATOM     31  H   UNL     1      23.113   1.716  44.508  0.00  0.00    +0.155 HD
BRANCH  14  15
ATOM     15  C   UNL     1      23.968   0.368  46.553  0.00  0.00    +0.037 A 
ATOM     16  C   UNL     1      22.956   1.073  47.344  0.00  0.00    +0.013 A 
ATOM     17  C   UNL     1      22.200   0.366  48.347  0.00  0.00    +0.005 A 
ATOM     18  C   UNL     1      22.453  -1.056  48.564  0.00  0.00    -0.033 A 
ATOM     28  C   UNL     1      23.459  -1.732  47.762  0.00  0.00    +0.005 A 
ATOM     29  C   UNL     1      24.203  -1.042  46.779  0.00  0.00    +0.013 A 
BRANCH  18  19
ATOM     19  C   UNL     1      21.709  -1.886  49.628  0.00  0.00    +0.119 C 
BRANCH  19  20
ATOM     20  N   UNL     1      21.873  -1.474  51.054  0.00  0.00    -0.302 NA
ATOM     21  C   UNL     1      23.222  -0.794  51.304  0.00  0.00    +0.066 C 
ATOM     22  C   UNL     1      23.368  -0.350  52.796  0.00  0.00    -0.064 C 
ATOM     23  N   UNL     1      23.198  -1.568  53.706  0.00  0.00    +0.379 N 
ATOM     24  C   UNL     1      23.393  -1.164  55.106  0.00  0.00    -0.096 C 
ATOM     25  H   UNL     1      24.002  -2.297  53.449  0.00  0.00    -0.082 HD
ATOM     26  C   UNL     1      21.861  -2.252  53.462  0.00  0.00    -0.064 C 
ATOM     27  C   UNL     1      21.714  -2.662  51.970  0.00  0.00    +0.066 C 
ENDBRANCH  19  20
ENDBRANCH  18  19
ENDBRANCH  14  15
ENDBRANCH  12  13
TORSDOF 6
ENDMDL
MODEL 2
REMARK VINA RESULT:      -8.1     30.945     36.855
REMARK  Name = C:\Users\Docking\Desktop\test protocol\1iep_ligandH.pdb
REMARK  8 active torsions:
REMARK  status: ('A' for Active; 'I' for Inactive)
REMARK    1  A    between atoms: _5  and  _11
REMARK    2  A    between atoms: _19  and  _21
REMARK    3  A    between atoms: _22  and  _66
REMARK    4  A    between atoms: _27  and  _30
REMARK    5  A    between atoms: _32  and  _33
REMARK    6  A    between atoms: _38  and  _43
REMARK    7  A    between atoms: _43  and  _46
REMARK    8  A    between atoms: _53  and  _55
REMARK                            x       y       z     vdW  Elec       q    Type
REMARK                         _______ _______ _______ _____ _____    ______ ____
ROOT
ATOM     10  C   UNL     1      -0.519  23.108  37.951  0.00  0.00    +0.038 A 
ATOM     11  C   UNL     1      -0.835  24.464  37.684  0.00  0.00    +0.047 A 
ATOM     12  C   UNL     1      -0.310  25.537  38.514  0.00  0.00    +0.035 A 
ATOM     32  C   UNL     1       0.537  25.192  39.608  0.00  0.00    +0.024 A 
ATOM     33  C   UNL     1       0.868  23.819  39.894  0.00  0.00    +0.007 A 
ATOM     34  C   UNL     1       0.351  22.756  39.080  0.00  0.00    -0.029 A 
ATOM     35  C   UNL     1       0.734  21.301  39.438  0.00  0.00    +0.045 C 
ENDROOT
BRANCH  10   9
ATOM      4  C   UNL     1      -0.816  20.827  33.738  0.00  0.00    +0.077 A 
ATOM      5  C   UNL     1       0.149  21.698  33.132  0.00  0.00    +0.048 A 
ATOM      6  C   UNL     1       0.693  22.724  33.936  0.00  0.00    +0.116 A 
ATOM      7  N   UNL     1       0.294  22.860  35.248  0.00  0.00    -0.223 NA
ATOM      8  C   UNL     1      -0.640  22.005  35.802  0.00  0.00    +0.220 A 
ATOM      9  N   UNL     1      -1.050  22.118  37.121  0.00  0.00    -0.283 N 
ATOM     36  H   UNL     1      -1.747  21.472  37.490  0.00  0.00    +0.155 HD
ATOM     37  N   UNL     1      -1.176  21.017  35.054  0.00  0.00    -0.214 NA
BRANCH   4   3
ATOM      1  C   UNL     1      -2.781  18.727  31.086  0.00  0.00    +0.020 A 
ATOM      2  C   UNL     1      -2.157  19.855  31.739  0.00  0.00    +0.013 A 
ATOM      3  C   UNL     1      -1.479  19.693  33.019  0.00  0.00    +0.019 A 
ATOM     38  C   UNL     1      -1.448  18.366  33.616  0.00  0.00    +0.120 A 
ATOM     39  N   UNL     1      -2.059  17.299  32.964  0.00  0.00    -0.263 NA
ATOM     40  C   UNL     1      -2.716  17.443  31.733  0.00  0.00    +0.111 A 
ENDBRANCH   4   3
ENDBRANCH  10   9
BRANCH  12  13
ATOM     13  N   UNL     1      -0.603  26.932  38.296  0.00  0.00    -0.281 N 
ATOM     14  C   UNL     1      -0.431  27.667  37.135  0.00  0.00    +0.248 C 
ATOM     30  O   UNL     1       0.205  27.286  36.164  0.00  0.00    -0.270 OA
ATOM     31  H   UNL     1      -0.985  27.439  39.095  0.00  0.00    +0.155 HD
BRANCH  14  15
ATOM     15  C   UNL     1      -1.041  29.029  37.045  0.00  0.00    +0.037 A 
ATOM     16  C   UNL     1      -2.019  29.490  38.034  0.00  0.00    +0.013 A 
ATOM     17  C   UNL     1      -2.605  30.802  37.914  0.00  0.00    +0.005 A 
ATOM     18  C   UNL     1      -2.213  31.662  36.800  0.00  0.00    -0.033 A 
ATOM     28  C   UNL     1      -1.237  31.181  35.836  0.00  0.00    +0.005 A 
ATOM     29  C   UNL     1      -0.661  29.896  35.950  0.00  0.00    +0.013 A 
BRANCH  18  19
ATOM     19  C   UNL     1      -2.803  33.068  36.582  0.00  0.00    +0.119 C 
BRANCH  19  20
ATOM     20  N   UNL     1      -2.992  33.925  37.790  0.00  0.00    -0.302 NA
ATOM     21  C   UNL     1      -3.846  35.160  37.490  0.00  0.00    +0.066 C 
ATOM     22  C   UNL     1      -4.053  36.034  38.770  0.00  0.00    -0.064 C 
ATOM     23  N   UNL     1      -2.690  36.442  39.331  0.00  0.00    +0.379 N 
ATOM     24  C   UNL     1      -2.881  37.312  40.501  0.00  0.00    -0.096 C 
ATOM     25  H   UNL     1      -2.167  37.038  38.548  0.00  0.00    -0.082 HD
ATOM     26  C   UNL     1      -1.833  35.220  39.630  0.00  0.00    -0.064 C 
ATOM     27  C   UNL     1      -1.658  34.343  38.358  0.00  0.00    +0.066 C 
ENDBRANCH  19  20
ENDBRANCH  18  19
ENDBRANCH  14  15
ENDBRANCH  12  13
TORSDOF 6
ENDMDL
MODEL 3
REMARK VINA RESULT:      -8.0     43.086     49.642
REMARK  Name = C:\Users\Docking\Desktop\test protocol\1iep_ligandH.pdb
REMARK  8 active torsions:
REMARK  status: ('A' for Active; 'I' for Inactive)
REMARK    1  A    between atoms: _5  and  _11
REMARK    2  A    between atoms: _19  and  _21
REMARK    3  A    between atoms: _22  and  _66
REMARK    4  A    between atoms: _27  and  _30
REMARK    5  A    between atoms: _32  and  _33
REMARK    6  A    between atoms: _38  and  _43
REMARK    7  A    between atoms: _43  and  _46
REMARK    8  A    between atoms: _53  and  _55
REMARK                            x       y       z     vdW  Elec       q    Type
REMARK                         _______ _______ _______ _____ _____    ______ ____
ROOT
ATOM     10  C   UNL     1       3.503  37.236  24.261  0.00  0.00    +0.038 A 
ATOM     11  C   UNL     1       3.467  38.519  23.659  0.00  0.00    +0.047 A 
ATOM     12  C   UNL     1       4.660  39.109  23.071  0.00  0.00    +0.035 A 
ATOM     32  C   UNL     1       5.873  38.362  23.113  0.00  0.00    +0.024 A 
ATOM     33  C   UNL     1       5.928  37.056  23.722  0.00  0.00    +0.007 A 
ATOM     34  C   UNL     1       4.755  36.471  24.305  0.00  0.00    -0.029 A 
ATOM     35  C   UNL     1       4.874  35.070  24.951  0.00  0.00    +0.045 C 
ENDROOT
BRANCH  10   9
ATOM      4  C   UNL     1       0.435  36.644  27.904  0.00  0.00    +0.077 A 
ATOM      5  C   UNL     1       1.256  37.409  28.798  0.00  0.00    +0.048 A 
ATOM      6  C   UNL     1       2.464  37.931  28.283  0.00  0.00    +0.116 A 
ATOM      7  N   UNL     1       2.814  37.700  26.970  0.00  0.00    -0.223 NA
ATOM      8  C   UNL     1       2.000  36.956  26.135  0.00  0.00    +0.220 A 
ATOM      9  N   UNL     1       2.328  36.718  24.810  0.00  0.00    -0.283 N 
ATOM     36  H   UNL     1       1.704  36.158  24.229  0.00  0.00    +0.155 HD
ATOM     37  N   UNL     1       0.842  36.445  26.604  0.00  0.00    -0.214 NA
BRANCH   4   3
ATOM      1  C   UNL     1      -2.681  35.509  29.979  0.00  0.00    +0.020 A 
ATOM      2  C   UNL     1      -1.414  36.120  29.649  0.00  0.00    +0.013 A 
ATOM      3  C   UNL     1      -0.872  36.029  28.299  0.00  0.00    +0.019 A 
ATOM     38  C   UNL     1      -1.643  35.308  27.298  0.00  0.00    +0.120 A 
ATOM     39  N   UNL     1      -2.859  34.728  27.645  0.00  0.00    -0.263 NA
ATOM     40  C   UNL     1      -3.390  34.808  28.941  0.00  0.00    +0.111 A 
ENDBRANCH   4   3
ENDBRANCH  10   9
BRANCH  12  13
ATOM     13  N   UNL     1       4.686  40.411  22.453  0.00  0.00    -0.281 N 
ATOM     14  C   UNL     1       4.773  40.712  21.104  0.00  0.00    +0.248 C 
ATOM     30  O   UNL     1       5.059  39.904  20.233  0.00  0.00    -0.270 OA
ATOM     31  H   UNL     1       4.633  41.208  23.088  0.00  0.00    +0.155 HD
BRANCH  14  15
ATOM     15  C   UNL     1       4.521  42.116  20.659  0.00  0.00    +0.037 A 
ATOM     16  C   UNL     1       3.158  42.635  20.517  0.00  0.00    +0.013 A 
ATOM     17  C   UNL     1       2.942  43.988  20.070  0.00  0.00    +0.005 A 
ATOM     18  C   UNL     1       4.093  44.833  19.763  0.00  0.00    -0.033 A 
ATOM     28  C   UNL     1       5.435  44.295  19.918  0.00  0.00    +0.005 A 
ATOM     29  C   UNL     1       5.650  42.969  20.355  0.00  0.00    +0.013 A 
BRANCH  18  19
ATOM     19  C   UNL     1       3.957  46.283  19.260  0.00  0.00    +0.119 C 
BRANCH  19  20
ATOM     20  N   UNL     1       2.685  46.649  18.568  0.00  0.00    -0.302 NA
ATOM     21  C   UNL     1       2.937  47.452  17.289  0.00  0.00    +0.066 C 
ATOM     22  C   UNL     1       1.597  47.807  16.566  0.00  0.00    -0.064 C 
ATOM     23  N   UNL     1       0.695  48.586  17.525  0.00  0.00    +0.379 N 
ATOM     24  C   UNL     1      -0.542  48.973  16.831  0.00  0.00    -0.096 C 
ATOM     25  H   UNL     1       1.231  49.522  17.808  0.00  0.00    -0.082 HD
ATOM     26  C   UNL     1       0.441  47.797  18.802  0.00  0.00    -0.064 C 
ATOM     27  C   UNL     1       1.781  47.423  19.496  0.00  0.00    +0.066 C 
ENDBRANCH  19  20
ENDBRANCH  18  19
ENDBRANCH  14  15
ENDBRANCH  12  13
TORSDOF 6
ENDMDL
MODEL 4
REMARK VINA RESULT:      -8.0     62.349     66.736
REMARK  Name = C:\Users\Docking\Desktop\test protocol\1iep_ligandH.pdb
REMARK  8 active torsions:
REMARK  status: ('A' for Active; 'I' for Inactive)
REMARK    1  A    between atoms: _5  and  _11
REMARK    2  A    between atoms: _19  and  _21
REMARK    3  A    between atoms: _22  and  _66
REMARK    4  A    between atoms: _27  and  _30
REMARK    5  A    between atoms: _32  and  _33
REMARK    6  A    between atoms: _38  and  _43
REMARK    7  A    between atoms: _43  and  _46
REMARK    8  A    between atoms: _53  and  _55
REMARK                            x       y       z     vdW  Elec       q    Type
REMARK                         _______ _______ _______ _____ _____    ______ ____
ROOT
ATOM     10  C   UNL     1      -1.527  58.155  23.516  0.00  0.00    +0.038 A 
ATOM     11  C   UNL     1      -1.278  59.139  24.506  0.00  0.00    +0.047 A 
ATOM     12  C   UNL     1      -0.610  58.799  25.753  0.00  0.00    +0.035 A 
ATOM     32  C   UNL     1      -0.206  57.448  25.957  0.00  0.00    +0.024 A 
ATOM     33  C   UNL     1      -0.452  56.435  24.961  0.00  0.00    +0.007 A 
ATOM     34  C   UNL     1      -1.113  56.763  23.730  0.00  0.00    -0.029 A 
ATOM     35  C   UNL     1      -1.357  55.635  22.701  0.00  0.00    +0.045 C 
ENDROOT
BRANCH  10   9
ATOM      4  C   UNL     1      -1.673  60.539  19.352  0.00  0.00    +0.077 A 
ATOM      5  C   UNL     1      -0.365  61.092  19.555  0.00  0.00    +0.048 A 
ATOM      6  C   UNL     1       0.309  60.744  20.746  0.00  0.00    +0.116 A 
ATOM      7  N   UNL     1      -0.290  59.904  21.660  0.00  0.00    -0.223 NA
ATOM      8  C   UNL     1      -1.553  59.389  21.435  0.00  0.00    +0.220 A 
ATOM      9  N   UNL     1      -2.172  58.537  22.337  0.00  0.00    -0.283 N 
ATOM     36  H   UNL     1      -3.107  58.185  22.137  0.00  0.00    +0.155 HD
ATOM     37  N   UNL     1      -2.219  59.708  20.305  0.00  0.00    -0.214 NA
BRANCH   4   3
ATOM      1  C   UNL     1      -3.192  62.222  16.164  0.00  0.00    +0.020 A 
ATOM      2  C   UNL     1      -2.358  62.008  17.325  0.00  0.00    +0.013 A 
ATOM      3  C   UNL     1      -2.510  60.810  18.141  0.00  0.00    +0.019 A 
ATOM     38  C   UNL     1      -3.523  59.840  17.752  0.00  0.00    +0.120 A 
ATOM     39  N   UNL     1      -4.313  60.074  16.630  0.00  0.00    -0.263 NA
ATOM     40  C   UNL     1      -4.176  61.224  15.838  0.00  0.00    +0.111 A 
ENDBRANCH   4   3
ENDBRANCH  10   9
BRANCH  12  13
ATOM     13  N   UNL     1      -0.337  59.754  26.799  0.00  0.00    -0.281 N 
ATOM     14  C   UNL     1       0.601  60.773  26.798  0.00  0.00    +0.248 C 
ATOM     30  O   UNL     1       1.500  60.885  25.978  0.00  0.00    -0.270 OA
ATOM     31  H   UNL     1      -0.905  59.668  27.642  0.00  0.00    +0.155 HD
BRANCH  14  15
ATOM     15  C   UNL     1       0.541  61.810  27.873  0.00  0.00    +0.037 A 
ATOM     16  C   UNL     1       0.664  63.236  27.561  0.00  0.00    +0.013 A 
ATOM     17  C   UNL     1       0.620  64.215  28.618  0.00  0.00    +0.005 A 
ATOM     18  C   UNL     1       0.451  63.769  29.999  0.00  0.00    -0.033 A 
ATOM     28  C   UNL     1       0.327  62.349  30.280  0.00  0.00    +0.005 A 
ATOM     29  C   UNL     1       0.370  61.387  29.247  0.00  0.00    +0.013 A 
BRANCH  18  19
ATOM     19  C   UNL     1       0.414  64.742  31.193  0.00  0.00    +0.119 C 
BRANCH  19  20
ATOM     20  N   UNL     1      -0.794  65.608  31.333  0.00  0.00    -0.302 NA
ATOM     21  C   UNL     1      -0.538  67.035  30.842  0.00  0.00    +0.066 C 
ATOM     22  C   UNL     1      -1.819  67.921  30.975  0.00  0.00    -0.064 C 
ATOM     23  N   UNL     1      -2.285  67.925  32.432  0.00  0.00    +0.379 N 
ATOM     24  C   UNL     1      -3.456  68.804  32.570  0.00  0.00    -0.096 C 
ATOM     25  H   UNL     1      -1.463  68.357  33.048  0.00  0.00    -0.082 HD
ATOM     26  C   UNL     1      -2.540  66.509  32.928  0.00  0.00    -0.064 C 
ATOM     27  C   UNL     1      -1.269  65.629  32.765  0.00  0.00    +0.066 C 
ENDBRANCH  19  20
ENDBRANCH  18  19
ENDBRANCH  14  15
ENDBRANCH  12  13
TORSDOF 6
ENDMDL
MODEL 5
REMARK VINA RESULT:      -8.0     40.376     48.758
REMARK  Name = C:\Users\Docking\Desktop\test protocol\1iep_ligandH.pdb
REMARK  8 active torsions:
REMARK  status: ('A' for Active; 'I' for Inactive)
REMARK    1  A    between atoms: _5  and  _11
REMARK    2  A    between atoms: _19  and  _21
REMARK    3  A    between atoms: _22  and  _66
REMARK    4  A    between atoms: _27  and  _30
REMARK    5  A    between atoms: _32  and  _33
REMARK    6  A    between atoms: _38  and  _43
REMARK    7  A    between atoms: _43  and  _46
REMARK    8  A    between atoms: _53  and  _55
REMARK                            x       y       z     vdW  Elec       q    Type
REMARK                         _______ _______ _______ _____ _____    ______ ____
ROOT
ATOM     10  C   UNL     1       5.761  37.086  23.534  0.00  0.00    +0.038 A 
ATOM     11  C   UNL     1       5.574  38.109  22.570  0.00  0.00    +0.047 A 
ATOM     12  C   UNL     1       5.715  39.513  22.926  0.00  0.00    +0.035 A 
ATOM     32  C   UNL     1       6.050  39.838  24.273  0.00  0.00    +0.024 A 
ATOM     33  C   UNL     1       6.242  38.810  25.266  0.00  0.00    +0.007 A 
ATOM     34  C   UNL     1       6.102  37.424  24.921  0.00  0.00    -0.029 A 
ATOM     35  C   UNL     1       6.314  36.365  26.028  0.00  0.00    +0.045 C 
ENDROOT
BRANCH  10   9
ATOM      4  C   UNL     1       7.551  32.898  22.020  0.00  0.00    +0.077 A 
ATOM      5  C   UNL     1       8.889  33.413  21.991  0.00  0.00    +0.048 A 
ATOM      6  C   UNL     1       9.074  34.762  22.366  0.00  0.00    +0.116 A 
ATOM      7  N   UNL     1       7.993  35.530  22.741  0.00  0.00    -0.223 NA
ATOM      8  C   UNL     1       6.714  35.003  22.756  0.00  0.00    +0.220 A 
ATOM      9  N   UNL     1       5.614  35.755  23.138  0.00  0.00    -0.283 N 
ATOM     36  H   UNL     1       4.686  35.331  23.129  0.00  0.00    +0.155 HD
ATOM     37  N   UNL     1       6.512  33.717  22.401  0.00  0.00    -0.214 NA
BRANCH   4   3
ATOM      1  C   UNL     1       7.595  29.335  20.405  0.00  0.00    +0.020 A 
ATOM      2  C   UNL     1       7.982  30.690  20.724  0.00  0.00    +0.013 A 
ATOM      3  C   UNL     1       7.195  31.490  21.654  0.00  0.00    +0.019 A 
ATOM     38  C   UNL     1       6.014  30.884  22.250  0.00  0.00    +0.120 A 
ATOM     39  N   UNL     1       5.665  29.577  21.923  0.00  0.00    -0.263 NA
ATOM     40  C   UNL     1       6.414  28.798  21.028  0.00  0.00    +0.111 A 
ENDBRANCH   4   3
ENDBRANCH  10   9
BRANCH  12  13
ATOM     13  N   UNL     1       5.529  40.596  21.992  0.00  0.00    -0.281 N 
ATOM     14  C   UNL     1       4.368  40.960  21.331  0.00  0.00    +0.248 C 
ATOM     30  O   UNL     1       3.358  40.275  21.279  0.00  0.00    -0.270 OA
ATOM     31  H   UNL     1       6.354  41.163  21.795  0.00  0.00    +0.155 HD
BRANCH  14  15
ATOM     15  C   UNL     1       4.328  42.269  20.611  0.00  0.00    +0.037 A 
ATOM     16  C   UNL     1       5.548  42.882  20.080  0.00  0.00    +0.013 A 
ATOM     17  C   UNL     1       5.483  44.154  19.404  0.00  0.00    +0.005 A 
ATOM     18  C   UNL     1       4.192  44.821  19.255  0.00  0.00    -0.033 A 
ATOM     28  C   UNL     1       2.997  44.188  19.787  0.00  0.00    +0.005 A 
ATOM     29  C   UNL     1       3.056  42.942  20.451  0.00  0.00    +0.013 A 
BRANCH  18  19
ATOM     19  C   UNL     1       4.032  46.190  18.567  0.00  0.00    +0.119 C 
BRANCH  19  20
ATOM     20  N   UNL     1       2.652  46.598  18.170  0.00  0.00    -0.302 NA
ATOM     21  C   UNL     1       2.653  47.494  16.928  0.00  0.00    +0.066 C 
ATOM     22  C   UNL     1       1.200  47.894  16.513  0.00  0.00    -0.064 C 
ATOM     23  N   UNL     1       0.512  48.595  17.686  0.00  0.00    +0.379 N 
ATOM     24  C   UNL     1      -0.835  49.023  17.280  0.00  0.00    -0.096 C 
ATOM     25  H   UNL     1       1.101  49.510  17.925  0.00  0.00    -0.082 HD
ATOM     26  C   UNL     1       0.509  47.711  18.926  0.00  0.00    -0.064 C 
ATOM     27  C   UNL     1       1.956  47.296  19.312  0.00  0.00    +0.066 C 
ENDBRANCH  19  20
ENDBRANCH  18  19
ENDBRANCH  14  15
ENDBRANCH  12  13
TORSDOF 6
ENDMDL
