MODEL 1
REMARK VINA RESULT:      -8.1      0.000      0.000
REMARK  Name = C:\Users\Docking\Desktop\test protocol\1iep_ligandH.pdb
REMARK  8 active torsions:
REMARK  status: ('A' for Active; 'I' for Inactive)
REMARK    1  A    between atoms: _5  and  _11
REMARK    2  A    between atoms: _19  and  _21
REMARK    3  A    between atoms: _22  and  _66
REMARK    4  A    between atoms: _27  and  _30
REMARK    5  A    between atoms: _32  and  _33
REMARK    6  A    between atoms: _38  and  _43
REMARK    7  A    between atoms: _43  and  _46
REMARK    8  A    between atoms: _53  and  _55
REMARK                            x       y       z     vdW  Elec       q    Type
REMARK                         _______ _______ _______ _____ _____    ______ ____
ROOT
ATOM     10  C   UNL     1     -23.845   1.685 -24.134  0.00  0.00    +0.038 A 
ATOM     11  C   UNL     1     -22.509   2.095 -23.894  0.00  0.00    +0.047 A 
ATOM     12  C   UNL     1     -21.383   1.262 -24.286  0.00  0.00    +0.035 A 
ATOM     32  C   UNL     1     -21.655   0.017 -24.925  0.00  0.00    +0.024 A 
ATOM     33  C   UNL     1     -23.007  -0.417 -25.176  0.00  0.00    +0.007 A 
ATOM     34  C   UNL     1     -24.122   0.401 -24.789  0.00  0.00    -0.029 A 
ATOM     35  C   UNL     1     -25.550  -0.117 -25.077  0.00  0.00    +0.045 C 
ENDROOT
BRANCH  10   9
ATOM      4  C   UNL     1     -26.968   3.299 -20.866  0.00  0.00    +0.077 A 
ATOM      5  C   UNL     1     -26.501   2.372 -19.876  0.00  0.00    +0.048 A 
ATOM      6  C   UNL     1     -25.461   1.493 -20.250  0.00  0.00    +0.116 A 
ATOM      7  N   UNL     1     -24.934   1.545 -21.522  0.00  0.00    -0.223 NA
ATOM      8  C   UNL     1     -25.408   2.450 -22.454  0.00  0.00    +0.220 A 
ATOM      9  N   UNL     1     -24.888   2.525 -23.736  0.00  0.00    -0.283 N 
ATOM     36  H   UNL     1     -25.270   3.202 -24.397  0.00  0.00    +0.155 HD
ATOM     37  N   UNL     1     -26.402   3.300 -22.122  0.00  0.00    -0.214 NA
BRANCH   4   3
ATOM      1  C   UNL     1     -28.892   6.577 -19.943  0.00  0.00    +0.020 A 
ATOM      2  C   UNL     1     -27.803   5.655 -20.164  0.00  0.00    +0.013 A 
ATOM      3  C   UNL     1     -28.059   4.295 -20.622  0.00  0.00    +0.019 A 
ATOM     38  C   UNL     1     -29.440   3.898 -20.850  0.00  0.00    +0.120 A 
ATOM     39  N   UNL     1     -30.469   4.808 -20.628  0.00  0.00    -0.263 NA
ATOM     40  C   UNL     1     -30.234   6.118 -20.186  0.00  0.00    +0.111 A 
ENDBRANCH   4   3
ENDBRANCH  10   9
BRANCH  12  13
ATOM     13  N   UNL     1     -20.006   1.622 -24.061  0.00  0.00    -0.281 N 
ATOM     14  C   UNL     1     -19.006   0.852 -23.489  0.00  0.00    +0.248 C 
ATOM     30  O   UNL     1     -19.199  -0.194 -22.886  0.00  0.00    -0.270 OA
ATOM     31  H   UNL     1     -19.734   2.559 -24.359  0.00  0.00    +0.155 HD
BRANCH  14  15
ATOM     15  C   UNL     1     -17.590   1.317 -23.588  0.00  0.00    +0.037 A 
ATOM     16  C   UNL     1     -17.110   2.463 -22.811  0.00  0.00    +0.013 A 
ATOM     17  C   UNL     1     -15.743   2.902 -22.938  0.00  0.00    +0.005 A 
ATOM     18  C   UNL     1     -14.845   2.193 -23.846  0.00  0.00    -0.033 A 
ATOM     28  C   UNL     1     -15.345   1.056 -24.601  0.00  0.00    +0.005 A 
ATOM     29  C   UNL     1     -16.685   0.624 -24.479  0.00  0.00    +0.013 A 
BRANCH  18  19
ATOM     19  C   UNL     1     -13.376   2.605 -24.060  0.00  0.00    +0.119 C 
BRANCH  19  20
ATOM     20  N   UNL     1     -12.386   2.164 -23.033  0.00  0.00    -0.302 NA
ATOM     21  C   UNL     1     -11.255   3.181 -22.853  0.00  0.00    +0.066 C 
ATOM     22  C   UNL     1     -10.240   2.715 -21.759  0.00  0.00    -0.064 C 
ATOM     23  N   UNL     1      -9.679   1.343 -22.138  0.00  0.00    +0.379 N 
ATOM     24  C   UNL     1      -8.681   0.928 -21.142  0.00  0.00    -0.096 C 
ATOM     25  H   UNL     1      -9.156   1.451 -23.117  0.00  0.00    -0.082 HD
ATOM     26  C   UNL     1     -10.797   0.327 -22.323  0.00  0.00    -0.064 C 
ATOM     27  C   UNL     1     -11.816   0.814 -23.391  0.00  0.00    +0.066 C 
ENDBRANCH  19  20
ENDBRANCH  18  19
ENDBRANCH  14  15
ENDBRANCH  12  13
TORSDOF 6
ENDMDL
MODEL 2
REMARK VINA RESULT:      -8.1     23.534     28.152
REMARK  Name = C:\Users\Docking\Desktop\test protocol\1iep_ligandH.pdb
REMARK  8 active torsions:
REMARK  status: ('A' for Active; 'I' for Inactive)
REMARK    1  A    between atoms: _5  and  _11
REMARK    2  A    between atoms: _19  and  _21
REMARK    3  A    between atoms: _22  and  _66
REMARK    4  A    between atoms: _27  and  _30
REMARK    5  A    between atoms: _32  and  _33
REMARK    6  A    between atoms: _38  and  _43
REMARK    7  A    between atoms: _43  and  _46
REMARK    8  A    between atoms: _53  and  _55
REMARK                            x       y       z     vdW  Elec       q    Type
REMARK                         _______ _______ _______ _____ _____    ______ ____
ROOT
ATOM     10  C   UNL     1      -9.174  17.283  -3.840  0.00  0.00    +0.038 A 
ATOM     11  C   UNL     1     -10.527  17.357  -4.260  0.00  0.00    +0.047 A 
ATOM     12  C   UNL     1     -11.232  18.628  -4.306  0.00  0.00    +0.035 A 
ATOM     32  C   UNL     1     -10.529  19.805  -3.919  0.00  0.00    +0.024 A 
ATOM     33  C   UNL     1      -9.154  19.749  -3.488  0.00  0.00    +0.007 A 
ATOM     34  C   UNL     1      -8.454  18.497  -3.438  0.00  0.00    -0.029 A 
ATOM     35  C   UNL     1      -6.982  18.495  -2.962  0.00  0.00    +0.045 C 
ENDROOT
BRANCH  10   9
ATOM      4  C   UNL     1      -7.835  13.262  -1.587  0.00  0.00    +0.077 A 
ATOM      5  C   UNL     1      -8.413  13.694  -0.347  0.00  0.00    +0.048 A 
ATOM      6  C   UNL     1      -9.040  14.960  -0.329  0.00  0.00    +0.116 A 
ATOM      7  N   UNL     1      -9.080  15.729  -1.472  0.00  0.00    -0.223 NA
ATOM      8  C   UNL     1      -8.510  15.283  -2.651  0.00  0.00    +0.220 A 
ATOM      9  N   UNL     1      -8.546  16.036  -3.815  0.00  0.00    -0.283 N 
ATOM     36  H   UNL     1      -8.108  15.675  -4.662  0.00  0.00    +0.155 HD
ATOM     37  N   UNL     1      -7.905  14.078  -2.694  0.00  0.00    -0.214 NA
BRANCH   4   3
ATOM      1  C   UNL     1      -5.688  10.056  -0.942  0.00  0.00    +0.020 A 
ATOM      2  C   UNL     1      -6.337  11.327  -0.719  0.00  0.00    +0.013 A 
ATOM      3  C   UNL     1      -7.141  11.948  -1.765  0.00  0.00    +0.019 A 
ATOM     38  C   UNL     1      -7.269  11.250  -3.036  0.00  0.00    +0.120 A 
ATOM     39  N   UNL     1      -6.631  10.027  -3.222  0.00  0.00    -0.263 NA
ATOM     40  C   UNL     1      -5.854   9.422  -2.224  0.00  0.00    +0.111 A 
ENDBRANCH   4   3
ENDBRANCH  10   9
BRANCH  12  13
ATOM     13  N   UNL     1     -12.608  18.763  -4.717  0.00  0.00    -0.281 N 
ATOM     14  C   UNL     1     -13.721  18.952  -3.915  0.00  0.00    +0.248 C 
ATOM     30  O   UNL     1     -13.729  18.819  -2.700  0.00  0.00    -0.270 OA
ATOM     31  H   UNL     1     -12.782  18.714  -5.721  0.00  0.00    +0.155 HD
BRANCH  14  15
ATOM     15  C   UNL     1     -15.018  19.329  -4.556  0.00  0.00    +0.037 A 
ATOM     16  C   UNL     1     -16.073  18.337  -4.778  0.00  0.00    +0.013 A 
ATOM     17  C   UNL     1     -17.307  18.724  -5.414  0.00  0.00    +0.005 A 
ATOM     18  C   UNL     1     -17.493  20.111  -5.832  0.00  0.00    -0.033 A 
ATOM     28  C   UNL     1     -16.432  21.076  -5.595  0.00  0.00    +0.005 A 
ATOM     29  C   UNL     1     -15.221  20.700  -4.973  0.00  0.00    +0.013 A 
BRANCH  18  19
ATOM     19  C   UNL     1     -18.769  20.608  -6.537  0.00  0.00    +0.119 C 
BRANCH  19  20
ATOM     20  N   UNL     1     -18.596  21.352  -7.821  0.00  0.00    -0.302 NA
ATOM     21  C   UNL     1     -19.914  21.946  -8.323  0.00  0.00    +0.066 C 
ATOM     22  C   UNL     1     -19.710  22.739  -9.655  0.00  0.00    -0.064 C 
ATOM     23  N   UNL     1     -19.097  21.814 -10.707  0.00  0.00    +0.379 N 
ATOM     24  C   UNL     1     -18.958  22.541 -11.978  0.00  0.00    -0.096 C 
ATOM     25  H   UNL     1     -19.810  20.974 -10.875  0.00  0.00    -0.082 HD
ATOM     26  C   UNL     1     -17.787  21.217 -10.215  0.00  0.00    -0.064 C 
ATOM     27  C   UNL     1     -17.995  20.456  -8.876  0.00  0.00    +0.066 C 
ENDBRANCH  19  20
ENDBRANCH  18  19
ENDBRANCH  14  15
ENDBRANCH  12  13
TORSDOF 6
ENDMDL
MODEL 3
REMARK VINA RESULT:      -7.9     22.912     25.009
REMARK  Name = C:\Users\Docking\Desktop\test protocol\1iep_ligandH.pdb
REMARK  8 active torsions:
REMARK  status: ('A' for Active; 'I' for Inactive)
REMARK    1  A    between atoms: _5  and  _11
REMARK    2  A    between atoms: _19  and  _21
REMARK    3  A    between atoms: _22  and  _66
REMARK    4  A    between atoms: _27  and  _30
REMARK    5  A    between atoms: _32  and  _33
REMARK    6  A    between atoms: _38  and  _43
REMARK    7  A    between atoms: _43  and  _46
REMARK    8  A    between atoms: _53  and  _55
REMARK                            x       y       z     vdW  Elec       q    Type
REMARK                         _______ _______ _______ _____ _____    ______ ____
ROOT
ATOM     10  C   UNL     1     -16.521  20.033  -7.794  0.00  0.00    +0.038 A 
ATOM     11  C   UNL     1     -15.342  19.628  -7.116  0.00  0.00    +0.047 A 
ATOM     12  C   UNL     1     -14.033  20.101  -7.537  0.00  0.00    +0.035 A 
ATOM     32  C   UNL     1     -13.960  20.988  -8.650  0.00  0.00    +0.024 A 
ATOM     33  C   UNL     1     -15.147  21.409  -9.351  0.00  0.00    +0.007 A 
ATOM     34  C   UNL     1     -16.442  20.944  -8.942  0.00  0.00    -0.029 A 
ATOM     35  C   UNL     1     -17.681  21.423  -9.735  0.00  0.00    +0.045 C 
ENDROOT
BRANCH  10   9
ATOM      4  C   UNL     1     -19.953  16.681  -7.658  0.00  0.00    +0.077 A 
ATOM      5  C   UNL     1     -19.245  15.834  -8.575  0.00  0.00    +0.048 A 
ATOM      6  C   UNL     1     -18.004  16.302  -9.064  0.00  0.00    +0.116 A 
ATOM      7  N   UNL     1     -17.517  17.526  -8.659  0.00  0.00    -0.223 NA
ATOM      8  C   UNL     1     -18.226  18.318  -7.774  0.00  0.00    +0.220 A 
ATOM      9  N   UNL     1     -17.752  19.549  -7.347  0.00  0.00    -0.283 N 
ATOM     36  H   UNL     1     -18.309  20.107  -6.700  0.00  0.00    +0.155 HD
ATOM     37  N   UNL     1     -19.414  17.895  -7.294  0.00  0.00    -0.214 NA
BRANCH   4   3
ATOM      1  C   UNL     1     -23.655  15.503  -7.202  0.00  0.00    +0.020 A 
ATOM      2  C   UNL     1     -22.400  15.833  -7.837  0.00  0.00    +0.013 A 
ATOM      3  C   UNL     1     -21.274  16.324  -7.052  0.00  0.00    +0.019 A 
ATOM     38  C   UNL     1     -21.453  16.470  -5.615  0.00  0.00    +0.120 A 
ATOM     39  N   UNL     1     -22.674  16.145  -5.032  0.00  0.00    -0.263 NA
ATOM     40  C   UNL     1     -23.764  15.673  -5.778  0.00  0.00    +0.111 A 
ENDBRANCH   4   3
ENDBRANCH  10   9
BRANCH  12  13
ATOM     13  N   UNL     1     -12.801  19.718  -6.893  0.00  0.00    -0.281 N 
ATOM     14  C   UNL     1     -12.207  20.291  -5.780  0.00  0.00    +0.248 C 
ATOM     30  O   UNL     1     -12.540  21.362  -5.294  0.00  0.00    -0.270 OA
ATOM     31  H   UNL     1     -12.306  18.928  -7.307  0.00  0.00    +0.155 HD
BRANCH  14  15
ATOM     15  C   UNL     1     -11.072  19.578  -5.119  0.00  0.00    +0.037 A 
ATOM     16  C   UNL     1     -11.293  18.367  -4.325  0.00  0.00    +0.013 A 
ATOM     17  C   UNL     1     -10.182  17.709  -3.685  0.00  0.00    +0.005 A 
ATOM     18  C   UNL     1      -8.838  18.261  -3.838  0.00  0.00    -0.033 A 
ATOM     28  C   UNL     1      -8.646  19.461  -4.635  0.00  0.00    +0.005 A 
ATOM     29  C   UNL     1      -9.733  20.109  -5.264  0.00  0.00    +0.013 A 
BRANCH  18  19
ATOM     19  C   UNL     1      -7.597  17.636  -3.173  0.00  0.00    +0.119 C 
BRANCH  19  20
ATOM     20  N   UNL     1      -7.099  18.276  -1.919  0.00  0.00    -0.302 NA
ATOM     21  C   UNL     1      -5.853  19.132  -2.166  0.00  0.00    +0.066 C 
ATOM     22  C   UNL     1      -5.358  19.811  -0.848  0.00  0.00    -0.064 C 
ATOM     23  N   UNL     1      -5.077  18.736   0.202  0.00  0.00    +0.379 N 
ATOM     24  C   UNL     1      -4.556  19.368   1.424  0.00  0.00    -0.096 C 
ATOM     25  H   UNL     1      -4.278  18.070  -0.201  0.00  0.00    -0.082 HD
ATOM     26  C   UNL     1      -6.309  17.879   0.453  0.00  0.00    -0.064 C 
ATOM     27  C   UNL     1      -6.810  17.232  -0.869  0.00  0.00    +0.066 C 
ENDBRANCH  19  20
ENDBRANCH  18  19
ENDBRANCH  14  15
ENDBRANCH  12  13
TORSDOF 6
ENDMDL
MODEL 4
REMARK VINA RESULT:      -7.8     21.851     24.227
REMARK  Name = C:\Users\Docking\Desktop\test protocol\1iep_ligandH.pdb
REMARK  8 active torsions:
REMARK  status: ('A' for Active; 'I' for Inactive)
REMARK    1  A    between atoms: _5  and  _11
REMARK    2  A    between atoms: _19  and  _21
REMARK    3  A    between atoms: _22  and  _66
REMARK    4  A    between atoms: _27  and  _30
REMARK    5  A    between atoms: _32  and  _33
REMARK    6  A    between atoms: _38  and  _43
REMARK    7  A    between atoms: _43  and  _46
REMARK    8  A    between atoms: _53  and  _55
REMARK                            x       y       z     vdW  Elec       q    Type
REMARK                         _______ _______ _______ _____ _____    ______ ____
ROOT
ATOM     10  C   UNL     1     -14.727  22.424  -8.263  0.00  0.00    +0.038 A 
ATOM     11  C   UNL     1     -13.558  22.305  -9.057  0.00  0.00    +0.047 A 
ATOM     12  C   UNL     1     -12.711  23.457  -9.327  0.00  0.00    +0.035 A 
ATOM     32  C   UNL     1     -13.085  24.715  -8.771  0.00  0.00    +0.024 A 
ATOM     33  C   UNL     1     -14.272  24.854  -7.964  0.00  0.00    +0.007 A 
ATOM     34  C   UNL     1     -15.111  23.722  -7.696  0.00  0.00    -0.029 A 
ATOM     35  C   UNL     1     -16.375  23.931  -6.829  0.00  0.00    +0.045 C 
ENDROOT
BRANCH  10   9
ATOM      4  C   UNL     1     -18.155  19.314  -9.534  0.00  0.00    +0.077 A 
ATOM      5  C   UNL     1     -18.444  20.034 -10.741  0.00  0.00    +0.048 A 
ATOM      6  C   UNL     1     -17.692  21.203 -10.994  0.00  0.00    +0.116 A 
ATOM      7  N   UNL     1     -16.727  21.612 -10.100  0.00  0.00    -0.223 NA
ATOM      8  C   UNL     1     -16.475  20.896  -8.945  0.00  0.00    +0.220 A 
ATOM      9  N   UNL     1     -15.503  21.285  -8.036  0.00  0.00    -0.283 N 
ATOM     36  H   UNL     1     -15.353  20.733  -7.191  0.00  0.00    +0.155 HD
ATOM     37  N   UNL     1     -17.180  19.776  -8.680  0.00  0.00    -0.214 NA
BRANCH   4   3
ATOM      1  C   UNL     1     -20.927  16.767  -8.470  0.00  0.00    +0.020 A 
ATOM      2  C   UNL     1     -20.293  18.006  -8.858  0.00  0.00    +0.013 A 
ATOM      3  C   UNL     1     -18.862  18.058  -9.129  0.00  0.00    +0.019 A 
ATOM     38  C   UNL     1     -18.095  16.828  -8.997  0.00  0.00    +0.120 A 
ATOM     39  N   UNL     1     -18.732  15.650  -8.620  0.00  0.00    -0.263 NA
ATOM     40  C   UNL     1     -20.108  15.589  -8.356  0.00  0.00    +0.111 A 
ENDBRANCH   4   3
ENDBRANCH  10   9
BRANCH  12  13
ATOM     13  N   UNL     1     -11.516  23.398 -10.132  0.00  0.00    -0.281 N 
ATOM     14  C   UNL     1     -10.215  23.178  -9.710  0.00  0.00    +0.248 C 
ATOM     30  O   UNL     1      -9.852  23.211  -8.543  0.00  0.00    -0.270 OA
ATOM     31  H   UNL     1     -11.645  23.536 -11.134  0.00  0.00    +0.155 HD
BRANCH  14  15
ATOM     15  C   UNL     1      -9.163  22.896 -10.732  0.00  0.00    +0.037 A 
ATOM     16  C   UNL     1      -9.011  23.740 -11.920  0.00  0.00    +0.013 A 
ATOM     17  C   UNL     1      -7.998  23.435 -12.899  0.00  0.00    +0.005 A 
ATOM     18  C   UNL     1      -7.128  22.280 -12.694  0.00  0.00    -0.033 A 
ATOM     28  C   UNL     1      -7.297  21.462 -11.504  0.00  0.00    +0.005 A 
ATOM     29  C   UNL     1      -8.289  21.758 -10.542  0.00  0.00    +0.013 A 
BRANCH  18  19
ATOM     19  C   UNL     1      -6.034  21.868 -13.697  0.00  0.00    +0.119 C 
BRANCH  19  20
ATOM     20  N   UNL     1      -6.454  21.032 -14.861  0.00  0.00    -0.302 NA
ATOM     21  C   UNL     1      -6.574  19.551 -14.492  0.00  0.00    +0.066 C 
ATOM     22  C   UNL     1      -7.036  18.695 -15.716  0.00  0.00    -0.064 C 
ATOM     23  N   UNL     1      -6.052  18.887 -16.870  0.00  0.00    +0.379 N 
ATOM     24  C   UNL     1      -6.451  18.039 -18.003  0.00  0.00    -0.096 C 
ATOM     25  H   UNL     1      -5.051  18.539 -16.523  0.00  0.00    -0.082 HD
ATOM     26  C   UNL     1      -5.925  20.358 -17.242  0.00  0.00    -0.064 C 
ATOM     27  C   UNL     1      -5.493  21.204 -16.012  0.00  0.00    +0.066 C 
ENDBRANCH  19  20
ENDBRANCH  18  19
ENDBRANCH  14  15
ENDBRANCH  12  13
TORSDOF 6
ENDMDL
MODEL 5
REMARK VINA RESULT:      -7.7     25.644     31.937
REMARK  Name = C:\Users\Docking\Desktop\test protocol\1iep_ligandH.pdb
REMARK  8 active torsions:
REMARK  status: ('A' for Active; 'I' for Inactive)
REMARK    1  A    between atoms: _5  and  _11
REMARK    2  A    between atoms: _19  and  _21
REMARK    3  A    between atoms: _22  and  _66
REMARK    4  A    between atoms: _27  and  _30
REMARK    5  A    between atoms: _32  and  _33
REMARK    6  A    between atoms: _38  and  _43
REMARK    7  A    between atoms: _43  and  _46
REMARK    8  A    between atoms: _53  and  _55
REMARK                            x       y       z     vdW  Elec       q    Type
REMARK                         _______ _______ _______ _____ _____    ______ ____
ROOT
ATOM     10  C   UNL     1      -2.014  11.889   3.415  0.00  0.00    +0.038 A 
ATOM     11  C   UNL     1      -2.423  11.198   2.246  0.00  0.00    +0.047 A 
ATOM     12  C   UNL     1      -2.063   9.806   2.031  0.00  0.00    +0.035 A 
ATOM     32  C   UNL     1      -1.287   9.146   3.028  0.00  0.00    +0.024 A 
ATOM     33  C   UNL     1      -0.862   9.833   4.222  0.00  0.00    +0.007 A 
ATOM     34  C   UNL     1      -1.212  11.208   4.439  0.00  0.00    -0.029 A 
ATOM     35  C   UNL     1      -0.724  11.897   5.735  0.00  0.00    +0.045 C 
ENDROOT
BRANCH  10   9
ATOM      4  C   UNL     1      -1.094  16.595   3.193  0.00  0.00    +0.077 A 
ATOM      5  C   UNL     1       0.254  16.371   2.756  0.00  0.00    +0.048 A 
ATOM      6  C   UNL     1       0.673  15.030   2.607  0.00  0.00    +0.116 A 
ATOM      7  N   UNL     1      -0.198  13.998   2.879  0.00  0.00    -0.223 NA
ATOM      8  C   UNL     1      -1.491  14.249   3.300  0.00  0.00    +0.220 A 
ATOM      9  N   UNL     1      -2.387  13.226   3.571  0.00  0.00    -0.283 N 
ATOM     36  H   UNL     1      -3.330  13.452   3.887  0.00  0.00    +0.155 HD
ATOM     37  N   UNL     1      -1.916  15.520   3.451  0.00  0.00    -0.214 NA
BRANCH   4   3
ATOM      1  C   UNL     1      -1.953  20.389   2.788  0.00  0.00    +0.020 A 
ATOM      2  C   UNL     1      -1.353  19.097   2.551  0.00  0.00    +0.013 A 
ATOM      3  C   UNL     1      -1.686  17.955   3.394  0.00  0.00    +0.019 A 
ATOM     38  C   UNL     1      -2.638  18.157   4.476  0.00  0.00    +0.120 A 
ATOM     39  N   UNL     1      -3.199  19.414   4.681  0.00  0.00    -0.263 NA
ATOM     40  C   UNL     1      -2.885  20.520   3.877  0.00  0.00    +0.111 A 
ENDBRANCH   4   3
ENDBRANCH  10   9
BRANCH  12  13
ATOM     13  N   UNL     1      -2.442   9.055   0.859  0.00  0.00    -0.281 N 
ATOM     14  C   UNL     1      -3.720   8.792   0.394  0.00  0.00    +0.248 C 
ATOM     30  O   UNL     1      -4.743   8.983   1.035  0.00  0.00    -0.270 OA
ATOM     31  H   UNL     1      -1.676   8.671   0.307  0.00  0.00    +0.155 HD
BRANCH  14  15
ATOM     15  C   UNL     1      -3.886   8.220  -0.977  0.00  0.00    +0.037 A 
ATOM     16  C   UNL     1      -4.645   8.930  -2.010  0.00  0.00    +0.013 A 
ATOM     17  C   UNL     1      -4.803   8.348  -3.319  0.00  0.00    +0.005 A 
ATOM     18  C   UNL     1      -4.199   7.049  -3.604  0.00  0.00    -0.033 A 
ATOM     28  C   UNL     1      -3.447   6.369  -2.562  0.00  0.00    +0.005 A 
ATOM     29  C   UNL     1      -3.290   6.936  -1.277  0.00  0.00    +0.013 A 
BRANCH  18  19
ATOM     19  C   UNL     1      -4.335   6.343  -4.966  0.00  0.00    +0.119 C 
BRANCH  19  20
ATOM     20  N   UNL     1      -4.137   4.863  -4.992  0.00  0.00    -0.302 NA
ATOM     21  C   UNL     1      -4.370   4.277  -6.388  0.00  0.00    +0.066 C 
ATOM     22  C   UNL     1      -4.136   2.731  -6.402  0.00  0.00    -0.064 C 
ATOM     23  N   UNL     1      -5.057   2.069  -5.375  0.00  0.00    +0.379 N 
ATOM     24  C   UNL     1      -4.881   0.611  -5.427  0.00  0.00    -0.096 C 
ATOM     25  H   UNL     1      -6.108   2.294  -5.670  0.00  0.00    -0.082 HD
ATOM     26  C   UNL     1      -4.833   2.648  -3.986  0.00  0.00    -0.064 C 
ATOM     27  C   UNL     1      -5.039   4.189  -3.989  0.00  0.00    +0.066 C 
ENDBRANCH  19  20
ENDBRANCH  18  19
ENDBRANCH  14  15
ENDBRANCH  12  13
TORSDOF 6
ENDMDL
