MODEL 1
REMARK VINA RESULT:     -10.2      0.000      0.000
REMARK  Name = C:\Users\Docking\Desktop\test protocol\1iep_ligandH.pdb
REMARK  8 active torsions:
REMARK  status: ('A' for Active; 'I' for Inactive)
REMARK    1  A    between atoms: _5  and  _11
REMARK    2  A    between atoms: _19  and  _21
REMARK    3  A    between atoms: _22  and  _66
REMARK    4  A    between atoms: _27  and  _30
REMARK    5  A    between atoms: _32  and  _33
REMARK    6  A    between atoms: _38  and  _43
REMARK    7  A    between atoms: _43  and  _46
REMARK    8  A    between atoms: _53  and  _55
REMARK                            x       y       z     vdW  Elec       q    Type
REMARK                         _______ _______ _______ _____ _____    ______ ____
ROOT
ATOM     10  C   UNL     1      15.456  44.545  58.733  0.00  0.00    +0.038 A 
ATOM     11  C   UNL     1      14.610  43.673  59.465  0.00  0.00    +0.047 A 
ATOM     12  C   UNL     1      13.224  43.468  59.077  0.00  0.00    +0.035 A 
ATOM     32  C   UNL     1      12.731  44.166  57.935  0.00  0.00    +0.024 A 
ATOM     33  C   UNL     1      13.576  45.057  57.181  0.00  0.00    +0.007 A 
ATOM     34  C   UNL     1      14.945  45.265  57.561  0.00  0.00    -0.029 A 
ATOM     35  C   UNL     1      15.803  46.238  56.718  0.00  0.00    +0.045 C 
ENDROOT
BRANCH  10   9
ATOM      4  C   UNL     1      18.931  44.170  62.022  0.00  0.00    +0.077 A 
ATOM      5  C   UNL     1      18.028  43.636  63.001  0.00  0.00    +0.048 A 
ATOM      6  C   UNL     1      16.677  43.480  62.620  0.00  0.00    +0.116 A 
ATOM      7  N   UNL     1      16.269  43.835  61.353  0.00  0.00    -0.223 NA
ATOM      8  C   UNL     1      17.165  44.349  60.433  0.00  0.00    +0.220 A 
ATOM      9  N   UNL     1      16.779  44.705  59.150  0.00  0.00    -0.283 N 
ATOM     36  H   UNL     1      17.469  45.087  58.504  0.00  0.00    +0.155 HD
ATOM     37  N   UNL     1      18.461  44.509  60.773  0.00  0.00    -0.214 NA
BRANCH   4   3
ATOM      1  C   UNL     1      22.650  43.656  63.120  0.00  0.00    +0.020 A 
ATOM      2  C   UNL     1      21.246  43.393  62.901  0.00  0.00    +0.013 A 
ATOM      3  C   UNL     1      20.391  44.391  62.273  0.00  0.00    +0.019 A 
ATOM     38  C   UNL     1      20.991  45.655  61.873  0.00  0.00    +0.120 A 
ATOM     39  N   UNL     1      22.346  45.880  62.098  0.00  0.00    -0.263 NA
ATOM     40  C   UNL     1      23.179  44.928  62.703  0.00  0.00    +0.111 A 
ENDBRANCH   4   3
ENDBRANCH  10   9
BRANCH  12  13
ATOM     13  N   UNL     1      12.316  42.601  59.786  0.00  0.00    -0.281 N 
ATOM     14  C   UNL     1      11.052  42.901  60.267  0.00  0.00    +0.248 C 
ATOM     30  O   UNL     1      10.594  44.031  60.348  0.00  0.00    -0.270 OA
ATOM     31  H   UNL     1      12.645  41.650  59.953  0.00  0.00    +0.155 HD
BRANCH  14  15
ATOM     15  C   UNL     1      10.176  41.787  60.740  0.00  0.00    +0.037 A 
ATOM     16  C   UNL     1       9.863  40.646  59.875  0.00  0.00    +0.013 A 
ATOM     17  C   UNL     1       9.001  39.593  60.350  0.00  0.00    +0.005 A 
ATOM     18  C   UNL     1       8.446  39.675  61.699  0.00  0.00    -0.033 A 
ATOM     28  C   UNL     1       8.777  40.816  62.538  0.00  0.00    +0.005 A 
ATOM     29  C   UNL     1       9.620  41.850  62.075  0.00  0.00    +0.013 A 
BRANCH  18  19
ATOM     19  C   UNL     1       7.501  38.608  62.281  0.00  0.00    +0.119 C 
BRANCH  19  20
ATOM     20  N   UNL     1       7.698  37.199  61.828  0.00  0.00    -0.302 NA
ATOM     21  C   UNL     1       6.762  36.830  60.674  0.00  0.00    +0.066 C 
ATOM     22  C   UNL     1       6.998  35.360  60.197  0.00  0.00    -0.064 C 
ATOM     23  N   UNL     1       6.805  34.406  61.378  0.00  0.00    +0.379 N 
ATOM     24  C   UNL     1       6.969  33.019  60.920  0.00  0.00    -0.096 C 
ATOM     25  H   UNL     1       5.756  34.522  61.738  0.00  0.00    -0.082 HD
ATOM     26  C   UNL     1       7.731  34.768  62.530  0.00  0.00    -0.064 C 
ATOM     27  C   UNL     1       7.508  36.240  62.977  0.00  0.00    +0.066 C 
ENDBRANCH  19  20
ENDBRANCH  18  19
ENDBRANCH  14  15
ENDBRANCH  12  13
TORSDOF 6
ENDMDL
MODEL 2
REMARK VINA RESULT:      -9.4     38.266     41.644
REMARK  Name = C:\Users\Docking\Desktop\test protocol\1iep_ligandH.pdb
REMARK  8 active torsions:
REMARK  status: ('A' for Active; 'I' for Inactive)
REMARK    1  A    between atoms: _5  and  _11
REMARK    2  A    between atoms: _19  and  _21
REMARK    3  A    between atoms: _22  and  _66
REMARK    4  A    between atoms: _27  and  _30
REMARK    5  A    between atoms: _32  and  _33
REMARK    6  A    between atoms: _38  and  _43
REMARK    7  A    between atoms: _43  and  _46
REMARK    8  A    between atoms: _53  and  _55
REMARK                            x       y       z     vdW  Elec       q    Type
REMARK                         _______ _______ _______ _____ _____    ______ ____
ROOT
ATOM     10  C   UNL     1      26.988   4.870  70.981  0.00  0.00    +0.038 A 
ATOM     11  C   UNL     1      25.901   5.000  71.883  0.00  0.00    +0.047 A 
ATOM     12  C   UNL     1      26.082   5.592  73.199  0.00  0.00    +0.035 A 
ATOM     32  C   UNL     1      27.383   6.044  73.564  0.00  0.00    +0.024 A 
ATOM     33  C   UNL     1      28.500   5.919  72.660  0.00  0.00    +0.007 A 
ATOM     34  C   UNL     1      28.328   5.333  71.361  0.00  0.00    -0.029 A 
ATOM     35  C   UNL     1      29.562   5.218  70.436  0.00  0.00    +0.045 C 
ENDROOT
BRANCH  10   9
ATOM      4  C   UNL     1      26.678   1.072  68.063  0.00  0.00    +0.077 A 
ATOM      5  C   UNL     1      27.032   0.161  69.114  0.00  0.00    +0.048 A 
ATOM      6  C   UNL     1      27.293   0.711  70.389  0.00  0.00    +0.116 A 
ATOM      7  N   UNL     1      27.203   2.072  70.587  0.00  0.00    -0.223 NA
ATOM      8  C   UNL     1      26.861   2.923  69.552  0.00  0.00    +0.220 A 
ATOM      9  N   UNL     1      26.757   4.293  69.730  0.00  0.00    -0.283 N 
ATOM     36  H   UNL     1      26.510   4.888  68.939  0.00  0.00    +0.155 HD
ATOM     37  N   UNL     1      26.609   2.422  68.324  0.00  0.00    -0.214 NA
BRANCH   4   3
ATOM      1  C   UNL     1      24.889   0.565  64.622  0.00  0.00    +0.020 A 
ATOM      2  C   UNL     1      25.137   1.005  65.975  0.00  0.00    +0.013 A 
ATOM      3  C   UNL     1      26.371   0.643  66.662  0.00  0.00    +0.019 A 
ATOM     38  C   UNL     1      27.341  -0.171  65.945  0.00  0.00    +0.120 A 
ATOM     39  N   UNL     1      27.074  -0.581  64.642  0.00  0.00    -0.263 NA
ATOM     40  C   UNL     1      25.889  -0.240  63.972  0.00  0.00    +0.111 A 
ENDBRANCH   4   3
ENDBRANCH  10   9
BRANCH  12  13
ATOM     13  N   UNL     1      25.017   5.743  74.160  0.00  0.00    -0.281 N 
ATOM     14  C   UNL     1      24.863   5.086  75.370  0.00  0.00    +0.248 C 
ATOM     30  O   UNL     1      25.510   4.108  75.713  0.00  0.00    -0.270 OA
ATOM     31  H   UNL     1      24.289   6.415  73.919  0.00  0.00    +0.155 HD
BRANCH  14  15
ATOM     15  C   UNL     1      23.831   5.579  76.332  0.00  0.00    +0.037 A 
ATOM     16  C   UNL     1      23.247   6.917  76.202  0.00  0.00    +0.013 A 
ATOM     17  C   UNL     1      22.266   7.374  77.154  0.00  0.00    +0.005 A 
ATOM     18  C   UNL     1      21.861   6.490  78.245  0.00  0.00    -0.033 A 
ATOM     28  C   UNL     1      22.452   5.166  78.347  0.00  0.00    +0.005 A 
ATOM     29  C   UNL     1      23.414   4.715  77.417  0.00  0.00    +0.013 A 
BRANCH  18  19
ATOM     19  C   UNL     1      20.836   6.903  79.318  0.00  0.00    +0.119 C 
BRANCH  19  20
ATOM     20  N   UNL     1      19.493   7.352  78.845  0.00  0.00    -0.302 NA
ATOM     21  C   UNL     1      19.222   8.818  79.193  0.00  0.00    +0.066 C 
ATOM     22  C   UNL     1      17.822   9.278  78.670  0.00  0.00    -0.064 C 
ATOM     23  N   UNL     1      16.738   8.372  79.258  0.00  0.00    +0.379 N 
ATOM     24  C   UNL     1      15.416   8.837  78.815  0.00  0.00    -0.096 C 
ATOM     25  H   UNL     1      16.778   8.473  80.368  0.00  0.00    -0.082 HD
ATOM     26  C   UNL     1      17.002   6.912  78.919  0.00  0.00    -0.064 C 
ATOM     27  C   UNL     1      18.407   6.473  79.417  0.00  0.00    +0.066 C 
ENDBRANCH  19  20
ENDBRANCH  18  19
ENDBRANCH  14  15
ENDBRANCH  12  13
TORSDOF 6
ENDMDL
MODEL 3
REMARK VINA RESULT:      -9.4     11.441     22.357
REMARK  Name = C:\Users\Docking\Desktop\test protocol\1iep_ligandH.pdb
REMARK  8 active torsions:
REMARK  status: ('A' for Active; 'I' for Inactive)
REMARK    1  A    between atoms: _5  and  _11
REMARK    2  A    between atoms: _19  and  _21
REMARK    3  A    between atoms: _22  and  _66
REMARK    4  A    between atoms: _27  and  _30
REMARK    5  A    between atoms: _32  and  _33
REMARK    6  A    between atoms: _38  and  _43
REMARK    7  A    between atoms: _43  and  _46
REMARK    8  A    between atoms: _53  and  _55
REMARK                            x       y       z     vdW  Elec       q    Type
REMARK                         _______ _______ _______ _____ _____    ______ ____
ROOT
ATOM     10  C   UNL     1       2.606  23.778  65.231  0.00  0.00    +0.038 A 
ATOM     11  C   UNL     1       3.033  25.129  65.299  0.00  0.00    +0.047 A 
ATOM     12  C   UNL     1       3.377  25.870  64.095  0.00  0.00    +0.035 A 
ATOM     32  C   UNL     1       3.273  25.205  62.839  0.00  0.00    +0.024 A 
ATOM     33  C   UNL     1       2.842  23.832  62.752  0.00  0.00    +0.007 A 
ATOM     34  C   UNL     1       2.503  23.095  63.936  0.00  0.00    -0.029 A 
ATOM     35  C   UNL     1       2.053  21.623  63.784  0.00  0.00    +0.045 C 
ENDROOT
BRANCH  10   9
ATOM      4  C   UNL     1      -0.515  22.422  68.616  0.00  0.00    +0.077 A 
ATOM      5  C   UNL     1      -1.597  23.116  67.980  0.00  0.00    +0.048 A 
ATOM      6  C   UNL     1      -1.307  23.817  66.788  0.00  0.00    +0.116 A 
ATOM      7  N   UNL     1      -0.027  23.815  66.278  0.00  0.00    -0.223 NA
ATOM      8  C   UNL     1       0.994  23.136  66.917  0.00  0.00    +0.220 A 
ATOM      9  N   UNL     1       2.288  23.115  66.418  0.00  0.00    -0.283 N 
ATOM     36  H   UNL     1       3.015  22.608  66.923  0.00  0.00    +0.155 HD
ATOM     37  N   UNL     1       0.744  22.461  68.058  0.00  0.00    -0.214 NA
BRANCH   4   3
ATOM      1  C   UNL     1      -1.531  21.316  72.228  0.00  0.00    +0.020 A 
ATOM      2  C   UNL     1      -1.418  22.117  71.031  0.00  0.00    +0.013 A 
ATOM      3  C   UNL     1      -0.663  21.634  69.881  0.00  0.00    +0.019 A 
ATOM     38  C   UNL     1      -0.032  20.326  69.975  0.00  0.00    +0.120 A 
ATOM     39  N   UNL     1      -0.157  19.579  71.142  0.00  0.00    -0.263 NA
ATOM     40  C   UNL     1      -0.879  20.034  72.256  0.00  0.00    +0.111 A 
ENDBRANCH   4   3
ENDBRANCH  10   9
BRANCH  12  13
ATOM     13  N   UNL     1       3.824  27.241  64.102  0.00  0.00    -0.281 N 
ATOM     14  C   UNL     1       3.538  28.225  65.034  0.00  0.00    +0.248 C 
ATOM     30  O   UNL     1       2.675  28.133  65.895  0.00  0.00    -0.270 OA
ATOM     31  H   UNL     1       4.425  27.520  63.326  0.00  0.00    +0.155 HD
BRANCH  14  15
ATOM     15  C   UNL     1       4.313  29.503  64.996  0.00  0.00    +0.037 A 
ATOM     16  C   UNL     1       3.785  30.730  65.597  0.00  0.00    +0.013 A 
ATOM     17  C   UNL     1       4.545  31.953  65.531  0.00  0.00    +0.005 A 
ATOM     18  C   UNL     1       5.843  31.954  64.861  0.00  0.00    -0.033 A 
ATOM     28  C   UNL     1       6.345  30.722  64.277  0.00  0.00    +0.005 A 
ATOM     29  C   UNL     1       5.603  29.521  64.339  0.00  0.00    +0.013 A 
BRANCH  18  19
ATOM     19  C   UNL     1       6.713  33.218  64.725  0.00  0.00    +0.119 C 
BRANCH  19  20
ATOM     20  N   UNL     1       7.112  33.628  63.345  0.00  0.00    -0.302 NA
ATOM     21  C   UNL     1       7.029  35.144  63.149  0.00  0.00    +0.066 C 
ATOM     22  C   UNL     1       7.472  35.557  61.708  0.00  0.00    -0.064 C 
ATOM     23  N   UNL     1       6.601  34.830  60.682  0.00  0.00    +0.379 N 
ATOM     24  C   UNL     1       6.976  35.260  59.327  0.00  0.00    -0.096 C 
ATOM     25  H   UNL     1       5.544  35.140  60.855  0.00  0.00    -0.082 HD
ATOM     26  C   UNL     1       6.676  33.321  60.871  0.00  0.00    -0.064 C 
ATOM     27  C   UNL     1       6.262  32.924  62.316  0.00  0.00    +0.066 C 
ENDBRANCH  19  20
ENDBRANCH  18  19
ENDBRANCH  14  15
ENDBRANCH  12  13
TORSDOF 6
ENDMDL
MODEL 4
REMARK VINA RESULT:      -9.3     20.117     22.043
REMARK  Name = C:\Users\Docking\Desktop\test protocol\1iep_ligandH.pdb
REMARK  8 active torsions:
REMARK  status: ('A' for Active; 'I' for Inactive)
REMARK    1  A    between atoms: _5  and  _11
REMARK    2  A    between atoms: _19  and  _21
REMARK    3  A    between atoms: _22  and  _66
REMARK    4  A    between atoms: _27  and  _30
REMARK    5  A    between atoms: _32  and  _33
REMARK    6  A    between atoms: _38  and  _43
REMARK    7  A    between atoms: _43  and  _46
REMARK    8  A    between atoms: _53  and  _55
REMARK                            x       y       z     vdW  Elec       q    Type
REMARK                         _______ _______ _______ _____ _____    ______ ____
ROOT
ATOM     10  C   UNL     1       6.856  24.350  55.170  0.00  0.00    +0.038 A 
ATOM     11  C   UNL     1       6.281  23.981  56.413  0.00  0.00    +0.047 A 
ATOM     12  C   UNL     1       5.055  24.602  56.889  0.00  0.00    +0.035 A 
ATOM     32  C   UNL     1       4.438  25.593  56.071  0.00  0.00    +0.024 A 
ATOM     33  C   UNL     1       5.010  25.981  54.805  0.00  0.00    +0.007 A 
ATOM     34  C   UNL     1       6.221  25.374  54.332  0.00  0.00    -0.029 A 
ATOM     35  C   UNL     1       6.792  25.833  52.970  0.00  0.00    +0.045 C 
ENDROOT
BRANCH  10   9
ATOM      4  C   UNL     1       9.240  20.624  53.306  0.00  0.00    +0.077 A 
ATOM      5  C   UNL     1       8.039  19.854  53.157  0.00  0.00    +0.048 A 
ATOM      6  C   UNL     1       6.829  20.451  53.579  0.00  0.00    +0.116 A 
ATOM      7  N   UNL     1       6.833  21.723  54.108  0.00  0.00    -0.223 NA
ATOM      8  C   UNL     1       8.009  22.437  54.240  0.00  0.00    +0.220 A 
ATOM      9  N   UNL     1       8.035  23.721  54.762  0.00  0.00    -0.283 N 
ATOM     36  H   UNL     1       8.924  24.212  54.850  0.00  0.00    +0.155 HD
ATOM     37  N   UNL     1       9.178  21.889  53.846  0.00  0.00    -0.214 NA
BRANCH   4   3
ATOM      1  C   UNL     1      12.139  18.778  51.439  0.00  0.00    +0.020 A 
ATOM      2  C   UNL     1      10.809  19.222  51.786  0.00  0.00    +0.013 A 
ATOM      3  C   UNL     1      10.596  20.133  52.904  0.00  0.00    +0.019 A 
ATOM     38  C   UNL     1      11.759  20.580  53.655  0.00  0.00    +0.120 A 
ATOM     39  N   UNL     1      13.028  20.134  53.298  0.00  0.00    -0.263 NA
ATOM     40  C   UNL     1      13.245  19.256  52.226  0.00  0.00    +0.111 A 
ENDBRANCH   4   3
ENDBRANCH  10   9
BRANCH  12  13
ATOM     13  N   UNL     1       4.429  24.274  58.146  0.00  0.00    -0.281 N 
ATOM     14  C   UNL     1       3.242  23.591  58.354  0.00  0.00    +0.248 C 
ATOM     30  O   UNL     1       2.425  23.342  57.479  0.00  0.00    -0.270 OA
ATOM     31  H   UNL     1       4.921  24.583  58.984  0.00  0.00    +0.155 HD
BRANCH  14  15
ATOM     15  C   UNL     1       2.907  23.129  59.735  0.00  0.00    +0.037 A 
ATOM     16  C   UNL     1       1.536  23.191  60.246  0.00  0.00    +0.013 A 
ATOM     17  C   UNL     1       1.243  22.755  61.588  0.00  0.00    +0.005 A 
ATOM     18  C   UNL     1       2.326  22.250  62.429  0.00  0.00    -0.033 A 
ATOM     28  C   UNL     1       3.677  22.195  61.896  0.00  0.00    +0.005 A 
ATOM     29  C   UNL     1       3.967  22.623  60.581  0.00  0.00    +0.013 A 
BRANCH  18  19
ATOM     19  C   UNL     1       2.109  21.784  63.881  0.00  0.00    +0.119 C 
BRANCH  19  20
ATOM     20  N   UNL     1       1.928  22.841  64.920  0.00  0.00    -0.302 NA
ATOM     21  C   UNL     1       2.895  24.012  64.721  0.00  0.00    +0.066 C 
ATOM     22  C   UNL     1       2.677  25.120  65.803  0.00  0.00    -0.064 C 
ATOM     23  N   UNL     1       2.844  24.509  67.195  0.00  0.00    +0.379 N 
ATOM     24  C   UNL     1       2.697  25.560  68.213  0.00  0.00    -0.096 C 
ATOM     25  H   UNL     1       3.884  24.111  67.267  0.00  0.00    -0.082 HD
ATOM     26  C   UNL     1       1.889  23.342  67.400  0.00  0.00    -0.064 C 
ATOM     27  C   UNL     1       2.094  22.261  66.302  0.00  0.00    +0.066 C 
ENDBRANCH  19  20
ENDBRANCH  18  19
ENDBRANCH  14  15
ENDBRANCH  12  13
TORSDOF 6
ENDMDL
MODEL 5
REMARK VINA RESULT:      -9.2     20.187     24.729
REMARK  Name = C:\Users\Docking\Desktop\test protocol\1iep_ligandH.pdb
REMARK  8 active torsions:
REMARK  status: ('A' for Active; 'I' for Inactive)
REMARK    1  A    between atoms: _5  and  _11
REMARK    2  A    between atoms: _19  and  _21
REMARK    3  A    between atoms: _22  and  _66
REMARK    4  A    between atoms: _27  and  _30
REMARK    5  A    between atoms: _32  and  _33
REMARK    6  A    between atoms: _38  and  _43
REMARK    7  A    between atoms: _43  and  _46
REMARK    8  A    between atoms: _53  and  _55
REMARK                            x       y       z     vdW  Elec       q    Type
REMARK                         _______ _______ _______ _____ _____    ______ ____
ROOT
ATOM     10  C   UNL     1       1.346  23.014  67.258  0.00  0.00    +0.038 A 
ATOM     11  C   UNL     1       2.244  22.967  66.161  0.00  0.00    +0.047 A 
ATOM     12  C   UNL     1       1.798  23.270  64.810  0.00  0.00    +0.035 A 
ATOM     32  C   UNL     1       0.430  23.620  64.613  0.00  0.00    +0.024 A 
ATOM     33  C   UNL     1      -0.496  23.671  65.717  0.00  0.00    +0.007 A 
ATOM     34  C   UNL     1      -0.062  23.371  67.051  0.00  0.00    -0.029 A 
ATOM     35  C   UNL     1      -1.101  23.436  68.195  0.00  0.00    +0.045 C 
ENDROOT
BRANCH  10   9
ATOM      4  C   UNL     1       2.249  19.932  70.825  0.00  0.00    +0.077 A 
ATOM      5  C   UNL     1       1.687  18.832  70.096  0.00  0.00    +0.048 A 
ATOM      6  C   UNL     1       1.171  19.103  68.809  0.00  0.00    +0.116 A 
ATOM      7  N   UNL     1       1.217  20.382  68.300  0.00  0.00    -0.223 NA
ATOM      8  C   UNL     1       1.764  21.421  69.030  0.00  0.00    +0.220 A 
ATOM      9  N   UNL     1       1.829  22.714  68.534  0.00  0.00    -0.283 N 
ATOM     36  H   UNL     1       2.233  23.454  69.107  0.00  0.00    +0.155 HD
ATOM     37  N   UNL     1       2.263  21.189  70.262  0.00  0.00    -0.214 NA
BRANCH   4   3
ATOM      1  C   UNL     1       4.791  19.642  73.784  0.00  0.00    +0.020 A 
ATOM      2  C   UNL     1       4.274  19.765  72.441  0.00  0.00    +0.013 A 
ATOM      3  C   UNL     1       2.838  19.805  72.196  0.00  0.00    +0.019 A 
ATOM     38  C   UNL     1       1.945  19.718  73.342  0.00  0.00    +0.120 A 
ATOM     39  N   UNL     1       2.472  19.598  74.624  0.00  0.00    -0.263 NA
ATOM     40  C   UNL     1       3.852  19.557  74.871  0.00  0.00    +0.111 A 
ENDBRANCH   4   3
ENDBRANCH  10   9
BRANCH  12  13
ATOM     13  N   UNL     1       2.661  23.231  63.656  0.00  0.00    -0.281 N 
ATOM     14  C   UNL     1       2.426  22.617  62.437  0.00  0.00    +0.248 C 
ATOM     30  O   UNL     1       1.522  21.822  62.226  0.00  0.00    -0.270 OA
ATOM     31  H   UNL     1       3.554  23.715  63.750  0.00  0.00    +0.155 HD
BRANCH  14  15
ATOM     15  C   UNL     1       3.335  22.918  61.290  0.00  0.00    +0.037 A 
ATOM     16  C   UNL     1       2.879  22.786  59.903  0.00  0.00    +0.013 A 
ATOM     17  C   UNL     1       3.782  23.067  58.815  0.00  0.00    +0.005 A 
ATOM     18  C   UNL     1       5.151  23.484  59.110  0.00  0.00    -0.033 A 
ATOM     28  C   UNL     1       5.575  23.612  60.494  0.00  0.00    +0.005 A 
ATOM     29  C   UNL     1       4.694  23.337  61.563  0.00  0.00    +0.013 A 
BRANCH  18  19
ATOM     19  C   UNL     1       6.188  23.783  58.011  0.00  0.00    +0.119 C 
BRANCH  19  20
ATOM     20  N   UNL     1       5.672  24.029  56.632  0.00  0.00    -0.302 NA
ATOM     21  C   UNL     1       6.645  23.535  55.558  0.00  0.00    +0.066 C 
ATOM     22  C   UNL     1       6.080  23.779  54.121  0.00  0.00    -0.064 C 
ATOM     23  N   UNL     1       5.783  25.269  53.939  0.00  0.00    +0.379 N 
ATOM     24  C   UNL     1       5.306  25.511  52.570  0.00  0.00    -0.096 C 
ATOM     25  H   UNL     1       6.743  25.822  54.066  0.00  0.00    -0.082 HD
ATOM     26  C   UNL     1       4.818  25.769  55.005  0.00  0.00    -0.064 C 
ATOM     27  C   UNL     1       5.377  25.495  56.429  0.00  0.00    +0.066 C 
ENDBRANCH  19  20
ENDBRANCH  18  19
ENDBRANCH  14  15
ENDBRANCH  12  13
TORSDOF 6
ENDMDL
