MODEL 1
REMARK VINA RESULT:      -8.0      0.000      0.000
REMARK  Name = C:\Users\Docking\Desktop\test protocol\1iep_ligandH.pdb
REMARK  8 active torsions:
REMARK  status: ('A' for Active; 'I' for Inactive)
REMARK    1  A    between atoms: _5  and  _11
REMARK    2  A    between atoms: _19  and  _21
REMARK    3  A    between atoms: _22  and  _66
REMARK    4  A    between atoms: _27  and  _30
REMARK    5  A    between atoms: _32  and  _33
REMARK    6  A    between atoms: _38  and  _43
REMARK    7  A    between atoms: _43  and  _46
REMARK    8  A    between atoms: _53  and  _55
REMARK                            x       y       z     vdW  Elec       q    Type
REMARK                         _______ _______ _______ _____ _____    ______ ____
ROOT
ATOM     10  C   UNL     1      54.383  66.889  54.469  0.00  0.00    +0.038 A 
ATOM     11  C   UNL     1      54.938  66.662  53.184  0.00  0.00    +0.047 A 
ATOM     12  C   UNL     1      54.928  65.337  52.584  0.00  0.00    +0.035 A 
ATOM     32  C   UNL     1      54.341  64.266  53.319  0.00  0.00    +0.024 A 
ATOM     33  C   UNL     1      53.773  64.480  54.627  0.00  0.00    +0.007 A 
ATOM     34  C   UNL     1      53.783  65.784  55.226  0.00  0.00    -0.029 A 
ATOM     35  C   UNL     1      53.165  65.953  56.633  0.00  0.00    +0.045 C 
ENDROOT
BRANCH  10   9
ATOM      4  C   UNL     1      56.557  70.401  56.914  0.00  0.00    +0.077 A 
ATOM      5  C   UNL     1      57.704  69.583  57.185  0.00  0.00    +0.048 A 
ATOM      6  C   UNL     1      57.692  68.263  56.683  0.00  0.00    +0.116 A 
ATOM      7  N   UNL     1      56.609  67.805  55.965  0.00  0.00    -0.223 NA
ATOM      8  C   UNL     1      55.517  68.619  55.724  0.00  0.00    +0.220 A 
ATOM      9  N   UNL     1      54.420  68.182  54.998  0.00  0.00    -0.283 N 
ATOM     36  H   UNL     1      53.632  68.810  54.848  0.00  0.00    +0.155 HD
ATOM     37  N   UNL     1      55.504  69.884  56.194  0.00  0.00    -0.214 NA
BRANCH   4   3
ATOM      1  C   UNL     1      56.514  73.614  59.146  0.00  0.00    +0.020 A 
ATOM      2  C   UNL     1      56.658  72.231  58.753  0.00  0.00    +0.013 A 
ATOM      3  C   UNL     1      56.421  71.819  57.375  0.00  0.00    +0.019 A 
ATOM     38  C   UNL     1      56.039  72.840  56.411  0.00  0.00    +0.120 A 
ATOM     39  N   UNL     1      55.907  74.164  56.819  0.00  0.00    -0.263 NA
ATOM     40  C   UNL     1      56.130  74.571  58.142  0.00  0.00    +0.111 A 
ENDBRANCH   4   3
ENDBRANCH  10   9
BRANCH  12  13
ATOM     13  N   UNL     1      55.484  65.044  51.286  0.00  0.00    -0.281 N 
ATOM     14  C   UNL     1      56.385  64.046  50.951  0.00  0.00    +0.248 C 
ATOM     30  O   UNL     1      57.017  63.385  51.761  0.00  0.00    -0.270 OA
ATOM     31  H   UNL     1      55.176  65.645  50.521  0.00  0.00    +0.155 HD
BRANCH  14  15
ATOM     15  C   UNL     1      56.630  63.751  49.506  0.00  0.00    +0.037 A 
ATOM     16  C   UNL     1      55.563  63.238  48.644  0.00  0.00    +0.013 A 
ATOM     17  C   UNL     1      55.831  62.945  47.258  0.00  0.00    +0.005 A 
ATOM     18  C   UNL     1      57.173  63.165  46.726  0.00  0.00    -0.033 A 
ATOM     28  C   UNL     1      58.212  63.679  47.603  0.00  0.00    +0.005 A 
ATOM     29  C   UNL     1      57.954  63.967  48.962  0.00  0.00    +0.013 A 
BRANCH  18  19
ATOM     19  C   UNL     1      57.555  62.860  45.265  0.00  0.00    +0.119 C 
BRANCH  19  20
ATOM     20  N   UNL     1      58.268  61.575  44.999  0.00  0.00    -0.302 NA
ATOM     21  C   UNL     1      57.935  60.506  46.044  0.00  0.00    +0.066 C 
ATOM     22  C   UNL     1      58.671  59.161  45.738  0.00  0.00    -0.064 C 
ATOM     23  N   UNL     1      60.179  59.411  45.679  0.00  0.00    +0.379 N 
ATOM     24  C   UNL     1      60.878  58.138  45.449  0.00  0.00    -0.096 C 
ATOM     25  H   UNL     1      60.497  59.796  46.676  0.00  0.00    -0.082 HD
ATOM     26  C   UNL     1      60.519  60.474  44.645  0.00  0.00    -0.064 C 
ATOM     27  C   UNL     1      59.759  61.797  44.942  0.00  0.00    +0.066 C 
ENDBRANCH  19  20
ENDBRANCH  18  19
ENDBRANCH  14  15
ENDBRANCH  12  13
TORSDOF 6
ENDMDL
MODEL 2
REMARK VINA RESULT:      -7.8     26.609     28.698
REMARK  Name = C:\Users\Docking\Desktop\test protocol\1iep_ligandH.pdb
REMARK  8 active torsions:
REMARK  status: ('A' for Active; 'I' for Inactive)
REMARK    1  A    between atoms: _5  and  _11
REMARK    2  A    between atoms: _19  and  _21
REMARK    3  A    between atoms: _22  and  _66
REMARK    4  A    between atoms: _27  and  _30
REMARK    5  A    between atoms: _32  and  _33
REMARK    6  A    between atoms: _38  and  _43
REMARK    7  A    between atoms: _43  and  _46
REMARK    8  A    between atoms: _53  and  _55
REMARK                            x       y       z     vdW  Elec       q    Type
REMARK                         _______ _______ _______ _____ _____    ______ ____
ROOT
ATOM     10  C   UNL     1      82.761  77.682  58.687  0.00  0.00    +0.038 A 
ATOM     11  C   UNL     1      82.227  76.376  58.828  0.00  0.00    +0.047 A 
ATOM     12  C   UNL     1      82.306  75.663  60.093  0.00  0.00    +0.035 A 
ATOM     32  C   UNL     1      82.932  76.312  61.197  0.00  0.00    +0.024 A 
ATOM     33  C   UNL     1      83.481  77.639  61.071  0.00  0.00    +0.007 A 
ATOM     34  C   UNL     1      83.409  78.347  59.825  0.00  0.00    -0.029 A 
ATOM     35  C   UNL     1      84.020  79.765  59.746  0.00  0.00    +0.045 C 
ENDROOT
BRANCH  10   9
ATOM      4  C   UNL     1      80.614  80.724  55.659  0.00  0.00    +0.077 A 
ATOM      5  C   UNL     1      79.594  81.049  56.614  0.00  0.00    +0.048 A 
ATOM      6  C   UNL     1      79.655  80.406  57.871  0.00  0.00    +0.116 A 
ATOM      7  N   UNL     1      80.664  79.508  58.141  0.00  0.00    -0.223 NA
ATOM      8  C   UNL     1      81.630  79.215  57.196  0.00  0.00    +0.220 A 
ATOM      9  N   UNL     1      82.658  78.321  57.449  0.00  0.00    -0.283 N 
ATOM     36  H   UNL     1      83.348  78.126  56.723  0.00  0.00    +0.155 HD
ATOM     37  N   UNL     1      81.594  79.815  55.988  0.00  0.00    -0.214 NA
BRANCH   4   3
ATOM      1  C   UNL     1      79.776  82.755  52.422  0.00  0.00    +0.020 A 
ATOM      2  C   UNL     1      79.656  82.202  53.752  0.00  0.00    +0.013 A 
ATOM      3  C   UNL     1      80.687  81.323  54.288  0.00  0.00    +0.019 A 
ATOM     38  C   UNL     1      81.836  81.020  53.448  0.00  0.00    +0.120 A 
ATOM     39  N   UNL     1      81.923  81.566  52.171  0.00  0.00    -0.263 NA
ATOM     40  C   UNL     1      80.937  82.412  51.643  0.00  0.00    +0.111 A 
ENDBRANCH   4   3
ENDBRANCH  10   9
BRANCH  12  13
ATOM     13  N   UNL     1      81.789  74.332  60.293  0.00  0.00    -0.281 N 
ATOM     14  C   UNL     1      82.380  73.128  59.947  0.00  0.00    +0.248 C 
ATOM     30  O   UNL     1      83.354  73.021  59.217  0.00  0.00    -0.270 OA
ATOM     31  H   UNL     1      80.876  74.270  60.744  0.00  0.00    +0.155 HD
BRANCH  14  15
ATOM     15  C   UNL     1      81.797  71.858  60.478  0.00  0.00    +0.037 A 
ATOM     16  C   UNL     1      81.709  71.607  61.919  0.00  0.00    +0.013 A 
ATOM     17  C   UNL     1      81.158  70.366  62.405  0.00  0.00    +0.005 A 
ATOM     18  C   UNL     1      80.689  69.368  61.447  0.00  0.00    -0.033 A 
ATOM     28  C   UNL     1      80.783  69.646  60.023  0.00  0.00    +0.005 A 
ATOM     29  C   UNL     1      81.323  70.860  59.544  0.00  0.00    +0.013 A 
BRANCH  18  19
ATOM     19  C   UNL     1      80.105  68.008  61.874  0.00  0.00    +0.119 C 
BRANCH  19  20
ATOM     20  N   UNL     1      81.062  66.988  62.399  0.00  0.00    -0.302 NA
ATOM     21  C   UNL     1      82.271  66.807  61.476  0.00  0.00    +0.066 C 
ATOM     22  C   UNL     1      83.273  65.753  62.051  0.00  0.00    -0.064 C 
ATOM     23  N   UNL     1      82.546  64.423  62.260  0.00  0.00    +0.379 N 
ATOM     24  C   UNL     1      83.498  63.414  62.746  0.00  0.00    -0.096 C 
ATOM     25  H   UNL     1      82.170  64.084  61.266  0.00  0.00    -0.082 HD
ATOM     26  C   UNL     1      81.341  64.595  63.174  0.00  0.00    -0.064 C 
ATOM     27  C   UNL     1      80.366  65.666  62.608  0.00  0.00    +0.066 C 
ENDBRANCH  19  20
ENDBRANCH  18  19
ENDBRANCH  14  15
ENDBRANCH  12  13
TORSDOF 6
ENDMDL
MODEL 3
REMARK VINA RESULT:      -7.7     24.788     27.219
REMARK  Name = C:\Users\Docking\Desktop\test protocol\1iep_ligandH.pdb
REMARK  8 active torsions:
REMARK  status: ('A' for Active; 'I' for Inactive)
REMARK    1  A    between atoms: _5  and  _11
REMARK    2  A    between atoms: _19  and  _21
REMARK    3  A    between atoms: _22  and  _66
REMARK    4  A    between atoms: _27  and  _30
REMARK    5  A    between atoms: _32  and  _33
REMARK    6  A    between atoms: _38  and  _43
REMARK    7  A    between atoms: _43  and  _46
REMARK    8  A    between atoms: _53  and  _55
REMARK                            x       y       z     vdW  Elec       q    Type
REMARK                         _______ _______ _______ _____ _____    ______ ____
ROOT
ATOM     10  C   UNL     1      81.216  75.430  59.800  0.00  0.00    +0.038 A 
ATOM     11  C   UNL     1      80.859  74.239  60.483  0.00  0.00    +0.047 A 
ATOM     12  C   UNL     1      81.809  73.150  60.643  0.00  0.00    +0.035 A 
ATOM     32  C   UNL     1      83.117  73.308  60.099  0.00  0.00    +0.024 A 
ATOM     33  C   UNL     1      83.497  74.511  59.401  0.00  0.00    +0.007 A 
ATOM     34  C   UNL     1      82.563  75.588  59.238  0.00  0.00    -0.029 A 
ATOM     35  C   UNL     1      83.023  76.853  58.475  0.00  0.00    +0.045 C 
ENDROOT
BRANCH  10   9
ATOM      4  C   UNL     1      78.927  79.314  61.449  0.00  0.00    +0.077 A 
ATOM      5  C   UNL     1      79.673  79.305  62.675  0.00  0.00    +0.048 A 
ATOM      6  C   UNL     1      80.630  78.281  62.845  0.00  0.00    +0.116 A 
ATOM      7  N   UNL     1      80.821  77.340  61.856  0.00  0.00    -0.223 NA
ATOM      8  C   UNL     1      80.084  77.376  60.686  0.00  0.00    +0.220 A 
ATOM      9  N   UNL     1      80.264  76.445  59.675  0.00  0.00    -0.283 N 
ATOM     36  H   UNL     1      79.696  76.501  58.831  0.00  0.00    +0.155 HD
ATOM     37  N   UNL     1      79.162  78.343  60.500  0.00  0.00    -0.214 NA
BRANCH   4   3
ATOM      1  C   UNL     1      77.148  82.568  60.208  0.00  0.00    +0.020 A 
ATOM      2  C   UNL     1      78.195  81.618  60.506  0.00  0.00    +0.013 A 
ATOM      3  C   UNL     1      77.882  80.334  61.120  0.00  0.00    +0.019 A 
ATOM     38  C   UNL     1      76.490  80.040  61.422  0.00  0.00    +0.120 A 
ATOM     39  N   UNL     1      75.503  80.975  61.126  0.00  0.00    -0.263 NA
ATOM     40  C   UNL     1      75.792  82.215  60.536  0.00  0.00    +0.111 A 
ENDBRANCH   4   3
ENDBRANCH  10   9
BRANCH  12  13
ATOM     13  N   UNL     1      81.500  71.914  61.319  0.00  0.00    -0.281 N 
ATOM     14  C   UNL     1      81.320  70.660  60.760  0.00  0.00    +0.248 C 
ATOM     30  O   UNL     1      81.185  70.449  59.564  0.00  0.00    -0.270 OA
ATOM     31  H   UNL     1      81.402  71.971  62.333  0.00  0.00    +0.155 HD
BRANCH  14  15
ATOM     15  C   UNL     1      81.266  69.468  61.661  0.00  0.00    +0.037 A 
ATOM     16  C   UNL     1      81.969  69.456  62.946  0.00  0.00    +0.013 A 
ATOM     17  C   UNL     1      81.915  68.287  63.789  0.00  0.00    +0.005 A 
ATOM     18  C   UNL     1      81.153  67.121  63.348  0.00  0.00    -0.033 A 
ATOM     28  C   UNL     1      80.461  67.163  62.071  0.00  0.00    +0.005 A 
ATOM     29  C   UNL     1      80.512  68.306  61.242  0.00  0.00    +0.013 A 
BRANCH  18  19
ATOM     19  C   UNL     1      81.058  65.824  64.173  0.00  0.00    +0.119 C 
BRANCH  19  20
ATOM     20  N   UNL     1      79.966  64.868  63.820  0.00  0.00    -0.302 NA
ATOM     21  C   UNL     1      79.089  64.527  65.029  0.00  0.00    +0.066 C 
ATOM     22  C   UNL     1      77.938  63.544  64.637  0.00  0.00    -0.064 C 
ATOM     23  N   UNL     1      78.539  62.276  64.028  0.00  0.00    +0.379 N 
ATOM     24  C   UNL     1      77.463  61.325  63.712  0.00  0.00    -0.096 C 
ATOM     25  H   UNL     1      79.190  61.805  64.801  0.00  0.00    -0.082 HD
ATOM     26  C   UNL     1      79.415  62.607  62.828  0.00  0.00    -0.064 C 
ATOM     27  C   UNL     1      80.537  63.607  63.221  0.00  0.00    +0.066 C 
ENDBRANCH  19  20
ENDBRANCH  18  19
ENDBRANCH  14  15
ENDBRANCH  12  13
TORSDOF 6
ENDMDL
MODEL 4
REMARK VINA RESULT:      -7.6      4.621     14.599
REMARK  Name = C:\Users\Docking\Desktop\test protocol\1iep_ligandH.pdb
REMARK  8 active torsions:
REMARK  status: ('A' for Active; 'I' for Inactive)
REMARK    1  A    between atoms: _5  and  _11
REMARK    2  A    between atoms: _19  and  _21
REMARK    3  A    between atoms: _22  and  _66
REMARK    4  A    between atoms: _27  and  _30
REMARK    5  A    between atoms: _32  and  _33
REMARK    6  A    between atoms: _38  and  _43
REMARK    7  A    between atoms: _43  and  _46
REMARK    8  A    between atoms: _53  and  _55
REMARK                            x       y       z     vdW  Elec       q    Type
REMARK                         _______ _______ _______ _____ _____    ______ ____
ROOT
ATOM     10  C   UNL     1      59.600  60.266  43.199  0.00  0.00    +0.038 A 
ATOM     11  C   UNL     1      59.365  61.078  44.337  0.00  0.00    +0.047 A 
ATOM     12  C   UNL     1      58.405  60.686  45.357  0.00  0.00    +0.035 A 
ATOM     32  C   UNL     1      57.703  59.457  45.186  0.00  0.00    +0.024 A 
ATOM     33  C   UNL     1      57.929  58.619  44.035  0.00  0.00    +0.007 A 
ATOM     34  C   UNL     1      58.873  59.003  43.024  0.00  0.00    -0.029 A 
ATOM     35  C   UNL     1      59.070  58.069  41.808  0.00  0.00    +0.045 C 
ENDROOT
BRANCH  10   9
ATOM      4  C   UNL     1      60.845  62.841  39.344  0.00  0.00    +0.077 A 
ATOM      5  C   UNL     1      59.517  63.362  39.190  0.00  0.00    +0.048 A 
ATOM      6  C   UNL     1      58.541  62.936  40.119  0.00  0.00    +0.116 A 
ATOM      7  N   UNL     1      58.879  62.056  41.124  0.00  0.00    -0.223 NA
ATOM      8  C   UNL     1      60.169  61.571  41.243  0.00  0.00    +0.220 A 
ATOM      9  N   UNL     1      60.533  60.691  42.251  0.00  0.00    -0.283 N 
ATOM     36  H   UNL     1      61.493  60.351  42.301  0.00  0.00    +0.155 HD
ATOM     37  N   UNL     1      61.119  61.961  40.368  0.00  0.00    -0.214 NA
BRANCH   4   3
ATOM      1  C   UNL     1      64.339  62.891  37.586  0.00  0.00    +0.020 A 
ATOM      2  C   UNL     1      63.269  62.507  38.478  0.00  0.00    +0.013 A 
ATOM      3  C   UNL     1      61.986  63.198  38.444  0.00  0.00    +0.019 A 
ATOM     38  C   UNL     1      61.817  64.282  37.488  0.00  0.00    +0.120 A 
ATOM     39  N   UNL     1      62.866  64.631  36.643  0.00  0.00    -0.263 NA
ATOM     40  C   UNL     1      64.105  63.974  36.667  0.00  0.00    +0.111 A 
ENDBRANCH   4   3
ENDBRANCH  10   9
BRANCH  12  13
ATOM     13  N   UNL     1      58.118  61.474  46.530  0.00  0.00    -0.281 N 
ATOM     14  C   UNL     1      57.731  62.802  46.590  0.00  0.00    +0.248 C 
ATOM     30  O   UNL     1      57.779  63.579  45.648  0.00  0.00    -0.270 OA
ATOM     31  H   UNL     1      58.213  60.994  47.425  0.00  0.00    +0.155 HD
BRANCH  14  15
ATOM     15  C   UNL     1      57.232  63.351  47.887  0.00  0.00    +0.037 A 
ATOM     16  C   UNL     1      55.830  63.200  48.287  0.00  0.00    +0.013 A 
ATOM     17  C   UNL     1      55.371  63.753  49.536  0.00  0.00    +0.005 A 
ATOM     18  C   UNL     1      56.316  64.464  50.395  0.00  0.00    -0.033 A 
ATOM     28  C   UNL     1      57.701  64.595  49.976  0.00  0.00    +0.005 A 
ATOM     29  C   UNL     1      58.155  64.054  48.752  0.00  0.00    +0.013 A 
BRANCH  18  19
ATOM     19  C   UNL     1      55.909  65.105  51.735  0.00  0.00    +0.119 C 
BRANCH  19  20
ATOM     20  N   UNL     1      54.452  65.338  51.967  0.00  0.00    -0.302 NA
ATOM     21  C   UNL     1      53.917  66.507  51.135  0.00  0.00    +0.066 C 
ATOM     22  C   UNL     1      52.387  66.722  51.373  0.00  0.00    -0.064 C 
ATOM     23  N   UNL     1      52.134  66.958  52.863  0.00  0.00    +0.379 N 
ATOM     24  C   UNL     1      50.703  67.218  53.082  0.00  0.00    -0.096 C 
ATOM     25  H   UNL     1      52.694  67.874  53.160  0.00  0.00    -0.082 HD
ATOM     26  C   UNL     1      52.665  65.801  53.698  0.00  0.00    -0.064 C 
ATOM     27  C   UNL     1      54.179  65.577  53.432  0.00  0.00    +0.066 C 
ENDBRANCH  19  20
ENDBRANCH  18  19
ENDBRANCH  14  15
ENDBRANCH  12  13
TORSDOF 6
ENDMDL
MODEL 5
REMARK VINA RESULT:      -7.5     26.670     29.229
REMARK  Name = C:\Users\Docking\Desktop\test protocol\1iep_ligandH.pdb
REMARK  8 active torsions:
REMARK  status: ('A' for Active; 'I' for Inactive)
REMARK    1  A    between atoms: _5  and  _11
REMARK    2  A    between atoms: _19  and  _21
REMARK    3  A    between atoms: _22  and  _66
REMARK    4  A    between atoms: _27  and  _30
REMARK    5  A    between atoms: _32  and  _33
REMARK    6  A    between atoms: _38  and  _43
REMARK    7  A    between atoms: _43  and  _46
REMARK    8  A    between atoms: _53  and  _55
REMARK                            x       y       z     vdW  Elec       q    Type
REMARK                         _______ _______ _______ _____ _____    ______ ____
ROOT
ATOM     10  C   UNL     1      80.344  81.341  54.703  0.00  0.00    +0.038 A 
ATOM     11  C   UNL     1      80.731  80.386  55.677  0.00  0.00    +0.047 A 
ATOM     12  C   UNL     1      81.727  79.369  55.379  0.00  0.00    +0.035 A 
ATOM     32  C   UNL     1      82.311  79.355  54.079  0.00  0.00    +0.024 A 
ATOM     33  C   UNL     1      81.928  80.318  53.076  0.00  0.00    +0.007 A 
ATOM     34  C   UNL     1      80.944  81.322  53.363  0.00  0.00    -0.029 A 
ATOM     35  C   UNL     1      80.568  82.325  52.248  0.00  0.00    +0.045 C 
ENDROOT
BRANCH  10   9
ATOM      4  C   UNL     1      79.068  85.754  56.094  0.00  0.00    +0.077 A 
ATOM      5  C   UNL     1      80.433  86.187  56.177  0.00  0.00    +0.048 A 
ATOM      6  C   UNL     1      81.434  85.241  55.860  0.00  0.00    +0.116 A 
ATOM      7  N   UNL     1      81.084  83.961  55.489  0.00  0.00    -0.223 NA
ATOM      8  C   UNL     1      79.757  83.575  55.421  0.00  0.00    +0.220 A 
ATOM      9  N   UNL     1      79.382  82.296  55.043  0.00  0.00    -0.283 N 
ATOM     36  H   UNL     1      78.394  82.048  55.012  0.00  0.00    +0.155 HD
ATOM     37  N   UNL     1      78.783  84.460  55.720  0.00  0.00    -0.214 NA
BRANCH   4   3
ATOM      1  C   UNL     1      75.623  87.073  57.395  0.00  0.00    +0.020 A 
ATOM      2  C   UNL     1      76.726  86.179  57.131  0.00  0.00    +0.013 A 
ATOM      3  C   UNL     1      77.897  86.638  56.395  0.00  0.00    +0.019 A 
ATOM     38  C   UNL     1      77.921  88.019  55.938  0.00  0.00    +0.120 A 
ATOM     39  N   UNL     1      76.843  88.857  56.206  0.00  0.00    -0.263 NA
ATOM     40  C   UNL     1      75.710  88.426  56.912  0.00  0.00    +0.111 A 
ENDBRANCH   4   3
ENDBRANCH  10   9
BRANCH  12  13
ATOM     13  N   UNL     1      82.154  78.368  56.325  0.00  0.00    -0.281 N 
ATOM     14  C   UNL     1      82.214  78.471  57.705  0.00  0.00    +0.248 C 
ATOM     30  O   UNL     1      82.110  79.520  58.325  0.00  0.00    -0.270 OA
ATOM     31  H   UNL     1      82.448  77.475  55.929  0.00  0.00    +0.155 HD
BRANCH  14  15
ATOM     15  C   UNL     1      82.435  77.234  58.513  0.00  0.00    +0.037 A 
ATOM     16  C   UNL     1      81.509  76.848  59.582  0.00  0.00    +0.013 A 
ATOM     17  C   UNL     1      81.755  75.658  60.357  0.00  0.00    +0.005 A 
ATOM     18  C   UNL     1      82.932  74.844  60.065  0.00  0.00    -0.033 A 
ATOM     28  C   UNL     1      83.831  75.246  58.996  0.00  0.00    +0.005 A 
ATOM     29  C   UNL     1      83.594  76.412  58.235  0.00  0.00    +0.013 A 
BRANCH  18  19
ATOM     19  C   UNL     1      83.284  73.569  60.856  0.00  0.00    +0.119 C 
BRANCH  19  20
ATOM     20  N   UNL     1      82.258  72.484  60.896  0.00  0.00    -0.302 NA
ATOM     21  C   UNL     1      82.256  71.746  62.237  0.00  0.00    +0.066 C 
ATOM     22  C   UNL     1      81.162  70.629  62.270  0.00  0.00    -0.064 C 
ATOM     23  N   UNL     1      81.398  69.654  61.115  0.00  0.00    +0.379 N 
ATOM     24  C   UNL     1      80.406  68.571  61.178  0.00  0.00    -0.096 C 
ATOM     25  H   UNL     1      82.405  69.199  61.258  0.00  0.00    -0.082 HD
ATOM     26  C   UNL     1      81.405  70.381  59.778  0.00  0.00    -0.064 C 
ATOM     27  C   UNL     1      82.475  71.508  59.766  0.00  0.00    +0.066 C 
ENDBRANCH  19  20
ENDBRANCH  18  19
ENDBRANCH  14  15
ENDBRANCH  12  13
TORSDOF 6
ENDMDL
