MODEL 1
REMARK VINA RESULT:      -7.5      0.000      0.000
REMARK  Name = C:\Users\Docking\Desktop\test protocol\1iep_ligandH.pdb
REMARK  8 active torsions:
REMARK  status: ('A' for Active; 'I' for Inactive)
REMARK    1  A    between atoms: _5  and  _11
REMARK    2  A    between atoms: _19  and  _21
REMARK    3  A    between atoms: _22  and  _66
REMARK    4  A    between atoms: _27  and  _30
REMARK    5  A    between atoms: _32  and  _33
REMARK    6  A    between atoms: _38  and  _43
REMARK    7  A    between atoms: _43  and  _46
REMARK    8  A    between atoms: _53  and  _55
REMARK                            x       y       z     vdW  Elec       q    Type
REMARK                         _______ _______ _______ _____ _____    ______ ____
ROOT
ATOM     10  C   UNL     1     -18.067   3.796  -7.462  0.00  0.00    +0.038 A 
ATOM     11  C   UNL     1     -16.950   3.885  -6.593  0.00  0.00    +0.047 A 
ATOM     12  C   UNL     1     -17.124   4.056  -5.159  0.00  0.00    +0.035 A 
ATOM     32  C   UNL     1     -18.451   4.130  -4.643  0.00  0.00    +0.024 A 
ATOM     33  C   UNL     1     -19.598   4.042  -5.512  0.00  0.00    +0.007 A 
ATOM     34  C   UNL     1     -19.432   3.876  -6.928  0.00  0.00    -0.029 A 
ATOM     35  C   UNL     1     -20.698   3.795  -7.813  0.00  0.00    +0.045 C 
ENDROOT
BRANCH  10   9
ATOM      4  C   UNL     1     -17.383   1.053 -11.340  0.00  0.00    +0.077 A 
ATOM      5  C   UNL     1     -17.454  -0.156 -10.571  0.00  0.00    +0.048 A 
ATOM      6  C   UNL     1     -17.660  -0.028  -9.179  0.00  0.00    +0.116 A 
ATOM      7  N   UNL     1     -17.785   1.221  -8.610  0.00  0.00    -0.223 NA
ATOM      8  C   UNL     1     -17.711   2.367  -9.381  0.00  0.00    +0.220 A 
ATOM      9  N   UNL     1     -17.842   3.632  -8.831  0.00  0.00    -0.283 N 
ATOM     36  H   UNL     1     -17.773   4.453  -9.432  0.00  0.00    +0.155 HD
ATOM     37  N   UNL     1     -17.513   2.271 -10.712  0.00  0.00    -0.214 NA
BRANCH   4   3
ATOM      1  C   UNL     1     -17.959   1.486 -15.185  0.00  0.00    +0.020 A 
ATOM      2  C   UNL     1     -18.214   1.475 -13.763  0.00  0.00    +0.013 A 
ATOM      3  C   UNL     1     -17.173   1.081 -12.822  0.00  0.00    +0.019 A 
ATOM     38  C   UNL     1     -15.873   0.703 -13.357  0.00  0.00    +0.120 A 
ATOM     39  N   UNL     1     -15.657   0.722 -14.732  0.00  0.00    -0.263 NA
ATOM     40  C   UNL     1     -16.652   1.097 -15.647  0.00  0.00    +0.111 A 
ENDBRANCH   4   3
ENDBRANCH  10   9
BRANCH  12  13
ATOM     13  N   UNL     1     -16.027   4.161  -4.228  0.00  0.00    -0.281 N 
ATOM     14  C   UNL     1     -15.457   3.153  -3.467  0.00  0.00    +0.248 C 
ATOM     30  O   UNL     1     -15.946   2.044  -3.311  0.00  0.00    -0.270 OA
ATOM     31  H   UNL     1     -15.622   5.090  -4.117  0.00  0.00    +0.155 HD
BRANCH  14  15
ATOM     15  C   UNL     1     -14.165   3.422  -2.766  0.00  0.00    +0.037 A 
ATOM     16  C   UNL     1     -13.443   2.354  -2.069  0.00  0.00    +0.013 A 
ATOM     17  C   UNL     1     -12.206   2.644  -1.386  0.00  0.00    +0.005 A 
ATOM     18  C   UNL     1     -11.683   4.008  -1.399  0.00  0.00    -0.033 A 
ATOM     28  C   UNL     1     -12.417   5.046  -2.104  0.00  0.00    +0.005 A 
ATOM     29  C   UNL     1     -13.630   4.767  -2.773  0.00  0.00    +0.013 A 
BRANCH  18  19
ATOM     19  C   UNL     1     -10.383   4.412  -0.680  0.00  0.00    +0.119 C 
BRANCH  19  20
ATOM     20  N   UNL     1     -10.243   4.017   0.753  0.00  0.00    -0.302 NA
ATOM     21  C   UNL     1     -11.410   4.524   1.606  0.00  0.00    +0.066 C 
ATOM     22  C   UNL     1     -11.259   4.082   3.098  0.00  0.00    -0.064 C 
ATOM     23  N   UNL     1      -9.925   4.593   3.646  0.00  0.00    +0.379 N 
ATOM     24  C   UNL     1      -9.806   4.229   5.065  0.00  0.00    -0.096 C 
ATOM     25  H   UNL     1      -9.938   5.706   3.581  0.00  0.00    -0.082 HD
ATOM     26  C   UNL     1      -8.760   4.096   2.802  0.00  0.00    -0.064 C 
ATOM     27  C   UNL     1      -8.935   4.515   1.316  0.00  0.00    +0.066 C 
ENDBRANCH  19  20
ENDBRANCH  18  19
ENDBRANCH  14  15
ENDBRANCH  12  13
TORSDOF 6
ENDMDL
MODEL 2
REMARK VINA RESULT:      -7.1      3.309      6.118
REMARK  Name = C:\Users\Docking\Desktop\test protocol\1iep_ligandH.pdb
REMARK  8 active torsions:
REMARK  status: ('A' for Active; 'I' for Inactive)
REMARK    1  A    between atoms: _5  and  _11
REMARK    2  A    between atoms: _19  and  _21
REMARK    3  A    between atoms: _22  and  _66
REMARK    4  A    between atoms: _27  and  _30
REMARK    5  A    between atoms: _32  and  _33
REMARK    6  A    between atoms: _38  and  _43
REMARK    7  A    between atoms: _43  and  _46
REMARK    8  A    between atoms: _53  and  _55
REMARK                            x       y       z     vdW  Elec       q    Type
REMARK                         _______ _______ _______ _____ _____    ______ ____
ROOT
ATOM     10  C   UNL     1     -18.517   4.449  -7.208  0.00  0.00    +0.038 A 
ATOM     11  C   UNL     1     -17.694   4.754  -6.094  0.00  0.00    +0.047 A 
ATOM     12  C   UNL     1     -16.526   3.948  -5.778  0.00  0.00    +0.035 A 
ATOM     32  C   UNL     1     -16.222   2.839  -6.620  0.00  0.00    +0.024 A 
ATOM     33  C   UNL     1     -17.048   2.513  -7.756  0.00  0.00    +0.007 A 
ATOM     34  C   UNL     1     -18.204   3.303  -8.071  0.00  0.00    -0.029 A 
ATOM     35  C   UNL     1     -19.057   2.904  -9.298  0.00  0.00    +0.045 C 
ENDROOT
BRANCH  10   9
ATOM      4  C   UNL     1     -23.180   5.499  -6.772  0.00  0.00    +0.077 A 
ATOM      5  C   UNL     1     -23.432   4.324  -5.988  0.00  0.00    +0.048 A 
ATOM      6  C   UNL     1     -22.336   3.472  -5.725  0.00  0.00    +0.116 A 
ATOM      7  N   UNL     1     -21.085   3.782  -6.215  0.00  0.00    -0.223 NA
ATOM      8  C   UNL     1     -20.877   4.922  -6.969  0.00  0.00    +0.220 A 
ATOM      9  N   UNL     1     -19.627   5.257  -7.465  0.00  0.00    -0.283 N 
ATOM     36  H   UNL     1     -19.516   6.102  -8.024  0.00  0.00    +0.155 HD
ATOM     37  N   UNL     1     -21.908   5.751  -7.236  0.00  0.00    -0.214 NA
BRANCH   4   3
ATOM      1  C   UNL     1     -25.364   8.742  -6.893  0.00  0.00    +0.020 A 
ATOM      2  C   UNL     1     -24.326   7.813  -6.509  0.00  0.00    +0.013 A 
ATOM      3  C   UNL     1     -24.235   6.498  -7.132  0.00  0.00    +0.019 A 
ATOM     38  C   UNL     1     -25.217   6.152  -8.148  0.00  0.00    +0.120 A 
ATOM     39  N   UNL     1     -26.207   7.066  -8.496  0.00  0.00    -0.263 NA
ATOM     40  C   UNL     1     -26.305   8.333  -7.902  0.00  0.00    +0.111 A 
ENDBRANCH   4   3
ENDBRANCH  10   9
BRANCH  12  13
ATOM     13  N   UNL     1     -15.658   4.205  -4.655  0.00  0.00    -0.281 N 
ATOM     14  C   UNL     1     -15.714   3.643  -3.390  0.00  0.00    +0.248 C 
ATOM     30  O   UNL     1     -16.654   2.989  -2.965  0.00  0.00    -0.270 OA
ATOM     31  H   UNL     1     -14.913   4.884  -4.812  0.00  0.00    +0.155 HD
BRANCH  14  15
ATOM     15  C   UNL     1     -14.564   3.851  -2.457  0.00  0.00    +0.037 A 
ATOM     16  C   UNL     1     -14.621   3.389  -1.068  0.00  0.00    +0.013 A 
ATOM     17  C   UNL     1     -13.505   3.617  -0.184  0.00  0.00    +0.005 A 
ATOM     18  C   UNL     1     -12.321   4.309  -0.689  0.00  0.00    -0.033 A 
ATOM     28  C   UNL     1     -12.290   4.752  -2.073  0.00  0.00    +0.005 A 
ATOM     29  C   UNL     1     -13.382   4.531  -2.941  0.00  0.00    +0.013 A 
BRANCH  18  19
ATOM     19  C   UNL     1     -11.093   4.614   0.189  0.00  0.00    +0.119 C 
BRANCH  19  20
ATOM     20  N   UNL     1     -10.424   3.457   0.854  0.00  0.00    -0.302 NA
ATOM     21  C   UNL     1      -9.197   3.889   1.662  0.00  0.00    +0.066 C 
ATOM     22  C   UNL     1      -8.522   2.669   2.369  0.00  0.00    -0.064 C 
ATOM     23  N   UNL     1      -8.140   1.622   1.321  0.00  0.00    +0.379 N 
ATOM     24  C   UNL     1      -7.453   0.500   1.977  0.00  0.00    -0.096 C 
ATOM     25  H   UNL     1      -7.417   2.097   0.618  0.00  0.00    -0.082 HD
ATOM     26  C   UNL     1      -9.354   1.189   0.512  0.00  0.00    -0.064 C 
ATOM     27  C   UNL     1     -10.034   2.412  -0.163  0.00  0.00    +0.066 C 
ENDBRANCH  19  20
ENDBRANCH  18  19
ENDBRANCH  14  15
ENDBRANCH  12  13
TORSDOF 6
ENDMDL
MODEL 3
REMARK VINA RESULT:      -7.0      1.298      1.732
REMARK  Name = C:\Users\Docking\Desktop\test protocol\1iep_ligandH.pdb
REMARK  8 active torsions:
REMARK  status: ('A' for Active; 'I' for Inactive)
REMARK    1  A    between atoms: _5  and  _11
REMARK    2  A    between atoms: _19  and  _21
REMARK    3  A    between atoms: _22  and  _66
REMARK    4  A    between atoms: _27  and  _30
REMARK    5  A    between atoms: _32  and  _33
REMARK    6  A    between atoms: _38  and  _43
REMARK    7  A    between atoms: _43  and  _46
REMARK    8  A    between atoms: _53  and  _55
REMARK                            x       y       z     vdW  Elec       q    Type
REMARK                         _______ _______ _______ _____ _____    ______ ____
ROOT
ATOM     10  C   UNL     1     -18.418   3.899  -8.063  0.00  0.00    +0.038 A 
ATOM     11  C   UNL     1     -17.382   4.040  -7.104  0.00  0.00    +0.047 A 
ATOM     12  C   UNL     1     -17.683   4.282  -5.702  0.00  0.00    +0.035 A 
ATOM     32  C   UNL     1     -19.051   4.374  -5.310  0.00  0.00    +0.024 A 
ATOM     33  C   UNL     1     -20.116   4.235  -6.272  0.00  0.00    +0.007 A 
ATOM     34  C   UNL     1     -19.825   3.998  -7.657  0.00  0.00    -0.029 A 
ATOM     35  C   UNL     1     -21.007   3.864  -8.646  0.00  0.00    +0.045 C 
ENDROOT
BRANCH  10   9
ATOM      4  C   UNL     1     -17.038   1.007 -11.636  0.00  0.00    +0.077 A 
ATOM      5  C   UNL     1     -16.976  -0.134 -10.768  0.00  0.00    +0.048 A 
ATOM      6  C   UNL     1     -17.300   0.068  -9.408  0.00  0.00    +0.116 A 
ATOM      7  N   UNL     1     -17.658   1.321  -8.960  0.00  0.00    -0.223 NA
ATOM      8  C   UNL     1     -17.706   2.400  -9.823  0.00  0.00    +0.220 A 
ATOM      9  N   UNL     1     -18.071   3.668  -9.396  0.00  0.00    -0.283 N 
ATOM     36  H   UNL     1     -18.088   4.439 -10.063  0.00  0.00    +0.155 HD
ATOM     37  N   UNL     1     -17.400   2.234 -11.127  0.00  0.00    -0.214 NA
BRANCH   4   3
ATOM      1  C   UNL     1     -15.259   0.328 -15.053  0.00  0.00    +0.020 A 
ATOM      2  C   UNL     1     -15.510   0.354 -13.630  0.00  0.00    +0.013 A 
ATOM      3  C   UNL     1     -16.728   0.953 -13.100  0.00  0.00    +0.019 A 
ATOM     38  C   UNL     1     -17.680   1.521 -14.044  0.00  0.00    +0.120 A 
ATOM     39  N   UNL     1     -17.410   1.482 -15.408  0.00  0.00    -0.263 NA
ATOM     40  C   UNL     1     -16.241   0.910 -15.930  0.00  0.00    +0.111 A 
ENDBRANCH   4   3
ENDBRANCH  10   9
BRANCH  12  13
ATOM     13  N   UNL     1     -16.674   4.441  -4.684  0.00  0.00    -0.281 N 
ATOM     14  C   UNL     1     -16.358   3.570  -3.655  0.00  0.00    +0.248 C 
ATOM     30  O   UNL     1     -17.044   2.614  -3.323  0.00  0.00    -0.270 OA
ATOM     31  H   UNL     1     -16.125   5.300  -4.729  0.00  0.00    +0.155 HD
BRANCH  14  15
ATOM     15  C   UNL     1     -15.107   3.802  -2.870  0.00  0.00    +0.037 A 
ATOM     16  C   UNL     1     -14.986   3.350  -1.481  0.00  0.00    +0.013 A 
ATOM     17  C   UNL     1     -13.775   3.602  -0.742  0.00  0.00    +0.005 A 
ATOM     18  C   UNL     1     -12.674   4.309  -1.391  0.00  0.00    -0.033 A 
ATOM     28  C   UNL     1     -12.818   4.741  -2.771  0.00  0.00    +0.005 A 
ATOM     29  C   UNL     1     -14.005   4.497  -3.499  0.00  0.00    +0.013 A 
BRANCH  18  19
ATOM     19  C   UNL     1     -11.353   4.640  -0.672  0.00  0.00    +0.119 C 
BRANCH  19  20
ATOM     20  N   UNL     1     -10.835   3.635   0.304  0.00  0.00    -0.302 NA
ATOM     21  C   UNL     1      -9.815   4.244   1.270  0.00  0.00    +0.066 C 
ATOM     22  C   UNL     1      -9.302   3.185   2.299  0.00  0.00    -0.064 C 
ATOM     23  N   UNL     1      -8.694   2.000   1.546  0.00  0.00    +0.379 N 
ATOM     24  C   UNL     1      -8.158   1.029   2.510  0.00  0.00    -0.096 C 
ATOM     25  H   UNL     1      -7.839   2.386   0.943  0.00  0.00    -0.082 HD
ATOM     26  C   UNL     1      -9.701   1.390   0.581  0.00  0.00    -0.064 C 
ATOM     27  C   UNL     1     -10.227   2.458  -0.418  0.00  0.00    +0.066 C 
ENDBRANCH  19  20
ENDBRANCH  18  19
ENDBRANCH  14  15
ENDBRANCH  12  13
TORSDOF 6
ENDMDL
MODEL 4
REMARK VINA RESULT:      -6.9     11.221     12.971
REMARK  Name = C:\Users\Docking\Desktop\test protocol\1iep_ligandH.pdb
REMARK  8 active torsions:
REMARK  status: ('A' for Active; 'I' for Inactive)
REMARK    1  A    between atoms: _5  and  _11
REMARK    2  A    between atoms: _19  and  _21
REMARK    3  A    between atoms: _22  and  _66
REMARK    4  A    between atoms: _27  and  _30
REMARK    5  A    between atoms: _32  and  _33
REMARK    6  A    between atoms: _38  and  _43
REMARK    7  A    between atoms: _43  and  _46
REMARK    8  A    between atoms: _53  and  _55
REMARK                            x       y       z     vdW  Elec       q    Type
REMARK                         _______ _______ _______ _____ _____    ______ ____
ROOT
ATOM     10  C   UNL     1      -9.706   0.026 -13.853  0.00  0.00    +0.038 A 
ATOM     11  C   UNL     1      -8.324   0.211 -13.595  0.00  0.00    +0.047 A 
ATOM     12  C   UNL     1      -7.630  -0.592 -12.600  0.00  0.00    +0.035 A 
ATOM     32  C   UNL     1      -8.375  -1.576 -11.887  0.00  0.00    +0.024 A 
ATOM     33  C   UNL     1      -9.781  -1.776 -12.136  0.00  0.00    +0.007 A 
ATOM     34  C   UNL     1     -10.471  -0.986 -13.115  0.00  0.00    -0.029 A 
ATOM     35  C   UNL     1     -11.981  -1.240 -13.335  0.00  0.00    +0.045 C 
ENDROOT
BRANCH  10   9
ATOM      4  C   UNL     1     -10.938   0.985 -18.392  0.00  0.00    +0.077 A 
ATOM      5  C   UNL     1     -10.277  -0.190 -18.882  0.00  0.00    +0.048 A 
ATOM      6  C   UNL     1      -9.625  -1.011 -17.934  0.00  0.00    +0.116 A 
ATOM      7  N   UNL     1      -9.641  -0.672 -16.598  0.00  0.00    -0.223 NA
ATOM      8  C   UNL     1     -10.287   0.469 -16.159  0.00  0.00    +0.220 A 
ATOM      9  N   UNL     1     -10.322   0.824 -14.820  0.00  0.00    -0.283 N 
ATOM     36  H   UNL     1     -10.803   1.678 -14.537  0.00  0.00    +0.155 HD
ATOM     37  N   UNL     1     -10.915   1.270 -17.045  0.00  0.00    -0.214 NA
BRANCH   4   3
ATOM      1  C   UNL     1     -11.815   4.058 -20.647  0.00  0.00    +0.020 A 
ATOM      2  C   UNL     1     -11.061   3.159 -19.804  0.00  0.00    +0.013 A 
ATOM      3  C   UNL     1     -11.673   1.950 -19.269  0.00  0.00    +0.019 A 
ATOM     38  C   UNL     1     -13.061   1.676 -19.610  0.00  0.00    +0.120 A 
ATOM     39  N   UNL     1     -13.763   2.561 -20.423  0.00  0.00    -0.263 NA
ATOM     40  C   UNL     1     -13.185   3.729 -20.942  0.00  0.00    +0.111 A 
ENDBRANCH   4   3
ENDBRANCH  10   9
BRANCH  12  13
ATOM     13  N   UNL     1      -6.230  -0.444 -12.289  0.00  0.00    -0.281 N 
ATOM     14  C   UNL     1      -5.142  -0.853 -13.043  0.00  0.00    +0.248 C 
ATOM     30  O   UNL     1      -5.212  -1.604 -14.005  0.00  0.00    -0.270 OA
ATOM     31  H   UNL     1      -6.014   0.019 -11.406  0.00  0.00    +0.155 HD
BRANCH  14  15
ATOM     15  C   UNL     1      -3.779  -0.370 -12.666  0.00  0.00    +0.037 A 
ATOM     16  C   UNL     1      -2.631  -0.563 -13.556  0.00  0.00    +0.013 A 
ATOM     17  C   UNL     1      -1.324  -0.103 -13.160  0.00  0.00    +0.005 A 
ATOM     18  C   UNL     1      -1.158   0.557 -11.867  0.00  0.00    -0.033 A 
ATOM     28  C   UNL     1      -2.315   0.741 -11.006  0.00  0.00    +0.005 A 
ATOM     29  C   UNL     1      -3.598   0.290 -11.391  0.00  0.00    +0.013 A 
BRANCH  18  19
ATOM     19  C   UNL     1       0.204   1.062 -11.354  0.00  0.00    +0.119 C 
BRANCH  19  20
ATOM     20  N   UNL     1       0.212   1.816 -10.066  0.00  0.00    -0.302 NA
ATOM     21  C   UNL     1       0.790   3.225 -10.228  0.00  0.00    +0.066 C 
ATOM     22  C   UNL     1       0.770   4.008  -8.876  0.00  0.00    -0.064 C 
ATOM     23  N   UNL     1       1.552   3.221  -7.822  0.00  0.00    +0.379 N 
ATOM     24  C   UNL     1       1.584   3.982  -6.565  0.00  0.00    -0.096 C 
ATOM     25  H   UNL     1       2.601   3.121  -8.185  0.00  0.00    -0.082 HD
ATOM     26  C   UNL     1       0.985   1.818  -7.656  0.00  0.00    -0.064 C 
ATOM     27  C   UNL     1       0.982   1.059  -9.012  0.00  0.00    +0.066 C 
ENDBRANCH  19  20
ENDBRANCH  18  19
ENDBRANCH  14  15
ENDBRANCH  12  13
TORSDOF 6
ENDMDL
MODEL 5
REMARK VINA RESULT:      -6.8      3.402     13.710
REMARK  Name = C:\Users\Docking\Desktop\test protocol\1iep_ligandH.pdb
REMARK  8 active torsions:
REMARK  status: ('A' for Active; 'I' for Inactive)
REMARK    1  A    between atoms: _5  and  _11
REMARK    2  A    between atoms: _19  and  _21
REMARK    3  A    between atoms: _22  and  _66
REMARK    4  A    between atoms: _27  and  _30
REMARK    5  A    between atoms: _32  and  _33
REMARK    6  A    between atoms: _38  and  _43
REMARK    7  A    between atoms: _43  and  _46
REMARK    8  A    between atoms: _53  and  _55
REMARK                            x       y       z     vdW  Elec       q    Type
REMARK                         _______ _______ _______ _____ _____    ______ ____
ROOT
ATOM     10  C   UNL     1     -11.795   4.051   1.054  0.00  0.00    +0.038 A 
ATOM     11  C   UNL     1     -12.538   4.006  -0.153  0.00  0.00    +0.047 A 
ATOM     12  C   UNL     1     -12.274   2.991  -1.161  0.00  0.00    +0.035 A 
ATOM     32  C   UNL     1     -11.247   2.036  -0.905  0.00  0.00    +0.024 A 
ATOM     33  C   UNL     1     -10.482   2.068   0.316  0.00  0.00    +0.007 A 
ATOM     34  C   UNL     1     -10.737   3.068   1.313  0.00  0.00    -0.029 A 
ATOM     35  C   UNL     1      -9.881   3.058   2.601  0.00  0.00    +0.045 C 
ENDROOT
BRANCH  10   9
ATOM      4  C   UNL     1     -14.509   5.902   4.554  0.00  0.00    +0.077 A 
ATOM      5  C   UNL     1     -15.432   4.804   4.500  0.00  0.00    +0.048 A 
ATOM      6  C   UNL     1     -15.175   3.787   3.553  0.00  0.00    +0.116 A 
ATOM      7  N   UNL     1     -14.076   3.872   2.726  0.00  0.00    -0.223 NA
ATOM      8  C   UNL     1     -13.207   4.945   2.803  0.00  0.00    +0.220 A 
ATOM      9  N   UNL     1     -12.091   5.047   1.988  0.00  0.00    -0.283 N 
ATOM     36  H   UNL     1     -11.478   5.859   2.070  0.00  0.00    +0.155 HD
ATOM     37  N   UNL     1     -13.431   5.930   3.698  0.00  0.00    -0.214 NA
BRANCH   4   3
ATOM      1  C   UNL     1     -15.231   9.443   6.051  0.00  0.00    +0.020 A 
ATOM      2  C   UNL     1     -15.120   8.366   5.094  0.00  0.00    +0.013 A 
ATOM      3  C   UNL     1     -14.643   7.051   5.504  0.00  0.00    +0.019 A 
ATOM     38  C   UNL     1     -14.284   6.857   6.900  0.00  0.00    +0.120 A 
ATOM     39  N   UNL     1     -14.399   7.913   7.799  0.00  0.00    -0.263 NA
ATOM     40  C   UNL     1     -14.856   9.183   7.416  0.00  0.00    +0.111 A 
ENDBRANCH   4   3
ENDBRANCH  10   9
BRANCH  12  13
ATOM     13  N   UNL     1     -12.989   2.901  -2.410  0.00  0.00    -0.281 N 
ATOM     14  C   UNL     1     -14.093   2.117  -2.704  0.00  0.00    +0.248 C 
ATOM     30  O   UNL     1     -14.505   1.210  -1.996  0.00  0.00    -0.270 OA
ATOM     31  H   UNL     1     -12.640   3.485  -3.169  0.00  0.00    +0.155 HD
BRANCH  14  15
ATOM     15  C   UNL     1     -14.839   2.368  -3.974  0.00  0.00    +0.037 A 
ATOM     16  C   UNL     1     -15.185   3.727  -4.397  0.00  0.00    +0.013 A 
ATOM     17  C   UNL     1     -15.920   3.940  -5.618  0.00  0.00    +0.005 A 
ATOM     18  C   UNL     1     -16.313   2.789  -6.428  0.00  0.00    -0.033 A 
ATOM     28  C   UNL     1     -15.952   1.452  -5.988  0.00  0.00    +0.005 A 
ATOM     29  C   UNL     1     -15.232   1.239  -4.790  0.00  0.00    +0.013 A 
BRANCH  18  19
ATOM     19  C   UNL     1     -17.117   2.921  -7.735  0.00  0.00    +0.119 C 
BRANCH  19  20
ATOM     20  N   UNL     1     -18.419   3.649  -7.666  0.00  0.00    -0.302 NA
ATOM     21  C   UNL     1     -19.403   2.976  -6.705  0.00  0.00    +0.066 C 
ATOM     22  C   UNL     1     -20.751   3.764  -6.628  0.00  0.00    -0.064 C 
ATOM     23  N   UNL     1     -21.354   3.875  -8.030  0.00  0.00    +0.379 N 
ATOM     24  C   UNL     1     -22.650   4.564  -7.953  0.00  0.00    -0.096 C 
ATOM     25  H   UNL     1     -21.542   2.841  -8.400  0.00  0.00    -0.082 HD
ATOM     26  C   UNL     1     -20.381   4.540  -8.993  0.00  0.00    -0.064 C 
ATOM     27  C   UNL     1     -19.033   3.767  -9.039  0.00  0.00    +0.066 C 
ENDBRANCH  19  20
ENDBRANCH  18  19
ENDBRANCH  14  15
ENDBRANCH  12  13
TORSDOF 6
ENDMDL
