MODEL 1
REMARK VINA RESULT:      -9.1      0.000      0.000
REMARK  Name = C:\Users\Docking\Desktop\test protocol\1iep_ligandH.pdb
REMARK  8 active torsions:
REMARK  status: ('A' for Active; 'I' for Inactive)
REMARK    1  A    between atoms: _5  and  _11
REMARK    2  A    between atoms: _19  and  _21
REMARK    3  A    between atoms: _22  and  _66
REMARK    4  A    between atoms: _27  and  _30
REMARK    5  A    between atoms: _32  and  _33
REMARK    6  A    between atoms: _38  and  _43
REMARK    7  A    between atoms: _43  and  _46
REMARK    8  A    between atoms: _53  and  _55
REMARK                            x       y       z     vdW  Elec       q    Type
REMARK                         _______ _______ _______ _____ _____    ______ ____
ROOT
ATOM     10  C   UNL     1       7.318  -8.831 -62.817  0.00  0.00    +0.038 A 
ATOM     11  C   UNL     1       8.588  -8.613 -63.410  0.00  0.00    +0.047 A 
ATOM     12  C   UNL     1       8.714  -8.301 -64.825  0.00  0.00    +0.035 A 
ATOM     32  C   UNL     1       7.526  -8.217 -65.607  0.00  0.00    +0.024 A 
ATOM     33  C   UNL     1       6.227  -8.437 -65.021  0.00  0.00    +0.007 A 
ATOM     34  C   UNL     1       6.096  -8.747 -63.626  0.00  0.00    -0.029 A 
ATOM     35  C   UNL     1       4.678  -8.980 -63.053  0.00  0.00    +0.045 C 
ENDROOT
BRANCH  10   9
ATOM      4  C   UNL     1       7.186  -7.518 -58.203  0.00  0.00    +0.077 A 
ATOM      5  C   UNL     1       7.278  -6.125 -58.535  0.00  0.00    +0.048 A 
ATOM      6  C   UNL     1       7.365  -5.789 -59.905  0.00  0.00    +0.116 A 
ATOM      7  N   UNL     1       7.359  -6.781 -60.862  0.00  0.00    -0.223 NA
ATOM      8  C   UNL     1       7.271  -8.114 -60.507  0.00  0.00    +0.220 A 
ATOM      9  N   UNL     1       7.255  -9.127 -61.454  0.00  0.00    -0.283 N 
ATOM     36  H   UNL     1       7.196 -10.099 -61.151  0.00  0.00    +0.155 HD
ATOM     37  N   UNL     1       7.188  -8.461 -59.206  0.00  0.00    -0.214 NA
BRANCH   4   3
ATOM      1  C   UNL     1       7.648  -9.681 -54.976  0.00  0.00    +0.020 A 
ATOM      2  C   UNL     1       7.779  -9.228 -56.342  0.00  0.00    +0.013 A 
ATOM      3  C   UNL     1       7.085  -8.031 -56.800  0.00  0.00    +0.019 A 
ATOM     38  C   UNL     1       6.261  -7.308 -55.843  0.00  0.00    +0.120 A 
ATOM     39  N   UNL     1       6.153  -7.769 -54.534  0.00  0.00    -0.263 NA
ATOM     40  C   UNL     1       6.815  -8.921 -54.083  0.00  0.00    +0.111 A 
ENDBRANCH   4   3
ENDBRANCH  10   9
BRANCH  12  13
ATOM     13  N   UNL     1       9.977  -8.078 -65.483  0.00  0.00    -0.281 N 
ATOM     14  C   UNL     1      10.943  -7.133 -65.176  0.00  0.00    +0.248 C 
ATOM     30  O   UNL     1      10.771  -6.191 -64.416  0.00  0.00    -0.270 OA
ATOM     31  H   UNL     1      10.185  -8.690 -66.272  0.00  0.00    +0.155 HD
BRANCH  14  15
ATOM     15  C   UNL     1      12.289  -7.242 -65.815  0.00  0.00    +0.037 A 
ATOM     16  C   UNL     1      13.512  -6.931 -65.070  0.00  0.00    +0.013 A 
ATOM     17  C   UNL     1      14.797  -7.028 -65.716  0.00  0.00    +0.005 A 
ATOM     18  C   UNL     1      14.865  -7.440 -67.116  0.00  0.00    -0.033 A 
ATOM     28  C   UNL     1      13.637  -7.748 -67.830  0.00  0.00    +0.005 A 
ATOM     29  C   UNL     1      12.376  -7.653 -67.200  0.00  0.00    +0.013 A 
BRANCH  18  19
ATOM     19  C   UNL     1      16.192  -7.550 -67.891  0.00  0.00    +0.119 C 
BRANCH  19  20
ATOM     20  N   UNL     1      16.193  -7.090 -69.312  0.00  0.00    -0.302 NA
ATOM     21  C   UNL     1      16.686  -8.179 -70.268  0.00  0.00    +0.066 C 
ATOM     22  C   UNL     1      16.660  -7.689 -71.752  0.00  0.00    -0.064 C 
ATOM     23  N   UNL     1      17.513  -6.426 -71.884  0.00  0.00    +0.379 N 
ATOM     24  C   UNL     1      17.538  -5.995 -73.290  0.00  0.00    -0.096 C 
ATOM     25  H   UNL     1      18.556  -6.691 -71.593  0.00  0.00    -0.082 HD
ATOM     26  C   UNL     1      17.032  -5.338 -70.935  0.00  0.00    -0.064 C 
ATOM     27  C   UNL     1      17.034  -5.846 -69.466  0.00  0.00    +0.066 C 
ENDBRANCH  19  20
ENDBRANCH  18  19
ENDBRANCH  14  15
ENDBRANCH  12  13
TORSDOF 6
ENDMDL
MODEL 2
REMARK VINA RESULT:      -8.1      1.930      2.488
REMARK  Name = C:\Users\Docking\Desktop\test protocol\1iep_ligandH.pdb
REMARK  8 active torsions:
REMARK  status: ('A' for Active; 'I' for Inactive)
REMARK    1  A    between atoms: _5  and  _11
REMARK    2  A    between atoms: _19  and  _21
REMARK    3  A    between atoms: _22  and  _66
REMARK    4  A    between atoms: _27  and  _30
REMARK    5  A    between atoms: _32  and  _33
REMARK    6  A    between atoms: _38  and  _43
REMARK    7  A    between atoms: _43  and  _46
REMARK    8  A    between atoms: _53  and  _55
REMARK                            x       y       z     vdW  Elec       q    Type
REMARK                         _______ _______ _______ _____ _____    ______ ____
ROOT
ATOM     10  C   UNL     1       8.195  -7.771 -62.238  0.00  0.00    +0.038 A 
ATOM     11  C   UNL     1       9.421  -7.130 -62.550  0.00  0.00    +0.047 A 
ATOM     12  C   UNL     1      10.009  -7.235 -63.877  0.00  0.00    +0.035 A 
ATOM     32  C   UNL     1       9.318  -7.999 -64.863  0.00  0.00    +0.024 A 
ATOM     33  C   UNL     1       8.071  -8.657 -64.562  0.00  0.00    +0.007 A 
ATOM     34  C   UNL     1       7.488  -8.559 -63.255  0.00  0.00    -0.029 A 
ATOM     35  C   UNL     1       6.152  -9.291 -62.987  0.00  0.00    +0.045 C 
ENDROOT
BRANCH  10   9
ATOM      4  C   UNL     1       7.799  -9.182 -57.668  0.00  0.00    +0.077 A 
ATOM      5  C   UNL     1       8.678 -10.297 -57.874  0.00  0.00    +0.048 A 
ATOM      6  C   UNL     1       9.205 -10.476 -59.172  0.00  0.00    +0.116 A 
ATOM      7  N   UNL     1       8.872  -9.599 -60.182  0.00  0.00    -0.223 NA
ATOM      8  C   UNL     1       8.020  -8.535 -59.950  0.00  0.00    +0.220 A 
ATOM      9  N   UNL     1       7.677  -7.636 -60.948  0.00  0.00    -0.283 N 
ATOM     36  H   UNL     1       7.039  -6.869 -60.738  0.00  0.00    +0.155 HD
ATOM     37  N   UNL     1       7.502  -8.343 -58.718  0.00  0.00    -0.214 NA
BRANCH   4   3
ATOM      1  C   UNL     1       6.972  -9.085 -53.846  0.00  0.00    +0.020 A 
ATOM      2  C   UNL     1       7.619  -9.431 -55.090  0.00  0.00    +0.013 A 
ATOM      3  C   UNL     1       7.164  -8.858 -56.351  0.00  0.00    +0.019 A 
ATOM     38  C   UNL     1       6.044  -7.930 -56.317  0.00  0.00    +0.120 A 
ATOM     39  N   UNL     1       5.440  -7.616 -55.104  0.00  0.00    -0.263 NA
ATOM     40  C   UNL     1       5.867  -8.163 -53.885  0.00  0.00    +0.111 A 
ENDBRANCH   4   3
ENDBRANCH  10   9
BRANCH  12  13
ATOM     13  N   UNL     1      11.255  -6.614 -64.250  0.00  0.00    -0.281 N 
ATOM     14  C   UNL     1      12.517  -7.184 -64.274  0.00  0.00    +0.248 C 
ATOM     30  O   UNL     1      12.799  -8.262 -63.770  0.00  0.00    -0.270 OA
ATOM     31  H   UNL     1      11.200  -5.635 -64.531  0.00  0.00    +0.155 HD
BRANCH  14  15
ATOM     15  C   UNL     1      13.632  -6.444 -64.941  0.00  0.00    +0.037 A 
ATOM     16  C   UNL     1      14.148  -5.189 -64.388  0.00  0.00    +0.013 A 
ATOM     17  C   UNL     1      15.212  -4.487 -65.060  0.00  0.00    +0.005 A 
ATOM     18  C   UNL     1      15.768  -5.039 -66.294  0.00  0.00    -0.033 A 
ATOM     28  C   UNL     1      15.240  -6.288 -66.817  0.00  0.00    +0.005 A 
ATOM     29  C   UNL     1      14.196  -6.979 -66.161  0.00  0.00    +0.013 A 
BRANCH  18  19
ATOM     19  C   UNL     1      16.890  -4.346 -67.089  0.00  0.00    +0.119 C 
BRANCH  19  20
ATOM     20  N   UNL     1      16.792  -4.378 -68.579  0.00  0.00    -0.302 NA
ATOM     21  C   UNL     1      18.156  -4.193 -69.249  0.00  0.00    +0.066 C 
ATOM     22  C   UNL     1      18.038  -4.251 -70.807  0.00  0.00    -0.064 C 
ATOM     23  N   UNL     1      17.053  -3.182 -71.281  0.00  0.00    +0.379 N 
ATOM     24  C   UNL     1      16.983  -3.195 -72.749  0.00  0.00    -0.096 C 
ATOM     25  H   UNL     1      17.456  -2.190 -70.970  0.00  0.00    -0.082 HD
ATOM     26  C   UNL     1      15.694  -3.356 -70.618  0.00  0.00    -0.064 C 
ATOM     27  C   UNL     1      15.827  -3.326 -69.069  0.00  0.00    +0.066 C 
ENDBRANCH  19  20
ENDBRANCH  18  19
ENDBRANCH  14  15
ENDBRANCH  12  13
TORSDOF 6
ENDMDL
MODEL 3
REMARK VINA RESULT:      -7.6     20.700     27.379
REMARK  Name = C:\Users\Docking\Desktop\test protocol\1iep_ligandH.pdb
REMARK  8 active torsions:
REMARK  status: ('A' for Active; 'I' for Inactive)
REMARK    1  A    between atoms: _5  and  _11
REMARK    2  A    between atoms: _19  and  _21
REMARK    3  A    between atoms: _22  and  _66
REMARK    4  A    between atoms: _27  and  _30
REMARK    5  A    between atoms: _32  and  _33
REMARK    6  A    between atoms: _38  and  _43
REMARK    7  A    between atoms: _43  and  _46
REMARK    8  A    between atoms: _53  and  _55
REMARK                            x       y       z     vdW  Elec       q    Type
REMARK                         _______ _______ _______ _____ _____    ______ ____
ROOT
ATOM     10  C   UNL     1      15.281 -19.394 -38.339  0.00  0.00    +0.038 A 
ATOM     11  C   UNL     1      14.235 -19.223 -39.281  0.00  0.00    +0.047 A 
ATOM     12  C   UNL     1      13.629 -17.920 -39.504  0.00  0.00    +0.035 A 
ATOM     32  C   UNL     1      14.115 -16.811 -38.751  0.00  0.00    +0.024 A 
ATOM     33  C   UNL     1      15.176 -16.967 -37.789  0.00  0.00    +0.007 A 
ATOM     34  C   UNL     1      15.776 -18.251 -37.563  0.00  0.00    -0.029 A 
ATOM     35  C   UNL     1      16.907 -18.361 -36.513  0.00  0.00    +0.045 C 
ENDROOT
BRANCH  10   9
ATOM      4  C   UNL     1      18.603 -22.736 -39.252  0.00  0.00    +0.077 A 
ATOM      5  C   UNL     1      19.294 -21.882 -40.173  0.00  0.00    +0.048 A 
ATOM      6  C   UNL     1      18.759 -20.592 -40.390  0.00  0.00    +0.116 A 
ATOM      7  N   UNL     1      17.616 -20.198 -39.728  0.00  0.00    -0.223 NA
ATOM      8  C   UNL     1      16.972 -21.047 -38.847  0.00  0.00    +0.220 A 
ATOM      9  N   UNL     1      15.827 -20.668 -38.165  0.00  0.00    -0.283 N 
ATOM     36  H   UNL     1      15.377 -21.327 -37.529  0.00  0.00    +0.155 HD
ATOM     37  N   UNL     1      17.463 -22.284 -38.625  0.00  0.00    -0.214 NA
BRANCH   4   3
ATOM      1  C   UNL     1      18.972 -26.218 -37.508  0.00  0.00    +0.020 A 
ATOM      2  C   UNL     1      18.509 -24.879 -37.790  0.00  0.00    +0.013 A 
ATOM      3  C   UNL     1      19.047 -24.126 -38.915  0.00  0.00    +0.019 A 
ATOM     38  C   UNL     1      20.060 -24.762 -39.744  0.00  0.00    +0.120 A 
ATOM     39  N   UNL     1      20.488 -26.053 -39.448  0.00  0.00    -0.263 NA
ATOM     40  C   UNL     1      19.978 -26.786 -38.366  0.00  0.00    +0.111 A 
ENDBRANCH   4   3
ENDBRANCH  10   9
BRANCH  12  13
ATOM     13  N   UNL     1      12.559 -17.686 -40.442  0.00  0.00    -0.281 N 
ATOM     14  C   UNL     1      12.584 -17.841 -41.818  0.00  0.00    +0.248 C 
ATOM     30  O   UNL     1      13.600 -18.000 -42.478  0.00  0.00    -0.270 OA
ATOM     31  H   UNL     1      11.675 -17.369 -40.043  0.00  0.00    +0.155 HD
BRANCH  14  15
ATOM     15  C   UNL     1      11.294 -17.799 -42.573  0.00  0.00    +0.037 A 
ATOM     16  C   UNL     1      10.440 -16.609 -42.552  0.00  0.00    +0.013 A 
ATOM     17  C   UNL     1       9.193 -16.601 -43.275  0.00  0.00    +0.005 A 
ATOM     18  C   UNL     1       8.794 -17.788 -44.027  0.00  0.00    -0.033 A 
ATOM     28  C   UNL     1       9.663 -18.953 -44.036  0.00  0.00    +0.005 A 
ATOM     29  C   UNL     1      10.885 -18.965 -43.327  0.00  0.00    +0.013 A 
BRANCH  18  19
ATOM     19  C   UNL     1       7.470 -17.876 -44.811  0.00  0.00    +0.119 C 
BRANCH  19  20
ATOM     20  N   UNL     1       7.412 -18.841 -45.949  0.00  0.00    -0.302 NA
ATOM     21  C   UNL     1       7.893 -18.213 -47.260  0.00  0.00    +0.066 C 
ATOM     22  C   UNL     1       7.847 -19.243 -48.435  0.00  0.00    -0.064 C 
ATOM     23  N   UNL     1       6.422 -19.782 -48.582  0.00  0.00    +0.379 N 
ATOM     24  C   UNL     1       6.363 -20.707 -49.723  0.00  0.00    -0.096 C 
ATOM     25  H   UNL     1       5.757 -18.917 -48.812  0.00  0.00    -0.082 HD
ATOM     26  C   UNL     1       5.936 -20.406 -47.282  0.00  0.00    -0.064 C 
ATOM     27  C   UNL     1       6.013 -19.382 -46.115  0.00  0.00    +0.066 C 
ENDBRANCH  19  20
ENDBRANCH  18  19
ENDBRANCH  14  15
ENDBRANCH  12  13
TORSDOF 6
ENDMDL
MODEL 4
REMARK VINA RESULT:      -7.6     34.816     39.835
REMARK  Name = C:\Users\Docking\Desktop\test protocol\1iep_ligandH.pdb
REMARK  8 active torsions:
REMARK  status: ('A' for Active; 'I' for Inactive)
REMARK    1  A    between atoms: _5  and  _11
REMARK    2  A    between atoms: _19  and  _21
REMARK    3  A    between atoms: _22  and  _66
REMARK    4  A    between atoms: _27  and  _30
REMARK    5  A    between atoms: _32  and  _33
REMARK    6  A    between atoms: _38  and  _43
REMARK    7  A    between atoms: _43  and  _46
REMARK    8  A    between atoms: _53  and  _55
REMARK                            x       y       z     vdW  Elec       q    Type
REMARK                         _______ _______ _______ _____ _____    ______ ____
ROOT
ATOM     10  C   UNL     1      34.617 -22.940 -33.184  0.00  0.00    +0.038 A 
ATOM     11  C   UNL     1      33.559 -22.272 -33.852  0.00  0.00    +0.047 A 
ATOM     12  C   UNL     1      33.493 -20.819 -33.894  0.00  0.00    +0.035 A 
ATOM     32  C   UNL     1      34.524 -20.078 -33.246  0.00  0.00    +0.024 A 
ATOM     33  C   UNL     1      35.606 -20.740 -32.562  0.00  0.00    +0.007 A 
ATOM     34  C   UNL     1      35.675 -22.173 -32.515  0.00  0.00    -0.029 A 
ATOM     35  C   UNL     1      36.855 -22.830 -31.762  0.00  0.00    +0.045 C 
ENDROOT
BRANCH  10   9
ATOM      4  C   UNL     1      33.433 -27.172 -31.255  0.00  0.00    +0.077 A 
ATOM      5  C   UNL     1      32.752 -26.548 -30.157  0.00  0.00    +0.048 A 
ATOM      6  C   UNL     1      32.736 -25.136 -30.122  0.00  0.00    +0.116 A 
ATOM      7  N   UNL     1      33.357 -24.411 -31.116  0.00  0.00    -0.223 NA
ATOM      8  C   UNL     1      34.006 -25.045 -32.160  0.00  0.00    +0.220 A 
ATOM      9  N   UNL     1      34.630 -24.336 -33.175  0.00  0.00    -0.283 N 
ATOM     36  H   UNL     1      35.104 -24.840 -33.924  0.00  0.00    +0.155 HD
ATOM     37  N   UNL     1      34.037 -26.392 -32.216  0.00  0.00    -0.214 NA
BRANCH   4   3
ATOM      1  C   UNL     1      32.773 -31.018 -30.985  0.00  0.00    +0.020 A 
ATOM      2  C   UNL     1      32.633 -29.595 -30.778  0.00  0.00    +0.013 A 
ATOM      3  C   UNL     1      33.534 -28.655 -31.433  0.00  0.00    +0.019 A 
ATOM     38  C   UNL     1      34.573 -29.192 -32.298  0.00  0.00    +0.120 A 
ATOM     39  N   UNL     1      34.685 -30.567 -32.477  0.00  0.00    -0.263 NA
ATOM     40  C   UNL     1      33.825 -31.481 -31.851  0.00  0.00    +0.111 A 
ENDBRANCH   4   3
ENDBRANCH  10   9
BRANCH  12  13
ATOM     13  N   UNL     1      32.439 -20.086 -34.550  0.00  0.00    -0.281 N 
ATOM     14  C   UNL     1      32.386 -19.668 -35.869  0.00  0.00    +0.248 C 
ATOM     30  O   UNL     1      33.338 -19.677 -36.636  0.00  0.00    -0.270 OA
ATOM     31  H   UNL     1      31.634 -19.846 -33.971  0.00  0.00    +0.155 HD
BRANCH  14  15
ATOM     15  C   UNL     1      31.092 -19.153 -36.412  0.00  0.00    +0.037 A 
ATOM     16  C   UNL     1      30.666 -19.460 -37.780  0.00  0.00    +0.013 A 
ATOM     17  C   UNL     1      29.421 -18.936 -38.285  0.00  0.00    +0.005 A 
ATOM     18  C   UNL     1      28.592 -18.102 -37.419  0.00  0.00    -0.033 A 
ATOM     28  C   UNL     1      29.036 -17.818 -36.064  0.00  0.00    +0.005 A 
ATOM     29  C   UNL     1      30.256 -18.328 -35.566  0.00  0.00    +0.013 A 
BRANCH  18  19
ATOM     19  C   UNL     1      27.259 -17.483 -37.880  0.00  0.00    +0.119 C 
BRANCH  19  20
ATOM     20  N   UNL     1      26.339 -18.354 -38.670  0.00  0.00    -0.302 NA
ATOM     21  C   UNL     1      25.241 -17.546 -39.369  0.00  0.00    +0.066 C 
ATOM     22  C   UNL     1      24.301 -18.470 -40.209  0.00  0.00    -0.064 C 
ATOM     23  N   UNL     1      23.691 -19.536 -39.297  0.00  0.00    +0.379 N 
ATOM     24  C   UNL     1      22.762 -20.371 -40.072  0.00  0.00    -0.096 C 
ATOM     25  H   UNL     1      23.100 -19.011 -38.511  0.00  0.00    -0.082 HD
ATOM     26  C   UNL     1      24.775 -20.343 -38.597  0.00  0.00    -0.064 C 
ATOM     27  C   UNL     1      25.722 -19.412 -37.788  0.00  0.00    +0.066 C 
ENDBRANCH  19  20
ENDBRANCH  18  19
ENDBRANCH  14  15
ENDBRANCH  12  13
TORSDOF 6
ENDMDL
MODEL 5
REMARK VINA RESULT:      -7.3     30.806     36.669
REMARK  Name = C:\Users\Docking\Desktop\test protocol\1iep_ligandH.pdb
REMARK  8 active torsions:
REMARK  status: ('A' for Active; 'I' for Inactive)
REMARK    1  A    between atoms: _5  and  _11
REMARK    2  A    between atoms: _19  and  _21
REMARK    3  A    between atoms: _22  and  _66
REMARK    4  A    between atoms: _27  and  _30
REMARK    5  A    between atoms: _32  and  _33
REMARK    6  A    between atoms: _38  and  _43
REMARK    7  A    between atoms: _43  and  _46
REMARK    8  A    between atoms: _53  and  _55
REMARK                            x       y       z     vdW  Elec       q    Type
REMARK                         _______ _______ _______ _____ _____    ______ ____
ROOT
ATOM     10  C   UNL     1      35.642  -4.499 -87.952  0.00  0.00    +0.038 A 
ATOM     11  C   UNL     1      34.671  -5.521 -88.108  0.00  0.00    +0.047 A 
ATOM     12  C   UNL     1      33.303  -5.337 -87.649  0.00  0.00    +0.035 A 
ATOM     32  C   UNL     1      32.957  -4.097 -87.038  0.00  0.00    +0.024 A 
ATOM     33  C   UNL     1      33.931  -3.047 -86.870  0.00  0.00    +0.007 A 
ATOM     34  C   UNL     1      35.283  -3.224 -87.319  0.00  0.00    -0.029 A 
ATOM     35  C   UNL     1      36.287  -2.067 -87.107  0.00  0.00    +0.045 C 
ENDROOT
BRANCH  10   9
ATOM      4  C   UNL     1      38.941  -4.619 -91.436  0.00  0.00    +0.077 A 
ATOM      5  C   UNL     1      37.990  -4.213 -92.431  0.00  0.00    +0.048 A 
ATOM      6  C   UNL     1      36.661  -3.990 -92.006  0.00  0.00    +0.116 A 
ATOM      7  N   UNL     1      36.319  -4.163 -90.683  0.00  0.00    -0.223 NA
ATOM      8  C   UNL     1      37.260  -4.557 -89.749  0.00  0.00    +0.220 A 
ATOM      9  N   UNL     1      36.940  -4.730 -88.411  0.00  0.00    -0.283 N 
ATOM     36  H   UNL     1      37.661  -5.028 -87.755  0.00  0.00    +0.155 HD
ATOM     37  N   UNL     1      38.536  -4.777 -90.130  0.00  0.00    -0.214 NA
BRANCH   4   3
ATOM      1  C   UNL     1      42.651  -5.818 -91.128  0.00  0.00    +0.020 A 
ATOM      2  C   UNL     1      41.265  -5.582 -90.797  0.00  0.00    +0.013 A 
ATOM      3  C   UNL     1      40.384  -4.889 -91.729  0.00  0.00    +0.019 A 
ATOM     38  C   UNL     1      40.941  -4.445 -92.997  0.00  0.00    +0.120 A 
ATOM     39  N   UNL     1      42.280  -4.685 -93.289  0.00  0.00    -0.263 NA
ATOM     40  C   UNL     1      43.138  -5.349 -92.399  0.00  0.00    +0.111 A 
ENDBRANCH   4   3
ENDBRANCH  10   9
BRANCH  12  13
ATOM     13  N   UNL     1      32.277  -6.342 -87.773  0.00  0.00    -0.281 N 
ATOM     14  C   UNL     1      31.942  -7.084 -88.895  0.00  0.00    +0.248 C 
ATOM     30  O   UNL     1      32.336  -6.842 -90.026  0.00  0.00    -0.270 OA
ATOM     31  H   UNL     1      31.731  -6.530 -86.932  0.00  0.00    +0.155 HD
BRANCH  14  15
ATOM     15  C   UNL     1      31.027  -8.255 -88.739  0.00  0.00    +0.037 A 
ATOM     16  C   UNL     1      31.476  -9.616 -89.041  0.00  0.00    +0.013 A 
ATOM     17  C   UNL     1      30.567 -10.726 -88.899  0.00  0.00    +0.005 A 
ATOM     18  C   UNL     1      29.199 -10.478 -88.450  0.00  0.00    -0.033 A 
ATOM     28  C   UNL     1      28.781  -9.118 -88.152  0.00  0.00    +0.005 A 
ATOM     29  C   UNL     1      29.669  -8.028 -88.292  0.00  0.00    +0.013 A 
BRANCH  18  19
ATOM     19  C   UNL     1      28.155 -11.600 -88.290  0.00  0.00    +0.119 C 
BRANCH  19  20
ATOM     20  N   UNL     1      27.148 -11.757 -89.382  0.00  0.00    -0.302 NA
ATOM     21  C   UNL     1      27.634 -11.155 -90.703  0.00  0.00    +0.066 C 
ATOM     22  C   UNL     1      26.578 -11.348 -91.839  0.00  0.00    -0.064 C 
ATOM     23  N   UNL     1      25.252 -10.717 -91.412  0.00  0.00    +0.379 N 
ATOM     24  C   UNL     1      24.273 -10.846 -92.502  0.00  0.00    -0.096 C 
ATOM     25  H   UNL     1      25.433  -9.629 -91.247  0.00  0.00    -0.082 HD
ATOM     26  C   UNL     1      24.763 -11.307 -90.097  0.00  0.00    -0.064 C 
ATOM     27  C   UNL     1      25.832 -11.136 -88.982  0.00  0.00    +0.066 C 
ENDBRANCH  19  20
ENDBRANCH  18  19
ENDBRANCH  14  15
ENDBRANCH  12  13
TORSDOF 6
ENDMDL
