MODEL 1
REMARK VINA RESULT:      -8.3      0.000      0.000
REMARK  Name = C:\Users\Docking\Desktop\test protocol\1iep_ligandH.pdb
REMARK  8 active torsions:
REMARK  status: ('A' for Active; 'I' for Inactive)
REMARK    1  A    between atoms: _5  and  _11
REMARK    2  A    between atoms: _19  and  _21
REMARK    3  A    between atoms: _22  and  _66
REMARK    4  A    between atoms: _27  and  _30
REMARK    5  A    between atoms: _32  and  _33
REMARK    6  A    between atoms: _38  and  _43
REMARK    7  A    between atoms: _43  and  _46
REMARK    8  A    between atoms: _53  and  _55
REMARK                            x       y       z     vdW  Elec       q    Type
REMARK                         _______ _______ _______ _____ _____    ______ ____
ROOT
ATOM     10  C   UNL     1      22.943  50.401  21.502  0.00  0.00    +0.038 A 
ATOM     11  C   UNL     1      23.432  51.062  20.347  0.00  0.00    +0.047 A 
ATOM     12  C   UNL     1      24.822  51.479  20.250  0.00  0.00    +0.035 A 
ATOM     32  C   UNL     1      25.688  51.204  21.348  0.00  0.00    +0.024 A 
ATOM     33  C   UNL     1      25.208  50.533  22.531  0.00  0.00    +0.007 A 
ATOM     34  C   UNL     1      23.837  50.122  22.633  0.00  0.00    -0.029 A 
ATOM     35  C   UNL     1      23.375  49.413  23.928  0.00  0.00    +0.045 C 
ENDROOT
BRANCH  10   9
ATOM      4  C   UNL     1      19.398  47.280  20.650  0.00  0.00    +0.077 A 
ATOM      5  C   UNL     1      20.295  46.333  20.052  0.00  0.00    +0.048 A 
ATOM      6  C   UNL     1      21.659  46.691  19.976  0.00  0.00    +0.116 A 
ATOM      7  N   UNL     1      22.084  47.907  20.466  0.00  0.00    -0.223 NA
ATOM      8  C   UNL     1      21.193  48.797  21.036  0.00  0.00    +0.220 A 
ATOM      9  N   UNL     1      21.599  50.022  21.542  0.00  0.00    -0.283 N 
ATOM     36  H   UNL     1      20.909  50.654  21.948  0.00  0.00    +0.155 HD
ATOM     37  N   UNL     1      19.884  48.480  21.119  0.00  0.00    -0.214 NA
BRANCH   4   3
ATOM      1  C   UNL     1      15.886  45.563  20.793  0.00  0.00    +0.020 A 
ATOM      2  C   UNL     1      17.311  45.736  20.631  0.00  0.00    +0.013 A 
ATOM      3  C   UNL     1      17.927  47.045  20.806  0.00  0.00    +0.019 A 
ATOM     38  C   UNL     1      17.067  48.167  21.148  0.00  0.00    +0.120 A 
ATOM     39  N   UNL     1      15.697  47.971  21.297  0.00  0.00    -0.263 NA
ATOM     40  C   UNL     1      15.093  46.716  21.129  0.00  0.00    +0.111 A 
ENDBRANCH   4   3
ENDBRANCH  10   9
BRANCH  12  13
ATOM     13  N   UNL     1      25.373  52.161  19.106  0.00  0.00    -0.281 N 
ATOM     14  C   UNL     1      25.316  51.777  17.776  0.00  0.00    +0.248 C 
ATOM     30  O   UNL     1      24.964  50.671  17.391  0.00  0.00    -0.270 OA
ATOM     31  H   UNL     1      25.865  53.033  19.299  0.00  0.00    +0.155 HD
BRANCH  14  15
ATOM     15  C   UNL     1      25.722  52.756  16.723  0.00  0.00    +0.037 A 
ATOM     16  C   UNL     1      26.130  52.312  15.388  0.00  0.00    +0.013 A 
ATOM     17  C   UNL     1      26.533  53.277  14.396  0.00  0.00    +0.005 A 
ATOM     18  C   UNL     1      26.530  54.697  14.736  0.00  0.00    -0.033 A 
ATOM     28  C   UNL     1      26.116  55.111  16.066  0.00  0.00    +0.005 A 
ATOM     29  C   UNL     1      25.721  54.168  17.042  0.00  0.00    +0.013 A 
BRANCH  18  19
ATOM     19  C   UNL     1      26.965  55.795  13.747  0.00  0.00    +0.119 C 
BRANCH  19  20
ATOM     20  N   UNL     1      27.295  57.136  14.316  0.00  0.00    -0.302 NA
ATOM     21  C   UNL     1      26.667  58.274  13.506  0.00  0.00    +0.066 C 
ATOM     22  C   UNL     1      27.004  59.668  14.128  0.00  0.00    -0.064 C 
ATOM     23  N   UNL     1      28.523  59.834  14.208  0.00  0.00    +0.379 N 
ATOM     24  C   UNL     1      28.843  61.167  14.739  0.00  0.00    -0.096 C 
ATOM     25  H   UNL     1      28.924  59.778  13.169  0.00  0.00    -0.082 HD
ATOM     26  C   UNL     1      29.156  58.705  15.009  0.00  0.00    -0.064 C 
ATOM     27  C   UNL     1      28.790  57.323  14.400  0.00  0.00    +0.066 C 
ENDBRANCH  19  20
ENDBRANCH  18  19
ENDBRANCH  14  15
ENDBRANCH  12  13
TORSDOF 6
ENDMDL
MODEL 2
REMARK VINA RESULT:      -8.2      6.265     15.209
REMARK  Name = C:\Users\Docking\Desktop\test protocol\1iep_ligandH.pdb
REMARK  8 active torsions:
REMARK  status: ('A' for Active; 'I' for Inactive)
REMARK    1  A    between atoms: _5  and  _11
REMARK    2  A    between atoms: _19  and  _21
REMARK    3  A    between atoms: _22  and  _66
REMARK    4  A    between atoms: _27  and  _30
REMARK    5  A    between atoms: _32  and  _33
REMARK    6  A    between atoms: _38  and  _43
REMARK    7  A    between atoms: _43  and  _46
REMARK    8  A    between atoms: _53  and  _55
REMARK                            x       y       z     vdW  Elec       q    Type
REMARK                         _______ _______ _______ _____ _____    ______ ____
ROOT
ATOM     10  C   UNL     1      18.049  47.653  19.891  0.00  0.00    +0.038 A 
ATOM     11  C   UNL     1      18.464  46.650  20.803  0.00  0.00    +0.047 A 
ATOM     12  C   UNL     1      17.584  45.548  21.161  0.00  0.00    +0.035 A 
ATOM     32  C   UNL     1      16.288  45.499  20.569  0.00  0.00    +0.024 A 
ATOM     33  C   UNL     1      15.850  46.511  19.640  0.00  0.00    +0.007 A 
ATOM     34  C   UNL     1      16.713  47.601  19.285  0.00  0.00    -0.029 A 
ATOM     35  C   UNL     1      16.188  48.662  18.289  0.00  0.00    +0.045 C 
ENDROOT
BRANCH  10   9
ATOM      4  C   UNL     1      22.322  49.270  18.418  0.00  0.00    +0.077 A 
ATOM      5  C   UNL     1      22.842  47.941  18.275  0.00  0.00    +0.048 A 
ATOM      6  C   UNL     1      21.980  46.869  18.598  0.00  0.00    +0.116 A 
ATOM      7  N   UNL     1      20.695  47.119  19.030  0.00  0.00    -0.223 NA
ATOM      8  C   UNL     1      20.226  48.413  19.158  0.00  0.00    +0.220 A 
ATOM      9  N   UNL     1      18.935  48.688  19.583  0.00  0.00    -0.283 N 
ATOM     36  H   UNL     1      18.629  49.657  19.671  0.00  0.00    +0.155 HD
ATOM     37  N   UNL     1      21.030  49.454  18.857  0.00  0.00    -0.214 NA
BRANCH   4   3
ATOM      1  C   UNL     1      25.202  51.694  17.356  0.00  0.00    +0.020 A 
ATOM      2  C   UNL     1      24.486  50.471  17.637  0.00  0.00    +0.013 A 
ATOM      3  C   UNL     1      23.109  50.506  18.112  0.00  0.00    +0.019 A 
ATOM     38  C   UNL     1      22.480  51.806  18.293  0.00  0.00    +0.120 A 
ATOM     39  N   UNL     1      23.194  52.967  18.016  0.00  0.00    -0.263 NA
ATOM     40  C   UNL     1      24.521  52.946  17.560  0.00  0.00    +0.111 A 
ENDBRANCH   4   3
ENDBRANCH  10   9
BRANCH  12  13
ATOM     13  N   UNL     1      17.947  44.505  22.088  0.00  0.00    -0.281 N 
ATOM     14  C   UNL     1      18.980  43.589  21.976  0.00  0.00    +0.248 C 
ATOM     30  O   UNL     1      19.620  43.390  20.955  0.00  0.00    -0.270 OA
ATOM     31  H   UNL     1      17.372  44.433  22.928  0.00  0.00    +0.155 HD
BRANCH  14  15
ATOM     15  C   UNL     1      19.344  42.763  23.168  0.00  0.00    +0.037 A 
ATOM     16  C   UNL     1      18.768  41.433  23.376  0.00  0.00    +0.013 A 
ATOM     17  C   UNL     1      19.124  40.665  24.543  0.00  0.00    +0.005 A 
ATOM     18  C   UNL     1      20.063  41.226  25.511  0.00  0.00    -0.033 A 
ATOM     28  C   UNL     1      20.624  42.546  25.277  0.00  0.00    +0.005 A 
ATOM     29  C   UNL     1      20.277  43.303  24.135  0.00  0.00    +0.013 A 
BRANCH  18  19
ATOM     19  C   UNL     1      20.484  40.486  26.794  0.00  0.00    +0.119 C 
BRANCH  19  20
ATOM     20  N   UNL     1      19.706  39.267  27.167  0.00  0.00    -0.302 NA
ATOM     21  C   UNL     1      19.376  39.230  28.662  0.00  0.00    +0.066 C 
ATOM     22  C   UNL     1      18.543  37.960  29.030  0.00  0.00    -0.064 C 
ATOM     23  N   UNL     1      19.317  36.707  28.615  0.00  0.00    +0.379 N 
ATOM     24  C   UNL     1      18.562  35.510  29.012  0.00  0.00    -0.096 C 
ATOM     25  H   UNL     1      20.279  36.703  29.178  0.00  0.00    -0.082 HD
ATOM     26  C   UNL     1      19.651  36.737  27.130  0.00  0.00    -0.064 C 
ATOM     27  C   UNL     1      20.454  38.018  26.770  0.00  0.00    +0.066 C 
ENDBRANCH  19  20
ENDBRANCH  18  19
ENDBRANCH  14  15
ENDBRANCH  12  13
TORSDOF 6
ENDMDL
MODEL 3
REMARK VINA RESULT:      -7.9      6.822     14.617
REMARK  Name = C:\Users\Docking\Desktop\test protocol\1iep_ligandH.pdb
REMARK  8 active torsions:
REMARK  status: ('A' for Active; 'I' for Inactive)
REMARK    1  A    between atoms: _5  and  _11
REMARK    2  A    between atoms: _19  and  _21
REMARK    3  A    between atoms: _22  and  _66
REMARK    4  A    between atoms: _27  and  _30
REMARK    5  A    between atoms: _32  and  _33
REMARK    6  A    between atoms: _38  and  _43
REMARK    7  A    between atoms: _43  and  _46
REMARK    8  A    between atoms: _53  and  _55
REMARK                            x       y       z     vdW  Elec       q    Type
REMARK                         _______ _______ _______ _____ _____    ______ ____
ROOT
ATOM     10  C   UNL     1      21.198  48.658  20.997  0.00  0.00    +0.038 A 
ATOM     11  C   UNL     1      21.021  47.325  21.449  0.00  0.00    +0.047 A 
ATOM     12  C   UNL     1      21.127  46.200  20.533  0.00  0.00    +0.035 A 
ATOM     32  C   UNL     1      21.416  46.469  19.163  0.00  0.00    +0.024 A 
ATOM     33  C   UNL     1      21.597  47.818  18.687  0.00  0.00    +0.007 A 
ATOM     34  C   UNL     1      21.492  48.932  19.586  0.00  0.00    -0.029 A 
ATOM     35  C   UNL     1      21.689  50.357  19.018  0.00  0.00    +0.045 C 
ENDROOT
BRANCH  10   9
ATOM      4  C   UNL     1      22.766  51.132  24.800  0.00  0.00    +0.077 A 
ATOM      5  C   UNL     1      23.889  50.258  24.979  0.00  0.00    +0.048 A 
ATOM      6  C   UNL     1      24.023  49.180  24.076  0.00  0.00    +0.116 A 
ATOM      7  N   UNL     1      23.097  48.999  23.072  0.00  0.00    -0.223 NA
ATOM      8  C   UNL     1      22.024  49.859  22.928  0.00  0.00    +0.220 A 
ATOM      9  N   UNL     1      21.085  49.700  21.920  0.00  0.00    -0.283 N 
ATOM     36  H   UNL     1      20.304  50.352  21.852  0.00  0.00    +0.155 HD
ATOM     37  N   UNL     1      21.873  50.895  23.778  0.00  0.00    -0.214 NA
BRANCH   4   3
ATOM      1  C   UNL     1      22.083  53.397  27.915  0.00  0.00    +0.020 A 
ATOM      2  C   UNL     1      22.350  52.221  27.119  0.00  0.00    +0.013 A 
ATOM      3  C   UNL     1      22.489  52.318  25.671  0.00  0.00    +0.019 A 
ATOM     38  C   UNL     1      22.352  53.629  25.055  0.00  0.00    +0.120 A 
ATOM     39  N   UNL     1      22.094  54.743  25.847  0.00  0.00    -0.263 NA
ATOM     40  C   UNL     1      21.957  54.663  27.241  0.00  0.00    +0.111 A 
ENDBRANCH   4   3
ENDBRANCH  10   9
BRANCH  12  13
ATOM     13  N   UNL     1      20.950  44.826  20.932  0.00  0.00    -0.281 N 
ATOM     14  C   UNL     1      19.833  44.244  21.510  0.00  0.00    +0.248 C 
ATOM     30  O   UNL     1      18.888  44.868  21.970  0.00  0.00    -0.270 OA
ATOM     31  H   UNL     1      21.744  44.207  20.769  0.00  0.00    +0.155 HD
BRANCH  14  15
ATOM     15  C   UNL     1      19.762  42.754  21.604  0.00  0.00    +0.037 A 
ATOM     16  C   UNL     1      20.265  41.900  20.525  0.00  0.00    +0.013 A 
ATOM     17  C   UNL     1      20.169  40.466  20.634  0.00  0.00    +0.005 A 
ATOM     18  C   UNL     1      19.568  39.877  21.828  0.00  0.00    -0.033 A 
ATOM     28  C   UNL     1      19.082  40.748  22.886  0.00  0.00    +0.005 A 
ATOM     29  C   UNL     1      19.174  42.154  22.782  0.00  0.00    +0.013 A 
BRANCH  18  19
ATOM     19  C   UNL     1      19.406  38.357  22.020  0.00  0.00    +0.119 C 
BRANCH  19  20
ATOM     20  N   UNL     1      18.048  37.781  21.788  0.00  0.00    -0.302 NA
ATOM     21  C   UNL     1      17.864  36.438  22.502  0.00  0.00    +0.066 C 
ATOM     22  C   UNL     1      16.431  35.860  22.267  0.00  0.00    -0.064 C 
ATOM     23  N   UNL     1      16.183  35.713  20.765  0.00  0.00    +0.379 N 
ATOM     24  C   UNL     1      14.858  35.116  20.543  0.00  0.00    -0.096 C 
ATOM     25  H   UNL     1      16.945  35.005  20.364  0.00  0.00    -0.082 HD
ATOM     26  C   UNL     1      16.365  37.043  20.047  0.00  0.00    -0.064 C 
ATOM     27  C   UNL     1      17.783  37.623  20.311  0.00  0.00    +0.066 C 
ENDBRANCH  19  20
ENDBRANCH  18  19
ENDBRANCH  14  15
ENDBRANCH  12  13
TORSDOF 6
ENDMDL
