MODEL 1
REMARK VINA RESULT:      -8.6      0.000      0.000
REMARK  Name = C:\Users\Docking\Desktop\test protocol\1iep_ligandH.pdb
REMARK  8 active torsions:
REMARK  status: ('A' for Active; 'I' for Inactive)
REMARK    1  A    between atoms: _5  and  _11
REMARK    2  A    between atoms: _19  and  _21
REMARK    3  A    between atoms: _22  and  _66
REMARK    4  A    between atoms: _27  and  _30
REMARK    5  A    between atoms: _32  and  _33
REMARK    6  A    between atoms: _38  and  _43
REMARK    7  A    between atoms: _43  and  _46
REMARK    8  A    between atoms: _53  and  _55
REMARK                            x       y       z     vdW  Elec       q    Type
REMARK                         _______ _______ _______ _____ _____    ______ ____
ROOT
ATOM     10  C   UNL     1      18.704   6.007 -19.378  0.00  0.00    +0.038 A 
ATOM     11  C   UNL     1      19.026   6.867 -20.459  0.00  0.00    +0.047 A 
ATOM     12  C   UNL     1      18.137   7.950 -20.849  0.00  0.00    +0.035 A 
ATOM     32  C   UNL     1      16.928   8.130 -20.115  0.00  0.00    +0.024 A 
ATOM     33  C   UNL     1      16.585   7.264 -19.015  0.00  0.00    +0.007 A 
ATOM     34  C   UNL     1      17.457   6.192 -18.627  0.00  0.00    -0.029 A 
ATOM     35  C   UNL     1      17.034   5.291 -17.443  0.00  0.00    +0.045 C 
ENDROOT
BRANCH  10   9
ATOM      4  C   UNL     1      23.066   4.423 -18.152  0.00  0.00    +0.077 A 
ATOM      5  C   UNL     1      23.624   5.744 -18.203  0.00  0.00    +0.048 A 
ATOM      6  C   UNL     1      22.757   6.802 -18.556  0.00  0.00    +0.116 A 
ATOM      7  N   UNL     1      21.432   6.547 -18.835  0.00  0.00    -0.223 NA
ATOM      8  C   UNL     1      20.926   5.261 -18.777  0.00  0.00    +0.220 A 
ATOM      9  N   UNL     1      19.594   4.983 -19.046  0.00  0.00    -0.283 N 
ATOM     36  H   UNL     1      19.261   4.020 -19.000  0.00  0.00    +0.155 HD
ATOM     37  N   UNL     1      21.734   4.234 -18.444  0.00  0.00    -0.214 NA
BRANCH   4   3
ATOM      1  C   UNL     1      24.310   0.724 -17.897  0.00  0.00    +0.020 A 
ATOM      2  C   UNL     1      23.516   1.870 -18.275  0.00  0.00    +0.013 A 
ATOM      3  C   UNL     1      23.854   3.202 -17.791  0.00  0.00    +0.019 A 
ATOM     38  C   UNL     1      25.012   3.342 -16.921  0.00  0.00    +0.120 A 
ATOM     39  N   UNL     1      25.757   2.220 -16.572  0.00  0.00    -0.263 NA
ATOM     40  C   UNL     1      25.440   0.933 -17.030  0.00  0.00    +0.111 A 
ENDBRANCH   4   3
ENDBRANCH  10   9
BRANCH  12  13
ATOM     13  N   UNL     1      18.407   8.850 -21.943  0.00  0.00    -0.281 N 
ATOM     14  C   UNL     1      18.943  10.126 -21.883  0.00  0.00    +0.248 C 
ATOM     30  O   UNL     1      19.074  10.773 -20.855  0.00  0.00    -0.270 OA
ATOM     31  H   UNL     1      18.175   8.504 -22.874  0.00  0.00    +0.155 HD
BRANCH  14  15
ATOM     15  C   UNL     1      19.384  10.784 -23.151  0.00  0.00    +0.037 A 
ATOM     16  C   UNL     1      19.184  12.218 -23.372  0.00  0.00    +0.013 A 
ATOM     17  C   UNL     1      19.603  12.824 -24.611  0.00  0.00    +0.005 A 
ATOM     18  C   UNL     1      20.229  11.995 -25.638  0.00  0.00    -0.033 A 
ATOM     28  C   UNL     1      20.420  10.576 -25.390  0.00  0.00    +0.005 A 
ATOM     29  C   UNL     1      20.009   9.978 -24.178  0.00  0.00    +0.013 A 
BRANCH  18  19
ATOM     19  C   UNL     1      20.688  12.553 -26.998  0.00  0.00    +0.119 C 
BRANCH  19  20
ATOM     20  N   UNL     1      21.749  11.795 -27.725  0.00  0.00    -0.302 NA
ATOM     21  C   UNL     1      23.156  12.227 -27.302  0.00  0.00    +0.066 C 
ATOM     22  C   UNL     1      24.254  11.408 -28.056  0.00  0.00    -0.064 C 
ATOM     23  N   UNL     1      24.066  11.577 -29.565  0.00  0.00    +0.379 N 
ATOM     24  C   UNL     1      25.132  10.855 -30.276  0.00  0.00    -0.096 C 
ATOM     25  H   UNL     1      24.177  12.661 -29.800  0.00  0.00    -0.082 HD
ATOM     26  C   UNL     1      22.669  11.152 -29.994  0.00  0.00    -0.064 C 
ATOM     27  C   UNL     1      21.586  11.951 -29.217  0.00  0.00    +0.066 C 
ENDBRANCH  19  20
ENDBRANCH  18  19
ENDBRANCH  14  15
ENDBRANCH  12  13
TORSDOF 6
ENDMDL
MODEL 2
REMARK VINA RESULT:      -8.6     22.269     27.930
REMARK  Name = C:\Users\Docking\Desktop\test protocol\1iep_ligandH.pdb
REMARK  8 active torsions:
REMARK  status: ('A' for Active; 'I' for Inactive)
REMARK    1  A    between atoms: _5  and  _11
REMARK    2  A    between atoms: _19  and  _21
REMARK    3  A    between atoms: _22  and  _66
REMARK    4  A    between atoms: _27  and  _30
REMARK    5  A    between atoms: _32  and  _33
REMARK    6  A    between atoms: _38  and  _43
REMARK    7  A    between atoms: _43  and  _46
REMARK    8  A    between atoms: _53  and  _55
REMARK                            x       y       z     vdW  Elec       q    Type
REMARK                         _______ _______ _______ _____ _____    ______ ____
ROOT
ATOM     10  C   UNL     1      11.165 -13.376 -14.584  0.00  0.00    +0.038 A 
ATOM     11  C   UNL     1       9.782 -13.546 -14.848  0.00  0.00    +0.047 A 
ATOM     12  C   UNL     1       9.202 -14.872 -14.999  0.00  0.00    +0.035 A 
ATOM     32  C   UNL     1      10.060 -16.003 -14.871  0.00  0.00    +0.024 A 
ATOM     33  C   UNL     1      11.469 -15.848 -14.604  0.00  0.00    +0.007 A 
ATOM     34  C   UNL     1      12.047 -14.543 -14.457  0.00  0.00    -0.029 A 
ATOM     35  C   UNL     1      13.564 -14.437 -14.177  0.00  0.00    +0.045 C 
ENDROOT
BRANCH  10   9
ATOM      4  C   UNL     1      11.548  -9.208 -12.236  0.00  0.00    +0.077 A 
ATOM      5  C   UNL     1      10.647  -9.638 -11.205  0.00  0.00    +0.048 A 
ATOM      6  C   UNL     1      10.102 -10.936 -11.320  0.00  0.00    +0.116 A 
ATOM      7  N   UNL     1      10.439 -11.736 -12.390  0.00  0.00    -0.223 NA
ATOM      8  C   UNL     1      11.310 -11.290 -13.368  0.00  0.00    +0.220 A 
ATOM      9  N   UNL     1      11.669 -12.080 -14.449  0.00  0.00    -0.283 N 
ATOM     36  H   UNL     1      12.308 -11.712 -15.152  0.00  0.00    +0.155 HD
ATOM     37  N   UNL     1      11.843 -10.053 -13.282  0.00  0.00    -0.214 NA
BRANCH   4   3
ATOM      1  C   UNL     1      13.964  -6.246 -13.067  0.00  0.00    +0.020 A 
ATOM      2  C   UNL     1      13.363  -7.560 -13.088  0.00  0.00    +0.013 A 
ATOM      3  C   UNL     1      12.208  -7.864 -12.253  0.00  0.00    +0.019 A 
ATOM     38  C   UNL     1      11.680  -6.808 -11.402  0.00  0.00    +0.120 A 
ATOM     39  N   UNL     1      12.280  -5.553 -11.402  0.00  0.00    -0.263 NA
ATOM     40  C   UNL     1      13.393  -5.249 -12.200  0.00  0.00    +0.111 A 
ENDBRANCH   4   3
ENDBRANCH  10   9
BRANCH  12  13
ATOM     13  N   UNL     1       7.807 -15.106 -15.276  0.00  0.00    -0.281 N 
ATOM     14  C   UNL     1       6.708 -14.619 -14.587  0.00  0.00    +0.248 C 
ATOM     30  O   UNL     1       6.764 -14.077 -13.493  0.00  0.00    -0.270 OA
ATOM     31  H   UNL     1       7.604 -15.704 -16.077  0.00  0.00    +0.155 HD
BRANCH  14  15
ATOM     15  C   UNL     1       5.351 -14.768 -15.194  0.00  0.00    +0.037 A 
ATOM     16  C   UNL     1       5.147 -14.642 -16.639  0.00  0.00    +0.013 A 
ATOM     17  C   UNL     1       3.825 -14.773 -17.197  0.00  0.00    +0.005 A 
ATOM     18  C   UNL     1       2.695 -15.033 -16.308  0.00  0.00    -0.033 A 
ATOM     28  C   UNL     1       2.926 -15.158 -14.879  0.00  0.00    +0.005 A 
ATOM     29  C   UNL     1       4.221 -15.029 -14.328  0.00  0.00    +0.013 A 
BRANCH  18  19
ATOM     19  C   UNL     1       1.246 -15.166 -16.814  0.00  0.00    +0.119 C 
BRANCH  19  20
ATOM     20  N   UNL     1       0.225 -15.661 -15.843  0.00  0.00    -0.302 NA
ATOM     21  C   UNL     1      -0.709 -16.700 -16.470  0.00  0.00    +0.066 C 
ATOM     22  C   UNL     1      -1.756 -17.223 -15.434  0.00  0.00    -0.064 C 
ATOM     23  N   UNL     1      -2.554 -16.042 -14.878  0.00  0.00    +0.379 N 
ATOM     24  C   UNL     1      -3.578 -16.537 -13.947  0.00  0.00    -0.096 C 
ATOM     25  H   UNL     1      -3.080 -15.558 -15.734  0.00  0.00    -0.082 HD
ATOM     26  C   UNL     1      -1.632 -15.003 -14.255  0.00  0.00    -0.064 C 
ATOM     27  C   UNL     1      -0.577 -14.511 -15.285  0.00  0.00    +0.066 C 
ENDBRANCH  19  20
ENDBRANCH  18  19
ENDBRANCH  14  15
ENDBRANCH  12  13
TORSDOF 6
ENDMDL
MODEL 3
REMARK VINA RESULT:      -8.6      2.594     12.354
REMARK  Name = C:\Users\Docking\Desktop\test protocol\1iep_ligandH.pdb
REMARK  8 active torsions:
REMARK  status: ('A' for Active; 'I' for Inactive)
REMARK    1  A    between atoms: _5  and  _11
REMARK    2  A    between atoms: _19  and  _21
REMARK    3  A    between atoms: _22  and  _66
REMARK    4  A    between atoms: _27  and  _30
REMARK    5  A    between atoms: _32  and  _33
REMARK    6  A    between atoms: _38  and  _43
REMARK    7  A    between atoms: _43  and  _46
REMARK    8  A    between atoms: _53  and  _55
REMARK                            x       y       z     vdW  Elec       q    Type
REMARK                         _______ _______ _______ _____ _____    ______ ____
ROOT
ATOM     10  C   UNL     1      19.573   7.632 -21.931  0.00  0.00    +0.038 A 
ATOM     11  C   UNL     1      20.436   6.519 -21.766  0.00  0.00    +0.047 A 
ATOM     12  C   UNL     1      20.527   5.820 -20.494  0.00  0.00    +0.035 A 
ATOM     32  C   UNL     1      19.723   6.281 -19.410  0.00  0.00    +0.024 A 
ATOM     33  C   UNL     1      18.842   7.412 -19.560  0.00  0.00    +0.007 A 
ATOM     34  C   UNL     1      18.749   8.107 -20.812  0.00  0.00    -0.029 A 
ATOM     35  C   UNL     1      17.792   9.317 -20.914  0.00  0.00    +0.045 C 
ENDROOT
BRANCH  10   9
ATOM      4  C   UNL     1      20.980  11.042 -25.002  0.00  0.00    +0.077 A 
ATOM      5  C   UNL     1      21.867  11.627 -24.038  0.00  0.00    +0.048 A 
ATOM      6  C   UNL     1      21.927  11.025 -22.761  0.00  0.00    +0.116 A 
ATOM      7  N   UNL     1      21.153   9.920 -22.480  0.00  0.00    -0.223 NA
ATOM      8  C   UNL     1      20.306   9.382 -23.432  0.00  0.00    +0.220 A 
ATOM      9  N   UNL     1      19.525   8.266 -23.175  0.00  0.00    -0.283 N 
ATOM     36  H   UNL     1      18.907   7.904 -23.901  0.00  0.00    +0.155 HD
ATOM     37  N   UNL     1      20.230   9.940 -24.659  0.00  0.00    -0.214 NA
BRANCH   4   3
ATOM      1  C   UNL     1      20.581  11.248 -28.887  0.00  0.00    +0.020 A 
ATOM      2  C   UNL     1      20.748  10.694 -27.563  0.00  0.00    +0.013 A 
ATOM      3  C   UNL     1      20.809  11.563 -26.395  0.00  0.00    +0.019 A 
ATOM     38  C   UNL     1      20.697  12.999 -26.602  0.00  0.00    +0.120 A 
ATOM     39  N   UNL     1      20.538  13.504 -27.889  0.00  0.00    -0.263 NA
ATOM     40  C   UNL     1      20.480  12.677 -29.021  0.00  0.00    +0.111 A 
ENDBRANCH   4   3
ENDBRANCH  10   9
BRANCH  12  13
ATOM     13  N   UNL     1      21.391   4.688 -20.264  0.00  0.00    -0.281 N 
ATOM     14  C   UNL     1      22.707   4.695 -19.833  0.00  0.00    +0.248 C 
ATOM     30  O   UNL     1      23.413   5.692 -19.783  0.00  0.00    -0.270 OA
ATOM     31  H   UNL     1      20.982   3.770 -20.442  0.00  0.00    +0.155 HD
BRANCH  14  15
ATOM     15  C   UNL     1      23.335   3.407 -19.410  0.00  0.00    +0.037 A 
ATOM     16  C   UNL     1      23.476   3.059 -17.993  0.00  0.00    +0.013 A 
ATOM     17  C   UNL     1      24.101   1.817 -17.612  0.00  0.00    +0.005 A 
ATOM     18  C   UNL     1      24.589   0.913 -18.650  0.00  0.00    -0.033 A 
ATOM     28  C   UNL     1      24.432   1.280 -20.048  0.00  0.00    +0.005 A 
ATOM     29  C   UNL     1      23.821   2.497 -20.425  0.00  0.00    +0.013 A 
BRANCH  18  19
ATOM     19  C   UNL     1      25.288  -0.423 -18.335  0.00  0.00    +0.119 C 
BRANCH  19  20
ATOM     20  N   UNL     1      25.181  -0.937 -16.937  0.00  0.00    -0.302 NA
ATOM     21  C   UNL     1      26.492  -0.773 -16.163  0.00  0.00    +0.066 C 
ATOM     22  C   UNL     1      26.356  -1.295 -14.695  0.00  0.00    -0.064 C 
ATOM     23  N   UNL     1      25.919  -2.761 -14.717  0.00  0.00    +0.379 N 
ATOM     24  C   UNL     1      25.846  -3.272 -13.340  0.00  0.00    -0.096 C 
ATOM     25  H   UNL     1      26.708  -3.341 -15.252  0.00  0.00    -0.082 HD
ATOM     26  C   UNL     1      24.618  -2.934 -15.487  0.00  0.00    -0.064 C 
ATOM     27  C   UNL     1      24.755  -2.385 -16.935  0.00  0.00    +0.066 C 
ENDBRANCH  19  20
ENDBRANCH  18  19
ENDBRANCH  14  15
ENDBRANCH  12  13
TORSDOF 6
ENDMDL
