MODEL 1
REMARK VINA RESULT:      -9.9      0.000      0.000
REMARK  Name = C:\Users\Docking\Desktop\test protocol\1iep_ligandH.pdb
REMARK  8 active torsions:
REMARK  status: ('A' for Active; 'I' for Inactive)
REMARK    1  A    between atoms: _5  and  _11
REMARK    2  A    between atoms: _19  and  _21
REMARK    3  A    between atoms: _22  and  _66
REMARK    4  A    between atoms: _27  and  _30
REMARK    5  A    between atoms: _32  and  _33
REMARK    6  A    between atoms: _38  and  _43
REMARK    7  A    between atoms: _43  and  _46
REMARK    8  A    between atoms: _53  and  _55
REMARK                            x       y       z     vdW  Elec       q    Type
REMARK                         _______ _______ _______ _____ _____    ______ ____
ROOT
ATOM     10  C   UNL     1       7.708  14.914   5.842  0.00  0.00    +0.038 A 
ATOM     11  C   UNL     1       7.761  13.889   6.822  0.00  0.00    +0.047 A 
ATOM     12  C   UNL     1       7.570  14.187   8.233  0.00  0.00    +0.035 A 
ATOM     32  C   UNL     1       7.324  15.539   8.611  0.00  0.00    +0.024 A 
ATOM     33  C   UNL     1       7.268  16.593   7.629  0.00  0.00    +0.007 A 
ATOM     34  C   UNL     1       7.458  16.306   6.236  0.00  0.00    -0.029 A 
ATOM     35  C   UNL     1       7.394  17.477   5.227  0.00  0.00    +0.045 C 
ENDROOT
BRANCH  10   9
ATOM      4  C   UNL     1      10.460  14.486   1.933  0.00  0.00    +0.077 A 
ATOM      5  C   UNL     1      11.609  15.013   2.612  0.00  0.00    +0.048 A 
ATOM      6  C   UNL     1      11.448  15.389   3.964  0.00  0.00    +0.116 A 
ATOM      7  N   UNL     1      10.224  15.244   4.582  0.00  0.00    -0.223 NA
ATOM      8  C   UNL     1       9.136  14.734   3.898  0.00  0.00    +0.220 A 
ATOM      9  N   UNL     1       7.899  14.572   4.502  0.00  0.00    -0.283 N 
ATOM     36  H   UNL     1       7.119  14.199   3.961  0.00  0.00    +0.155 HD
ATOM     37  N   UNL     1       9.264  14.369   2.605  0.00  0.00    -0.214 NA
BRANCH   4   3
ATOM      1  C   UNL     1       9.354  13.120  -1.561  0.00  0.00    +0.020 A 
ATOM      2  C   UNL     1       9.288  13.536  -0.179  0.00  0.00    +0.013 A 
ATOM      3  C   UNL     1      10.472  14.041   0.504  0.00  0.00    +0.019 A 
ATOM     38  C   UNL     1      11.717  14.114  -0.247  0.00  0.00    +0.120 A 
ATOM     39  N   UNL     1      11.751  13.705  -1.576  0.00  0.00    -0.263 NA
ATOM     40  C   UNL     1      10.618  13.215  -2.243  0.00  0.00    +0.111 A 
ENDBRANCH   4   3
ENDBRANCH  10   9
BRANCH  12  13
ATOM     13  N   UNL     1       7.620  13.189   9.273  0.00  0.00    -0.281 N 
ATOM     14  C   UNL     1       8.650  12.942  10.166  0.00  0.00    +0.248 C 
ATOM     30  O   UNL     1       9.777  13.404  10.067  0.00  0.00    -0.270 OA
ATOM     31  H   UNL     1       6.797  12.593   9.361  0.00  0.00    +0.155 HD
BRANCH  14  15
ATOM     15  C   UNL     1       8.394  12.040  11.330  0.00  0.00    +0.037 A 
ATOM     16  C   UNL     1       7.560  10.843  11.195  0.00  0.00    +0.013 A 
ATOM     17  C   UNL     1       7.316   9.999  12.338  0.00  0.00    +0.005 A 
ATOM     18  C   UNL     1       7.909  10.349  13.626  0.00  0.00    -0.033 A 
ATOM     28  C   UNL     1       8.737  11.539  13.731  0.00  0.00    +0.005 A 
ATOM     29  C   UNL     1       8.978  12.369  12.613  0.00  0.00    +0.013 A 
BRANCH  18  19
ATOM     19  C   UNL     1       7.685   9.518  14.904  0.00  0.00    +0.119 C 
BRANCH  19  20
ATOM     20  N   UNL     1       7.989   8.058  14.831  0.00  0.00    -0.302 NA
ATOM     21  C   UNL     1       7.740   7.352  16.167  0.00  0.00    +0.066 C 
ATOM     22  C   UNL     1       8.041   5.821  16.068  0.00  0.00    -0.064 C 
ATOM     23  N   UNL     1       9.487   5.618  15.610  0.00  0.00    +0.379 N 
ATOM     24  C   UNL     1       9.791   4.180  15.571  0.00  0.00    -0.096 C 
ATOM     25  H   UNL     1      10.152   6.084  16.373  0.00  0.00    -0.082 HD
ATOM     26  C   UNL     1       9.744   6.319  14.283  0.00  0.00    -0.064 C 
ATOM     27  C   UNL     1       9.413   7.834  14.385  0.00  0.00    +0.066 C 
ENDBRANCH  19  20
ENDBRANCH  18  19
ENDBRANCH  14  15
ENDBRANCH  12  13
TORSDOF 6
ENDMDL
MODEL 2
REMARK VINA RESULT:      -9.8      1.975      2.945
REMARK  Name = C:\Users\Docking\Desktop\test protocol\1iep_ligandH.pdb
REMARK  8 active torsions:
REMARK  status: ('A' for Active; 'I' for Inactive)
REMARK    1  A    between atoms: _5  and  _11
REMARK    2  A    between atoms: _19  and  _21
REMARK    3  A    between atoms: _22  and  _66
REMARK    4  A    between atoms: _27  and  _30
REMARK    5  A    between atoms: _32  and  _33
REMARK    6  A    between atoms: _38  and  _43
REMARK    7  A    between atoms: _43  and  _46
REMARK    8  A    between atoms: _53  and  _55
REMARK                            x       y       z     vdW  Elec       q    Type
REMARK                         _______ _______ _______ _____ _____    ______ ____
ROOT
ATOM     10  C   UNL     1       8.070  14.955   4.016  0.00  0.00    +0.038 A 
ATOM     11  C   UNL     1       8.230  14.099   5.135  0.00  0.00    +0.047 A 
ATOM     12  C   UNL     1       8.391  14.636   6.477  0.00  0.00    +0.035 A 
ATOM     32  C   UNL     1       8.382  16.051   6.643  0.00  0.00    +0.024 A 
ATOM     33  C   UNL     1       8.222  16.937   5.517  0.00  0.00    +0.007 A 
ATOM     34  C   UNL     1       8.065  16.413   4.190  0.00  0.00    -0.029 A 
ATOM     35  C   UNL     1       7.904  17.409   3.019  0.00  0.00    +0.045 C 
ENDROOT
BRANCH  10   9
ATOM      4  C   UNL     1       9.824  13.516  -0.214  0.00  0.00    +0.077 A 
ATOM      5  C   UNL     1      11.147  13.962   0.116  0.00  0.00    +0.048 A 
ATOM      6  C   UNL     1      11.332  14.563   1.381  0.00  0.00    +0.116 A 
ATOM      7  N   UNL     1      10.267  14.702   2.244  0.00  0.00    -0.223 NA
ATOM      8  C   UNL     1       9.004  14.263   1.894  0.00  0.00    +0.220 A 
ATOM      9  N   UNL     1       7.920  14.385   2.750  0.00  0.00    -0.283 N 
ATOM     36  H   UNL     1       7.002  14.056   2.451  0.00  0.00    +0.155 HD
ATOM     37  N   UNL     1       8.800  13.687   0.691  0.00  0.00    -0.214 NA
BRANCH   4   3
ATOM      1  C   UNL     1       9.663  10.995  -3.200  0.00  0.00    +0.020 A 
ATOM      2  C   UNL     1      10.039  11.587  -1.937  0.00  0.00    +0.013 A 
ATOM      3  C   UNL     1       9.469  12.859  -1.512  0.00  0.00    +0.019 A 
ATOM     38  C   UNL     1       8.513  13.511  -2.394  0.00  0.00    +0.120 A 
ATOM     39  N   UNL     1       8.171  12.918  -3.605  0.00  0.00    -0.263 NA
ATOM     40  C   UNL     1       8.714  11.695  -4.026  0.00  0.00    +0.111 A 
ENDBRANCH   4   3
ENDBRANCH  10   9
BRANCH  12  13
ATOM     13  N   UNL     1       8.564  13.815   7.650  0.00  0.00    -0.281 N 
ATOM     14  C   UNL     1       7.995  13.987   8.901  0.00  0.00    +0.248 C 
ATOM     30  O   UNL     1       7.414  14.999   9.263  0.00  0.00    -0.270 OA
ATOM     31  H   UNL     1       9.182  13.010   7.545  0.00  0.00    +0.155 HD
BRANCH  14  15
ATOM     15  C   UNL     1       8.098  12.879   9.899  0.00  0.00    +0.037 A 
ATOM     16  C   UNL     1       6.987  11.951  10.123  0.00  0.00    +0.013 A 
ATOM     17  C   UNL     1       7.107  10.902  11.104  0.00  0.00    +0.005 A 
ATOM     18  C   UNL     1       8.345  10.775  11.869  0.00  0.00    -0.033 A 
ATOM     28  C   UNL     1       9.434  11.706  11.623  0.00  0.00    +0.005 A 
ATOM     29  C   UNL     1       9.320  12.736  10.663  0.00  0.00    +0.013 A 
BRANCH  18  19
ATOM     19  C   UNL     1       8.553   9.698  12.951  0.00  0.00    +0.119 C 
BRANCH  19  20
ATOM     20  N   UNL     1       7.724   9.804  14.188  0.00  0.00    -0.302 NA
ATOM     21  C   UNL     1       8.022  11.086  14.971  0.00  0.00    +0.066 C 
ATOM     22  C   UNL     1       7.130  11.191  16.251  0.00  0.00    -0.064 C 
ATOM     23  N   UNL     1       7.352   9.957  17.127  0.00  0.00    +0.379 N 
ATOM     24  C   UNL     1       6.559  10.081  18.359  0.00  0.00    -0.096 C 
ATOM     25  H   UNL     1       8.429   9.939  17.418  0.00  0.00    -0.082 HD
ATOM     26  C   UNL     1       7.061   8.678  16.356  0.00  0.00    -0.064 C 
ATOM     27  C   UNL     1       7.931   8.598  15.070  0.00  0.00    +0.066 C 
ENDBRANCH  19  20
ENDBRANCH  18  19
ENDBRANCH  14  15
ENDBRANCH  12  13
TORSDOF 6
ENDMDL
MODEL 3
REMARK VINA RESULT:      -9.8      1.300      2.022
REMARK  Name = C:\Users\Docking\Desktop\test protocol\1iep_ligandH.pdb
REMARK  8 active torsions:
REMARK  status: ('A' for Active; 'I' for Inactive)
REMARK    1  A    between atoms: _5  and  _11
REMARK    2  A    between atoms: _19  and  _21
REMARK    3  A    between atoms: _22  and  _66
REMARK    4  A    between atoms: _27  and  _30
REMARK    5  A    between atoms: _32  and  _33
REMARK    6  A    between atoms: _38  and  _43
REMARK    7  A    between atoms: _43  and  _46
REMARK    8  A    between atoms: _53  and  _55
REMARK                            x       y       z     vdW  Elec       q    Type
REMARK                         _______ _______ _______ _____ _____    ______ ____
ROOT
ATOM     10  C   UNL     1       7.728  14.755   6.196  0.00  0.00    +0.038 A 
ATOM     11  C   UNL     1       8.006  13.812   7.217  0.00  0.00    +0.047 A 
ATOM     12  C   UNL     1       7.832  14.149   8.621  0.00  0.00    +0.035 A 
ATOM     32  C   UNL     1       7.370  15.457   8.949  0.00  0.00    +0.024 A 
ATOM     33  C   UNL     1       7.083  16.429   7.924  0.00  0.00    +0.007 A 
ATOM     34  C   UNL     1       7.255  16.102   6.537  0.00  0.00    -0.029 A 
ATOM     35  C   UNL     1       6.938  17.186   5.481  0.00  0.00    +0.045 C 
ENDROOT
BRANCH  10   9
ATOM      4  C   UNL     1      10.358  14.525   2.187  0.00  0.00    +0.077 A 
ATOM      5  C   UNL     1      11.445  15.241   2.789  0.00  0.00    +0.048 A 
ATOM      6  C   UNL     1      11.285  15.657   4.130  0.00  0.00    +0.116 A 
ATOM      7  N   UNL     1      10.120  15.373   4.809  0.00  0.00    -0.223 NA
ATOM      8  C   UNL     1       9.090  14.682   4.198  0.00  0.00    +0.220 A 
ATOM      9  N   UNL     1       7.912  14.378   4.864  0.00  0.00    -0.283 N 
ATOM     36  H   UNL     1       7.173  13.873   4.376  0.00  0.00    +0.155 HD
ATOM     37  N   UNL     1       9.218  14.275   2.918  0.00  0.00    -0.214 NA
BRANCH   4   3
ATOM      1  C   UNL     1      11.546  13.504  -1.397  0.00  0.00    +0.020 A 
ATOM      2  C   UNL     1      11.581  14.006  -0.043  0.00  0.00    +0.013 A 
ATOM      3  C   UNL     1      10.377  14.017   0.779  0.00  0.00    +0.019 A 
ATOM     38  C   UNL     1       9.145  13.507   0.196  0.00  0.00    +0.120 A 
ATOM     39  N   UNL     1       9.142  13.031  -1.111  0.00  0.00    -0.263 NA
ATOM     40  C   UNL     1      10.294  13.017  -1.912  0.00  0.00    +0.111 A 
ENDBRANCH   4   3
ENDBRANCH  10   9
BRANCH  12  13
ATOM     13  N   UNL     1       8.107  13.235   9.702  0.00  0.00    -0.281 N 
ATOM     14  C   UNL     1       7.275  12.885  10.754  0.00  0.00    +0.248 C 
ATOM     30  O   UNL     1       6.243  13.472  11.043  0.00  0.00    -0.270 OA
ATOM     31  H   UNL     1       9.025  12.791   9.690  0.00  0.00    +0.155 HD
BRANCH  14  15
ATOM     15  C   UNL     1       7.653  11.726  11.618  0.00  0.00    +0.037 A 
ATOM     16  C   UNL     1       8.572  11.887  12.747  0.00  0.00    +0.013 A 
ATOM     17  C   UNL     1       8.933  10.748  13.554  0.00  0.00    +0.005 A 
ATOM     18  C   UNL     1       8.372   9.438  13.235  0.00  0.00    -0.033 A 
ATOM     28  C   UNL     1       7.459   9.307  12.112  0.00  0.00    +0.005 A 
ATOM     29  C   UNL     1       7.104  10.421  11.318  0.00  0.00    +0.013 A 
BRANCH  18  19
ATOM     19  C   UNL     1       8.718   8.164  14.029  0.00  0.00    +0.119 C 
BRANCH  19  20
ATOM     20  N   UNL     1       7.730   7.705  15.050  0.00  0.00    -0.302 NA
ATOM     21  C   UNL     1       7.481   8.766  16.126  0.00  0.00    +0.066 C 
ATOM     22  C   UNL     1       6.428   8.278  17.173  0.00  0.00    -0.064 C 
ATOM     23  N   UNL     1       6.908   6.969  17.804  0.00  0.00    +0.379 N 
ATOM     24  C   UNL     1       5.948   6.538  18.830  0.00  0.00    -0.096 C 
ATOM     25  H   UNL     1       7.878   7.175  18.312  0.00  0.00    -0.082 HD
ATOM     26  C   UNL     1       7.160   5.910  16.740  0.00  0.00    -0.064 C 
ATOM     27  C   UNL     1       8.186   6.416  15.688  0.00  0.00    +0.066 C 
ENDBRANCH  19  20
ENDBRANCH  18  19
ENDBRANCH  14  15
ENDBRANCH  12  13
TORSDOF 6
ENDMDL
MODEL 4
REMARK VINA RESULT:      -9.2      7.864     13.449
REMARK  Name = C:\Users\Docking\Desktop\test protocol\1iep_ligandH.pdb
REMARK  8 active torsions:
REMARK  status: ('A' for Active; 'I' for Inactive)
REMARK    1  A    between atoms: _5  and  _11
REMARK    2  A    between atoms: _19  and  _21
REMARK    3  A    between atoms: _22  and  _66
REMARK    4  A    between atoms: _27  and  _30
REMARK    5  A    between atoms: _32  and  _33
REMARK    6  A    between atoms: _38  and  _43
REMARK    7  A    between atoms: _43  and  _46
REMARK    8  A    between atoms: _53  and  _55
REMARK                            x       y       z     vdW  Elec       q    Type
REMARK                         _______ _______ _______ _____ _____    ______ ____
ROOT
ATOM     10  C   UNL     1       4.718   9.685  -5.116  0.00  0.00    +0.038 A 
ATOM     11  C   UNL     1       5.287  10.498  -4.102  0.00  0.00    +0.047 A 
ATOM     12  C   UNL     1       6.717  10.762  -4.063  0.00  0.00    +0.035 A 
ATOM     32  C   UNL     1       7.538  10.185  -5.075  0.00  0.00    +0.024 A 
ATOM     33  C   UNL     1       6.977   9.356  -6.113  0.00  0.00    +0.007 A 
ATOM     34  C   UNL     1       5.567   9.089  -6.155  0.00  0.00    -0.029 A 
ATOM     35  C   UNL     1       5.022   8.188  -7.287  0.00  0.00    +0.045 C 
ENDROOT
BRANCH  10   9
ATOM      4  C   UNL     1       0.741   7.847  -3.157  0.00  0.00    +0.077 A 
ATOM      5  C   UNL     1       1.476   7.253  -2.078  0.00  0.00    +0.048 A 
ATOM      6  C   UNL     1       2.876   7.438  -2.068  0.00  0.00    +0.116 A 
ATOM      7  N   UNL     1       3.486   8.165  -3.067  0.00  0.00    -0.223 NA
ATOM      8  C   UNL     1       2.748   8.723  -4.095  0.00  0.00    +0.220 A 
ATOM      9  N   UNL     1       3.339   9.465  -5.106  0.00  0.00    -0.283 N 
ATOM     36  H   UNL     1       2.761   9.854  -5.850  0.00  0.00    +0.155 HD
ATOM     37  N   UNL     1       1.409   8.559  -4.128  0.00  0.00    -0.214 NA
BRANCH   4   3
ATOM      1  C   UNL     1      -2.994   6.790  -2.673  0.00  0.00    +0.020 A 
ATOM      2  C   UNL     1      -1.563   6.853  -2.490  0.00  0.00    +0.013 A 
ATOM      3  C   UNL     1      -0.746   7.743  -3.305  0.00  0.00    +0.019 A 
ATOM     38  C   UNL     1      -1.414   8.563  -4.304  0.00  0.00    +0.120 A 
ATOM     39  N   UNL     1      -2.794   8.481  -4.459  0.00  0.00    -0.263 NA
ATOM     40  C   UNL     1      -3.590   7.627  -3.681  0.00  0.00    +0.111 A 
ENDBRANCH   4   3
ENDBRANCH  10   9
BRANCH  12  13
ATOM     13  N   UNL     1       7.352  11.572  -3.053  0.00  0.00    -0.281 N 
ATOM     14  C   UNL     1       6.909  12.772  -2.522  0.00  0.00    +0.248 C 
ATOM     30  O   UNL     1       6.001  13.442  -2.990  0.00  0.00    -0.270 OA
ATOM     31  H   UNL     1       8.235  11.217  -2.686  0.00  0.00    +0.155 HD
BRANCH  14  15
ATOM     15  C   UNL     1       7.582  13.313  -1.302  0.00  0.00    +0.037 A 
ATOM     16  C   UNL     1       6.888  14.231  -0.395  0.00  0.00    +0.013 A 
ATOM     17  C   UNL     1       7.566  14.752   0.766  0.00  0.00    +0.005 A 
ATOM     18  C   UNL     1       8.947  14.354   1.027  0.00  0.00    -0.033 A 
ATOM     28  C   UNL     1       9.610  13.438   0.113  0.00  0.00    +0.005 A 
ATOM     29  C   UNL     1       8.949  12.926  -1.026  0.00  0.00    +0.013 A 
BRANCH  18  19
ATOM     19  C   UNL     1       9.755  14.877   2.229  0.00  0.00    +0.119 C 
BRANCH  19  20
ATOM     20  N   UNL     1       8.999  15.176   3.482  0.00  0.00    -0.302 NA
ATOM     21  C   UNL     1       9.820  16.021   4.460  0.00  0.00    +0.066 C 
ATOM     22  C   UNL     1       9.007  16.343   5.756  0.00  0.00    -0.064 C 
ATOM     23  N   UNL     1       8.561  15.036   6.413  0.00  0.00    +0.379 N 
ATOM     24  C   UNL     1       7.845  15.334   7.662  0.00  0.00    -0.096 C 
ATOM     25  H   UNL     1       9.478  14.460   6.677  0.00  0.00    -0.082 HD
ATOM     26  C   UNL     1       7.746  14.188   5.447  0.00  0.00    -0.064 C 
ATOM     27  C   UNL     1       8.553  13.898   4.150  0.00  0.00    +0.066 C 
ENDBRANCH  19  20
ENDBRANCH  18  19
ENDBRANCH  14  15
ENDBRANCH  12  13
TORSDOF 6
ENDMDL
MODEL 5
REMARK VINA RESULT:      -9.2      8.748     13.881
REMARK  Name = C:\Users\Docking\Desktop\test protocol\1iep_ligandH.pdb
REMARK  8 active torsions:
REMARK  status: ('A' for Active; 'I' for Inactive)
REMARK    1  A    between atoms: _5  and  _11
REMARK    2  A    between atoms: _19  and  _21
REMARK    3  A    between atoms: _22  and  _66
REMARK    4  A    between atoms: _27  and  _30
REMARK    5  A    between atoms: _32  and  _33
REMARK    6  A    between atoms: _38  and  _43
REMARK    7  A    between atoms: _43  and  _46
REMARK    8  A    between atoms: _53  and  _55
REMARK                            x       y       z     vdW  Elec       q    Type
REMARK                         _______ _______ _______ _____ _____    ______ ____
ROOT
ATOM     10  C   UNL     1       4.578   9.647  -4.981  0.00  0.00    +0.038 A 
ATOM     11  C   UNL     1       5.080  10.449  -3.924  0.00  0.00    +0.047 A 
ATOM     12  C   UNL     1       6.502  10.725  -3.798  0.00  0.00    +0.035 A 
ATOM     32  C   UNL     1       7.386  10.170  -4.769  0.00  0.00    +0.024 A 
ATOM     33  C   UNL     1       6.894   9.352  -5.849  0.00  0.00    +0.007 A 
ATOM     34  C   UNL     1       5.492   9.074  -5.976  0.00  0.00    -0.029 A 
ATOM     35  C   UNL     1       5.021   8.185  -7.151  0.00  0.00    +0.045 C 
ENDROOT
BRANCH  10   9
ATOM      4  C   UNL     1       0.502   7.794  -3.252  0.00  0.00    +0.077 A 
ATOM      5  C   UNL     1       1.173   7.218  -2.122  0.00  0.00    +0.048 A 
ATOM      6  C   UNL     1       2.569   7.416  -2.027  0.00  0.00    +0.116 A 
ATOM      7  N   UNL     1       3.234   8.138  -2.995  0.00  0.00    -0.223 NA
ATOM      8  C   UNL     1       2.556   8.678  -4.072  0.00  0.00    +0.220 A 
ATOM      9  N   UNL     1       3.203   9.414  -5.053  0.00  0.00    -0.283 N 
ATOM     36  H   UNL     1       2.669   9.790  -5.836  0.00  0.00    +0.155 HD
ATOM     37  N   UNL     1       1.223   8.502  -4.187  0.00  0.00    -0.214 NA
BRANCH   4   3
ATOM      1  C   UNL     1      -3.066   8.142  -4.816  0.00  0.00    +0.020 A 
ATOM      2  C   UNL     1      -1.641   8.287  -4.631  0.00  0.00    +0.013 A 
ATOM      3  C   UNL     1      -0.971   7.675  -3.491  0.00  0.00    +0.019 A 
ATOM     38  C   UNL     1      -1.779   6.915  -2.548  0.00  0.00    +0.120 A 
ATOM     39  N   UNL     1      -3.150   6.793  -2.751  0.00  0.00    -0.263 NA
ATOM     40  C   UNL     1      -3.806   7.380  -3.844  0.00  0.00    +0.111 A 
ENDBRANCH   4   3
ENDBRANCH  10   9
BRANCH  12  13
ATOM     13  N   UNL     1       7.070  11.526  -2.742  0.00  0.00    -0.281 N 
ATOM     14  C   UNL     1       6.947  12.892  -2.549  0.00  0.00    +0.248 C 
ATOM     30  O   UNL     1       6.504  13.670  -3.380  0.00  0.00    -0.270 OA
ATOM     31  H   UNL     1       7.631  11.024  -2.053  0.00  0.00    +0.155 HD
BRANCH  14  15
ATOM     15  C   UNL     1       7.395  13.481  -1.250  0.00  0.00    +0.037 A 
ATOM     16  C   UNL     1       8.690  13.129  -0.662  0.00  0.00    +0.013 A 
ATOM     17  C   UNL     1       9.090  13.698   0.600  0.00  0.00    +0.005 A 
ATOM     18  C   UNL     1       8.194  14.628   1.283  0.00  0.00    -0.033 A 
ATOM     28  C   UNL     1       6.917  14.963   0.675  0.00  0.00    +0.005 A 
ATOM     29  C   UNL     1       6.521  14.407  -0.562  0.00  0.00    +0.013 A 
BRANCH  18  19
ATOM     19  C   UNL     1       8.530  15.267   2.643  0.00  0.00    +0.119 C 
BRANCH  19  20
ATOM     20  N   UNL     1       9.923  15.768   2.838  0.00  0.00    -0.302 NA
ATOM     21  C   UNL     1      10.845  14.691   3.418  0.00  0.00    +0.066 C 
ATOM     22  C   UNL     1      12.304  15.225   3.594  0.00  0.00    -0.064 C 
ATOM     23  N   UNL     1      12.285  16.464   4.491  0.00  0.00    +0.379 N 
ATOM     24  C   UNL     1      13.662  16.934   4.706  0.00  0.00    -0.096 C 
ATOM     25  H   UNL     1      11.874  16.158   5.481  0.00  0.00    -0.082 HD
ATOM     26  C   UNL     1      11.369  17.538   3.923  0.00  0.00    -0.064 C 
ATOM     27  C   UNL     1       9.929  16.988   3.725  0.00  0.00    +0.066 C 
ENDBRANCH  19  20
ENDBRANCH  18  19
ENDBRANCH  14  15
ENDBRANCH  12  13
TORSDOF 6
ENDMDL
