MODEL 1
REMARK VINA RESULT:     -11.5      0.000      0.000
REMARK  Name = C:\Users\Docking\Desktop\test protocol\1iep_ligandH.pdb
REMARK  8 active torsions:
REMARK  status: ('A' for Active; 'I' for Inactive)
REMARK    1  A    between atoms: _5  and  _11
REMARK    2  A    between atoms: _19  and  _21
REMARK    3  A    between atoms: _22  and  _66
REMARK    4  A    between atoms: _27  and  _30
REMARK    5  A    between atoms: _32  and  _33
REMARK    6  A    between atoms: _38  and  _43
REMARK    7  A    between atoms: _43  and  _46
REMARK    8  A    between atoms: _53  and  _55
REMARK                            x       y       z     vdW  Elec       q    Type
REMARK                         _______ _______ _______ _____ _____    ______ ____
ROOT
ATOM     10  C   UNL     1       3.471  -5.630   4.977  0.00  0.00    +0.038 A 
ATOM     11  C   UNL     1       3.334  -4.262   4.626  0.00  0.00    +0.047 A 
ATOM     12  C   UNL     1       2.082  -3.743   4.097  0.00  0.00    +0.035 A 
ATOM     32  C   UNL     1       0.989  -4.643   3.942  0.00  0.00    +0.024 A 
ATOM     33  C   UNL     1       1.110  -6.037   4.293  0.00  0.00    +0.007 A 
ATOM     34  C   UNL     1       2.343  -6.555   4.813  0.00  0.00    -0.029 A 
ATOM     35  C   UNL     1       2.419  -8.059   5.166  0.00  0.00    +0.045 C 
ENDROOT
BRANCH  10   9
ATOM      4  C   UNL     1       6.336  -6.935   8.600  0.00  0.00    +0.077 A 
ATOM      5  C   UNL     1       5.315  -6.683   9.576  0.00  0.00    +0.048 A 
ATOM      6  C   UNL     1       4.069  -6.211   9.105  0.00  0.00    +0.116 A 
ATOM      7  N   UNL     1       3.870  -6.011   7.756  0.00  0.00    -0.223 NA
ATOM      8  C   UNL     1       4.876  -6.262   6.842  0.00  0.00    +0.220 A 
ATOM      9  N   UNL     1       4.695  -6.075   5.480  0.00  0.00    -0.283 N 
ATOM     36  H   UNL     1       5.465  -6.264   4.838  0.00  0.00    +0.155 HD
ATOM     37  N   UNL     1       6.076  -6.711   7.266  0.00  0.00    -0.214 NA
BRANCH   4   3
ATOM      1  C   UNL     1       9.434  -8.282  10.572  0.00  0.00    +0.020 A 
ATOM      2  C   UNL     1       8.100  -7.800  10.296  0.00  0.00    +0.013 A 
ATOM      3  C   UNL     1       7.704  -7.438   8.941  0.00  0.00    +0.019 A 
ATOM     38  C   UNL     1       8.689  -7.578   7.879  0.00  0.00    +0.120 A 
ATOM     39  N   UNL     1       9.966  -8.043   8.175  0.00  0.00    -0.263 NA
ATOM     40  C   UNL     1      10.359  -8.393   9.475  0.00  0.00    +0.111 A 
ENDBRANCH   4   3
ENDBRANCH  10   9
BRANCH  12  13
ATOM     13  N   UNL     1       1.887  -2.366   3.716  0.00  0.00    -0.281 N 
ATOM     14  C   UNL     1       1.935  -1.243   4.525  0.00  0.00    +0.248 C 
ATOM     30  O   UNL     1       1.941  -1.271   5.747  0.00  0.00    -0.270 OA
ATOM     31  H   UNL     1       1.690  -2.199   2.729  0.00  0.00    +0.155 HD
BRANCH  14  15
ATOM     15  C   UNL     1       1.964   0.108   3.886  0.00  0.00    +0.037 A 
ATOM     16  C   UNL     1       1.581   1.310   4.630  0.00  0.00    +0.013 A 
ATOM     17  C   UNL     1       1.602   2.598   3.984  0.00  0.00    +0.005 A 
ATOM     18  C   UNL     1       2.010   2.691   2.584  0.00  0.00    -0.033 A 
ATOM     28  C   UNL     1       2.391   1.483   1.871  0.00  0.00    +0.005 A 
ATOM     29  C   UNL     1       2.370   0.218   2.501  0.00  0.00    +0.013 A 
BRANCH  18  19
ATOM     19  C   UNL     1       2.043   4.021   1.809  0.00  0.00    +0.119 C 
BRANCH  19  20
ATOM     20  N   UNL     1       3.023   5.053   2.261  0.00  0.00    -0.302 NA
ATOM     21  C   UNL     1       4.345   4.428   2.716  0.00  0.00    +0.066 C 
ATOM     22  C   UNL     1       5.368   5.523   3.164  0.00  0.00    -0.064 C 
ATOM     23  N   UNL     1       4.752   6.363   4.284  0.00  0.00    +0.379 N 
ATOM     24  C   UNL     1       5.732   7.356   4.748  0.00  0.00    -0.096 C 
ATOM     25  H   UNL     1       4.532   5.681   5.138  0.00  0.00    -0.082 HD
ATOM     26  C   UNL     1       3.436   6.986   3.841  0.00  0.00    -0.064 C 
ATOM     27  C   UNL     1       2.437   5.892   3.370  0.00  0.00    +0.066 C 
ENDBRANCH  19  20
ENDBRANCH  18  19
ENDBRANCH  14  15
ENDBRANCH  12  13
TORSDOF 6
ENDMDL
MODEL 2
REMARK VINA RESULT:     -11.3      1.902      2.211
REMARK  Name = C:\Users\Docking\Desktop\test protocol\1iep_ligandH.pdb
REMARK  8 active torsions:
REMARK  status: ('A' for Active; 'I' for Inactive)
REMARK    1  A    between atoms: _5  and  _11
REMARK    2  A    between atoms: _19  and  _21
REMARK    3  A    between atoms: _22  and  _66
REMARK    4  A    between atoms: _27  and  _30
REMARK    5  A    between atoms: _32  and  _33
REMARK    6  A    between atoms: _38  and  _43
REMARK    7  A    between atoms: _43  and  _46
REMARK    8  A    between atoms: _53  and  _55
REMARK                            x       y       z     vdW  Elec       q    Type
REMARK                         _______ _______ _______ _____ _____    ______ ____
ROOT
ATOM     10  C   UNL     1       3.405  -5.776   5.275  0.00  0.00    +0.038 A 
ATOM     11  C   UNL     1       3.203  -4.382   5.110  0.00  0.00    +0.047 A 
ATOM     12  C   UNL     1       1.918  -3.854   4.677  0.00  0.00    +0.035 A 
ATOM     32  C   UNL     1       0.860  -4.774   4.422  0.00  0.00    +0.024 A 
ATOM     33  C   UNL     1       1.048  -6.195   4.584  0.00  0.00    +0.007 A 
ATOM     34  C   UNL     1       2.314  -6.722   5.009  0.00  0.00    -0.029 A 
ATOM     35  C   UNL     1       2.461  -8.254   5.159  0.00  0.00    +0.045 C 
ENDROOT
BRANCH  10   9
ATOM      4  C   UNL     1       6.516  -7.058   8.697  0.00  0.00    +0.077 A 
ATOM      5  C   UNL     1       5.573  -6.777   9.742  0.00  0.00    +0.048 A 
ATOM      6  C   UNL     1       4.301  -6.298   9.357  0.00  0.00    +0.116 A 
ATOM      7  N   UNL     1       4.005  -6.117   8.023  0.00  0.00    -0.223 NA
ATOM      8  C   UNL     1       4.937  -6.395   7.041  0.00  0.00    +0.220 A 
ATOM      9  N   UNL     1       4.658  -6.228   5.693  0.00  0.00    -0.283 N 
ATOM     36  H   UNL     1       5.376  -6.438   5.000  0.00  0.00    +0.155 HD
ATOM     37  N   UNL     1       6.160  -6.853   7.383  0.00  0.00    -0.214 NA
BRANCH   4   3
ATOM      1  C   UNL     1       9.730  -8.430  10.455  0.00  0.00    +0.020 A 
ATOM      2  C   UNL     1       8.384  -7.936  10.271  0.00  0.00    +0.013 A 
ATOM      3  C   UNL     1       7.900  -7.573   8.945  0.00  0.00    +0.019 A 
ATOM     38  C   UNL     1       8.808  -7.722   7.818  0.00  0.00    +0.120 A 
ATOM     39  N   UNL     1      10.099  -8.198   8.027  0.00  0.00    -0.263 NA
ATOM     40  C   UNL     1      10.577  -8.550   9.298  0.00  0.00    +0.111 A 
ENDBRANCH   4   3
ENDBRANCH  10   9
BRANCH  12  13
ATOM     13  N   UNL     1       1.657  -2.449   4.484  0.00  0.00    -0.281 N 
ATOM     14  C   UNL     1       1.449  -1.777   3.291  0.00  0.00    +0.248 C 
ATOM     30  O   UNL     1       1.669  -2.248   2.185  0.00  0.00    -0.270 OA
ATOM     31  H   UNL     1       1.621  -1.881   5.331  0.00  0.00    +0.155 HD
BRANCH  14  15
ATOM     15  C   UNL     1       0.935  -0.374   3.332  0.00  0.00    +0.037 A 
ATOM     16  C   UNL     1       1.531   0.628   4.220  0.00  0.00    +0.013 A 
ATOM     17  C   UNL     1       1.006   1.969   4.253  0.00  0.00    +0.005 A 
ATOM     18  C   UNL     1      -0.122   2.318   3.392  0.00  0.00    -0.033 A 
ATOM     28  C   UNL     1      -0.691   1.306   2.517  0.00  0.00    +0.005 A 
ATOM     29  C   UNL     1      -0.179  -0.010   2.483  0.00  0.00    +0.013 A 
BRANCH  18  19
ATOM     19  C   UNL     1      -0.761   3.720   3.377  0.00  0.00    +0.119 C 
BRANCH  19  20
ATOM     20  N   UNL     1       0.153   4.885   3.189  0.00  0.00    -0.302 NA
ATOM     21  C   UNL     1      -0.543   6.216   3.489  0.00  0.00    +0.066 C 
ATOM     22  C   UNL     1       0.434   7.423   3.309  0.00  0.00    -0.064 C 
ATOM     23  N   UNL     1       0.994   7.414   1.886  0.00  0.00    +0.379 N 
ATOM     24  C   UNL     1       1.868   8.581   1.696  0.00  0.00    -0.096 C 
ATOM     25  H   UNL     1       0.134   7.517   1.184  0.00  0.00    -0.082 HD
ATOM     26  C   UNL     1       1.686   6.094   1.578  0.00  0.00    -0.064 C 
ATOM     27  C   UNL     1       0.715   4.899   1.788  0.00  0.00    +0.066 C 
ENDBRANCH  19  20
ENDBRANCH  18  19
ENDBRANCH  14  15
ENDBRANCH  12  13
TORSDOF 6
ENDMDL
MODEL 3
REMARK VINA RESULT:     -10.8      1.903     12.055
REMARK  Name = C:\Users\Docking\Desktop\test protocol\1iep_ligandH.pdb
REMARK  8 active torsions:
REMARK  status: ('A' for Active; 'I' for Inactive)
REMARK    1  A    between atoms: _5  and  _11
REMARK    2  A    between atoms: _19  and  _21
REMARK    3  A    between atoms: _22  and  _66
REMARK    4  A    between atoms: _27  and  _30
REMARK    5  A    between atoms: _32  and  _33
REMARK    6  A    between atoms: _38  and  _43
REMARK    7  A    between atoms: _43  and  _46
REMARK    8  A    between atoms: _53  and  _55
REMARK                            x       y       z     vdW  Elec       q    Type
REMARK                         _______ _______ _______ _____ _____    ______ ____
ROOT
ATOM     10  C   UNL     1       1.326  -0.429   4.231  0.00  0.00    +0.038 A 
ATOM     11  C   UNL     1       2.017  -1.270   5.141  0.00  0.00    +0.047 A 
ATOM     12  C   UNL     1       1.902  -2.718   5.062  0.00  0.00    +0.035 A 
ATOM     32  C   UNL     1       1.078  -3.276   4.042  0.00  0.00    +0.024 A 
ATOM     33  C   UNL     1       0.369  -2.436   3.109  0.00  0.00    +0.007 A 
ATOM     34  C   UNL     1       0.476  -1.007   3.184  0.00  0.00    -0.029 A 
ATOM     35  C   UNL     1      -0.313  -0.155   2.162  0.00  0.00    +0.045 C 
ENDROOT
BRANCH  10   9
ATOM      4  C   UNL     1       3.216   3.764   2.860  0.00  0.00    +0.077 A 
ATOM      5  C   UNL     1       4.000   3.142   1.832  0.00  0.00    +0.048 A 
ATOM      6  C   UNL     1       3.894   1.740   1.694  0.00  0.00    +0.116 A 
ATOM      7  N   UNL     1       3.062   1.024   2.527  0.00  0.00    -0.223 NA
ATOM      8  C   UNL     1       2.321   1.654   3.509  0.00  0.00    +0.220 A 
ATOM      9  N   UNL     1       1.472   0.954   4.353  0.00  0.00    -0.283 N 
ATOM     36  H   UNL     1       0.948   1.455   5.070  0.00  0.00    +0.155 HD
ATOM     37  N   UNL     1       2.406   2.992   3.663  0.00  0.00    -0.214 NA
BRANCH   4   3
ATOM      1  C   UNL     1       4.381   7.411   3.665  0.00  0.00    +0.020 A 
ATOM      2  C   UNL     1       4.434   5.989   3.414  0.00  0.00    +0.013 A 
ATOM      3  C   UNL     1       3.218   5.237   3.128  0.00  0.00    +0.019 A 
ATOM     38  C   UNL     1       1.955   5.960   3.104  0.00  0.00    +0.120 A 
ATOM     39  N   UNL     1       1.935   7.329   3.352  0.00  0.00    -0.263 NA
ATOM     40  C   UNL     1       3.098   8.062   3.629  0.00  0.00    +0.111 A 
ENDBRANCH   4   3
ENDBRANCH  10   9
BRANCH  12  13
ATOM     13  N   UNL     1       2.573  -3.622   5.963  0.00  0.00    -0.281 N 
ATOM     14  C   UNL     1       3.059  -4.891   5.692  0.00  0.00    +0.248 C 
ATOM     30  O   UNL     1       2.800  -5.529   4.682  0.00  0.00    -0.270 OA
ATOM     31  H   UNL     1       2.706  -3.287   6.917  0.00  0.00    +0.155 HD
BRANCH  14  15
ATOM     15  C   UNL     1       3.951  -5.552   6.692  0.00  0.00    +0.037 A 
ATOM     16  C   UNL     1       5.225  -6.155   6.293  0.00  0.00    +0.013 A 
ATOM     17  C   UNL     1       6.059  -6.802   7.275  0.00  0.00    +0.005 A 
ATOM     18  C   UNL     1       5.620  -6.847   8.668  0.00  0.00    -0.033 A 
ATOM     28  C   UNL     1       4.354  -6.236   9.038  0.00  0.00    +0.005 A 
ATOM     29  C   UNL     1       3.534  -5.602   8.077  0.00  0.00    +0.013 A 
BRANCH  18  19
ATOM     19  C   UNL     1       6.436  -7.534   9.780  0.00  0.00    +0.119 C 
BRANCH  19  20
ATOM     20  N   UNL     1       7.924  -7.478   9.670  0.00  0.00    -0.302 NA
ATOM     21  C   UNL     1       8.431  -8.151   8.392  0.00  0.00    +0.066 C 
ATOM     22  C   UNL     1       9.988  -8.064   8.282  0.00  0.00    -0.064 C 
ATOM     23  N   UNL     1      10.621  -8.705   9.519  0.00  0.00    +0.379 N 
ATOM     24  C   UNL     1      12.085  -8.676   9.392  0.00  0.00    -0.096 C 
ATOM     25  H   UNL     1      10.304  -9.773   9.545  0.00  0.00    -0.082 HD
ATOM     26  C   UNL     1      10.120  -8.043  10.795  0.00  0.00    -0.064 C 
ATOM     27  C   UNL     1       8.569  -8.109  10.879  0.00  0.00    +0.066 C 
ENDBRANCH  19  20
ENDBRANCH  18  19
ENDBRANCH  14  15
ENDBRANCH  12  13
TORSDOF 6
ENDMDL
MODEL 4
REMARK VINA RESULT:     -10.8      6.733     12.820
REMARK  Name = C:\Users\Docking\Desktop\test protocol\1iep_ligandH.pdb
REMARK  8 active torsions:
REMARK  status: ('A' for Active; 'I' for Inactive)
REMARK    1  A    between atoms: _5  and  _11
REMARK    2  A    between atoms: _19  and  _21
REMARK    3  A    between atoms: _22  and  _66
REMARK    4  A    between atoms: _27  and  _30
REMARK    5  A    between atoms: _32  and  _33
REMARK    6  A    between atoms: _38  and  _43
REMARK    7  A    between atoms: _43  and  _46
REMARK    8  A    between atoms: _53  and  _55
REMARK                            x       y       z     vdW  Elec       q    Type
REMARK                         _______ _______ _______ _____ _____    ______ ____
ROOT
ATOM     10  C   UNL     1       3.331  -6.281   5.785  0.00  0.00    +0.038 A 
ATOM     11  C   UNL     1       4.643  -6.618   6.205  0.00  0.00    +0.047 A 
ATOM     12  C   UNL     1       5.088  -6.357   7.565  0.00  0.00    +0.035 A 
ATOM     32  C   UNL     1       4.169  -5.754   8.472  0.00  0.00    +0.024 A 
ATOM     33  C   UNL     1       2.832  -5.404   8.062  0.00  0.00    +0.007 A 
ATOM     34  C   UNL     1       2.389  -5.656   6.721  0.00  0.00    -0.029 A 
ATOM     35  C   UNL     1       0.946  -5.254   6.334  0.00  0.00    +0.045 C 
ENDROOT
BRANCH  10   9
ATOM      4  C   UNL     1       1.601  -9.206   2.396  0.00  0.00    +0.077 A 
ATOM      5  C   UNL     1       1.455 -10.291   3.323  0.00  0.00    +0.048 A 
ATOM      6  C   UNL     1       1.844 -10.058   4.661  0.00  0.00    +0.116 A 
ATOM      7  N   UNL     1       2.339  -8.827   5.033  0.00  0.00    -0.223 NA
ATOM      8  C   UNL     1       2.468  -7.802   4.113  0.00  0.00    +0.220 A 
ATOM      9  N   UNL     1       2.957  -6.554   4.467  0.00  0.00    -0.283 N 
ATOM     36  H   UNL     1       3.044  -5.827   3.757  0.00  0.00    +0.155 HD
ATOM     37  N   UNL     1       2.106  -8.001   2.829  0.00  0.00    -0.214 NA
BRANCH   4   3
ATOM      1  C   UNL     1      -0.388  -9.025  -0.967  0.00  0.00    +0.020 A 
ATOM      2  C   UNL     1      -0.082  -8.918   0.440  0.00  0.00    +0.013 A 
ATOM      3  C   UNL     1       1.231  -9.297   0.948  0.00  0.00    +0.019 A 
ATOM     38  C   UNL     1       2.219  -9.783  -0.003  0.00  0.00    +0.120 A 
ATOM     39  N   UNL     1       1.895  -9.877  -1.353  0.00  0.00    -0.263 NA
ATOM     40  C   UNL     1       0.635  -9.516  -1.853  0.00  0.00    +0.111 A 
ENDBRANCH   4   3
ENDBRANCH  10   9
BRANCH  12  13
ATOM     13  N   UNL     1       6.411  -6.670   8.046  0.00  0.00    -0.281 N 
ATOM     14  C   UNL     1       6.768  -7.187   9.281  0.00  0.00    +0.248 C 
ATOM     30  O   UNL     1       6.017  -7.260  10.243  0.00  0.00    -0.270 OA
ATOM     31  H   UNL     1       7.177  -6.489   7.398  0.00  0.00    +0.155 HD
BRANCH  14  15
ATOM     15  C   UNL     1       8.164  -7.682   9.480  0.00  0.00    +0.037 A 
ATOM     16  C   UNL     1       9.107  -7.767   8.363  0.00  0.00    +0.013 A 
ATOM     17  C   UNL     1      10.442  -8.264   8.579  0.00  0.00    +0.005 A 
ATOM     18  C   UNL     1      10.843  -8.679   9.921  0.00  0.00    -0.033 A 
ATOM     28  C   UNL     1       9.889  -8.580  11.013  0.00  0.00    +0.005 A 
ATOM     29  C   UNL     1       8.579  -8.094  10.805  0.00  0.00    +0.013 A 
BRANCH  18  19
ATOM     19  C   UNL     1      12.241  -9.242  10.241  0.00  0.00    +0.119 C 
BRANCH  19  20
ATOM     20  N   UNL     1      12.946  -9.981   9.151  0.00  0.00    -0.302 NA
ATOM     21  C   UNL     1      12.155 -11.206   8.683  0.00  0.00    +0.066 C 
ATOM     22  C   UNL     1      12.895 -11.955   7.528  0.00  0.00    -0.064 C 
ATOM     23  N   UNL     1      14.293 -12.360   8.000  0.00  0.00    +0.379 N 
ATOM     24  C   UNL     1      14.970 -13.115   6.936  0.00  0.00    -0.096 C 
ATOM     25  H   UNL     1      14.170 -13.043   8.874  0.00  0.00    -0.082 HD
ATOM     26  C   UNL     1      15.085 -11.149   8.470  0.00  0.00    -0.064 C 
ATOM     27  C   UNL     1      14.326 -10.395   9.597  0.00  0.00    +0.066 C 
ENDBRANCH  19  20
ENDBRANCH  18  19
ENDBRANCH  14  15
ENDBRANCH  12  13
TORSDOF 6
ENDMDL
MODEL 5
REMARK VINA RESULT:     -10.8      6.519     11.644
REMARK  Name = C:\Users\Docking\Desktop\test protocol\1iep_ligandH.pdb
REMARK  8 active torsions:
REMARK  status: ('A' for Active; 'I' for Inactive)
REMARK    1  A    between atoms: _5  and  _11
REMARK    2  A    between atoms: _19  and  _21
REMARK    3  A    between atoms: _22  and  _66
REMARK    4  A    between atoms: _27  and  _30
REMARK    5  A    between atoms: _32  and  _33
REMARK    6  A    between atoms: _38  and  _43
REMARK    7  A    between atoms: _43  and  _46
REMARK    8  A    between atoms: _53  and  _55
REMARK                            x       y       z     vdW  Elec       q    Type
REMARK                         _______ _______ _______ _____ _____    ______ ____
ROOT
ATOM     10  C   UNL     1      12.912  -9.324   9.243  0.00  0.00    +0.038 A 
ATOM     11  C   UNL     1      11.660  -8.962   8.682  0.00  0.00    +0.047 A 
ATOM     12  C   UNL     1      10.554  -8.533   9.523  0.00  0.00    +0.035 A 
ATOM     32  C   UNL     1      10.758  -8.482  10.933  0.00  0.00    +0.024 A 
ATOM     33  C   UNL     1      12.023  -8.847  11.521  0.00  0.00    +0.007 A 
ATOM     34  C   UNL     1      13.117  -9.274  10.696  0.00  0.00    -0.029 A 
ATOM     35  C   UNL     1      14.449  -9.660  11.380  0.00  0.00    +0.045 C 
ENDROOT
BRANCH  10   9
ATOM      4  C   UNL     1      15.491 -12.715   7.033  0.00  0.00    +0.077 A 
ATOM      5  C   UNL     1      14.745 -13.771   7.655  0.00  0.00    +0.048 A 
ATOM      6  C   UNL     1      13.710 -13.399   8.543  0.00  0.00    +0.116 A 
ATOM      7  N   UNL     1      13.450 -12.067   8.783  0.00  0.00    -0.223 NA
ATOM      8  C   UNL     1      14.189 -11.074   8.168  0.00  0.00    +0.220 A 
ATOM      9  N   UNL     1      13.939  -9.728   8.388  0.00  0.00    -0.283 N 
ATOM     36  H   UNL     1      14.512  -9.026   7.921  0.00  0.00    +0.155 HD
ATOM     37  N   UNL     1      15.184 -11.403   7.317  0.00  0.00    -0.214 NA
BRANCH   4   3
ATOM      1  C   UNL     1      17.649 -12.821   3.773  0.00  0.00    +0.020 A 
ATOM      2  C   UNL     1      16.538 -12.575   4.662  0.00  0.00    +0.013 A 
ATOM      3  C   UNL     1      16.612 -12.948   6.069  0.00  0.00    +0.019 A 
ATOM     38  C   UNL     1      17.836 -13.573   6.548  0.00  0.00    +0.120 A 
ATOM     39  N   UNL     1      18.890 -13.799   5.668  0.00  0.00    -0.263 NA
ATOM     40  C   UNL     1      18.829 -13.446   4.312  0.00  0.00    +0.111 A 
ENDBRANCH   4   3
ENDBRANCH  10   9
BRANCH  12  13
ATOM     13  N   UNL     1       9.259  -8.161   9.011  0.00  0.00    -0.281 N 
ATOM     14  C   UNL     1       8.078  -8.000   9.717  0.00  0.00    +0.248 C 
ATOM     30  O   UNL     1       7.909  -8.360  10.872  0.00  0.00    -0.270 OA
ATOM     31  H   UNL     1       9.206  -7.997   8.006  0.00  0.00    +0.155 HD
BRANCH  14  15
ATOM     15  C   UNL     1       6.912  -7.358   9.037  0.00  0.00    +0.037 A 
ATOM     16  C   UNL     1       5.690  -7.027   9.775  0.00  0.00    +0.013 A 
ATOM     17  C   UNL     1       4.574  -6.423   9.091  0.00  0.00    +0.005 A 
ATOM     18  C   UNL     1       4.675  -6.145   7.660  0.00  0.00    -0.033 A 
ATOM     28  C   UNL     1       5.901  -6.479   6.954  0.00  0.00    +0.005 A 
ATOM     29  C   UNL     1       6.997  -7.071   7.621  0.00  0.00    +0.013 A 
BRANCH  18  19
ATOM     19  C   UNL     1       3.526  -5.523   6.845  0.00  0.00    +0.119 C 
BRANCH  19  20
ATOM     20  N   UNL     1       3.202  -6.151   5.530  0.00  0.00    -0.302 NA
ATOM     21  C   UNL     1       2.176  -5.334   4.740  0.00  0.00    +0.066 C 
ATOM     22  C   UNL     1       1.865  -5.994   3.358  0.00  0.00    -0.064 C 
ATOM     23  N   UNL     1       1.365  -7.423   3.579  0.00  0.00    +0.379 N 
ATOM     24  C   UNL     1       1.017  -8.027   2.284  0.00  0.00    -0.096 C 
ATOM     25  H   UNL     1       0.432  -7.364   4.187  0.00  0.00    -0.082 HD
ATOM     26  C   UNL     1       2.378  -8.242   4.366  0.00  0.00    -0.064 C 
ATOM     27  C   UNL     1       2.702  -7.562   5.725  0.00  0.00    +0.066 C 
ENDBRANCH  19  20
ENDBRANCH  18  19
ENDBRANCH  14  15
ENDBRANCH  12  13
TORSDOF 6
ENDMDL
