MODEL 1
REMARK VINA RESULT:     -11.3      0.000      0.000
REMARK  Name = C:\Users\Docking\Desktop\test protocol\1iep_ligandH.pdb
REMARK  8 active torsions:
REMARK  status: ('A' for Active; 'I' for Inactive)
REMARK    1  A    between atoms: _5  and  _11
REMARK    2  A    between atoms: _19  and  _21
REMARK    3  A    between atoms: _22  and  _66
REMARK    4  A    between atoms: _27  and  _30
REMARK    5  A    between atoms: _32  and  _33
REMARK    6  A    between atoms: _38  and  _43
REMARK    7  A    between atoms: _43  and  _46
REMARK    8  A    between atoms: _53  and  _55
REMARK                            x       y       z     vdW  Elec       q    Type
REMARK                         _______ _______ _______ _____ _____    ______ ____
ROOT
ATOM     10  C   UNL     1       2.942  -4.994   4.523  0.00  0.00    +0.038 A 
ATOM     11  C   UNL     1       2.888  -3.608   4.229  0.00  0.00    +0.047 A 
ATOM     12  C   UNL     1       1.723  -3.019   3.588  0.00  0.00    +0.035 A 
ATOM     32  C   UNL     1       0.628  -3.871   3.263  0.00  0.00    +0.024 A 
ATOM     33  C   UNL     1       0.665  -5.283   3.554  0.00  0.00    +0.007 A 
ATOM     34  C   UNL     1       1.814  -5.870   4.184  0.00  0.00    -0.029 A 
ATOM     35  C   UNL     1       1.802  -7.390   4.467  0.00  0.00    +0.045 C 
ENDROOT
BRANCH  10   9
ATOM      4  C   UNL     1       5.418  -6.325   8.414  0.00  0.00    +0.077 A 
ATOM      5  C   UNL     1       4.353  -5.942   9.295  0.00  0.00    +0.048 A 
ATOM      6  C   UNL     1       3.188  -5.400   8.708  0.00  0.00    +0.116 A 
ATOM      7  N   UNL     1       3.105  -5.257   7.340  0.00  0.00    -0.223 NA
ATOM      8  C   UNL     1       4.151  -5.634   6.518  0.00  0.00    +0.220 A 
ATOM      9  N   UNL     1       4.086  -5.506   5.139  0.00  0.00    -0.283 N 
ATOM     36  H   UNL     1       4.882  -5.789   4.569  0.00  0.00    +0.155 HD
ATOM     37  N   UNL     1       5.275  -6.153   7.055  0.00  0.00    -0.214 NA
BRANCH   4   3
ATOM      1  C   UNL     1       8.176  -7.983  10.637  0.00  0.00    +0.020 A 
ATOM      2  C   UNL     1       6.907  -7.422  10.235  0.00  0.00    +0.013 A 
ATOM      3  C   UNL     1       6.712  -6.915   8.882  0.00  0.00    +0.019 A 
ATOM     38  C   UNL     1       7.829  -6.992   7.953  0.00  0.00    +0.120 A 
ATOM     39  N   UNL     1       9.040  -7.537   8.369  0.00  0.00    -0.263 NA
ATOM     40  C   UNL     1       9.241  -8.026   9.669  0.00  0.00    +0.111 A 
ENDBRANCH   4   3
ENDBRANCH  10   9
BRANCH  12  13
ATOM     13  N   UNL     1       1.615  -1.619   3.258  0.00  0.00    -0.281 N 
ATOM     14  C   UNL     1       1.579  -0.540   4.125  0.00  0.00    +0.248 C 
ATOM     30  O   UNL     1       1.418  -0.629   5.333  0.00  0.00    -0.270 OA
ATOM     31  H   UNL     1       1.559  -1.398   2.263  0.00  0.00    +0.155 HD
BRANCH  14  15
ATOM     15  C   UNL     1       1.729   0.839   3.568  0.00  0.00    +0.037 A 
ATOM     16  C   UNL     1       2.197   1.058   2.197  0.00  0.00    +0.013 A 
ATOM     17  C   UNL     1       2.349   2.399   1.690  0.00  0.00    +0.005 A 
ATOM     18  C   UNL     1       2.030   3.532   2.556  0.00  0.00    -0.033 A 
ATOM     28  C   UNL     1       1.562   3.286   3.910  0.00  0.00    +0.005 A 
ATOM     29  C   UNL     1       1.413   1.973   4.410  0.00  0.00    +0.013 A 
BRANCH  18  19
ATOM     19  C   UNL     1       2.182   4.997   2.106  0.00  0.00    +0.119 C 
BRANCH  19  20
ATOM     20  N   UNL     1       2.936   5.916   3.011  0.00  0.00    -0.302 NA
ATOM     21  C   UNL     1       2.754   7.385   2.619  0.00  0.00    +0.066 C 
ATOM     22  C   UNL     1       3.532   8.333   3.590  0.00  0.00    -0.064 C 
ATOM     23  N   UNL     1       5.013   7.952   3.592  0.00  0.00    +0.379 N 
ATOM     24  C   UNL     1       5.756   8.879   4.459  0.00  0.00    -0.096 C 
ATOM     25  H   UNL     1       5.397   8.080   2.553  0.00  0.00    -0.082 HD
ATOM     26  C   UNL     1       5.203   6.492   3.978  0.00  0.00    -0.064 C 
ATOM     27  C   UNL     1       4.403   5.560   3.025  0.00  0.00    +0.066 C 
ENDBRANCH  19  20
ENDBRANCH  18  19
ENDBRANCH  14  15
ENDBRANCH  12  13
TORSDOF 6
ENDMDL
MODEL 2
REMARK VINA RESULT:     -10.9      2.892     12.301
REMARK  Name = C:\Users\Docking\Desktop\test protocol\1iep_ligandH.pdb
REMARK  8 active torsions:
REMARK  status: ('A' for Active; 'I' for Inactive)
REMARK    1  A    between atoms: _5  and  _11
REMARK    2  A    between atoms: _19  and  _21
REMARK    3  A    between atoms: _22  and  _66
REMARK    4  A    between atoms: _27  and  _30
REMARK    5  A    between atoms: _32  and  _33
REMARK    6  A    between atoms: _38  and  _43
REMARK    7  A    between atoms: _43  and  _46
REMARK    8  A    between atoms: _53  and  _55
REMARK                            x       y       z     vdW  Elec       q    Type
REMARK                         _______ _______ _______ _____ _____    ______ ____
ROOT
ATOM     10  C   UNL     1       2.171  -4.483   3.675  0.00  0.00    +0.038 A 
ATOM     11  C   UNL     1       3.316  -4.659   4.494  0.00  0.00    +0.047 A 
ATOM     12  C   UNL     1       3.445  -5.814   5.368  0.00  0.00    +0.035 A 
ATOM     32  C   UNL     1       2.390  -6.773   5.381  0.00  0.00    +0.024 A 
ATOM     33  C   UNL     1       1.219  -6.609   4.556  0.00  0.00    +0.007 A 
ATOM     34  C   UNL     1       1.085  -5.470   3.694  0.00  0.00    -0.029 A 
ATOM     35  C   UNL     1      -0.195  -5.343   2.836  0.00  0.00    +0.045 C 
ENDROOT
BRANCH  10   9
ATOM      4  C   UNL     1       1.634   0.240   3.009  0.00  0.00    +0.077 A 
ATOM      5  C   UNL     1       1.455   0.477   4.413  0.00  0.00    +0.048 A 
ATOM      6  C   UNL     1       1.501  -0.644   5.272  0.00  0.00    +0.116 A 
ATOM      7  N   UNL     1       1.711  -1.904   4.754  0.00  0.00    -0.223 NA
ATOM      8  C   UNL     1       1.879  -2.098   3.395  0.00  0.00    +0.220 A 
ATOM      9  N   UNL     1       2.100  -3.355   2.854  0.00  0.00    -0.283 N 
ATOM     36  H   UNL     1       2.211  -3.457   1.846  0.00  0.00    +0.155 HD
ATOM     37  N   UNL     1       1.838  -1.044   2.554  0.00  0.00    -0.214 NA
BRANCH   4   3
ATOM      1  C   UNL     1       0.488   2.658   0.157  0.00  0.00    +0.020 A 
ATOM      2  C   UNL     1       0.454   1.600   1.140  0.00  0.00    +0.013 A 
ATOM      3  C   UNL     1       1.615   1.323   1.976  0.00  0.00    +0.019 A 
ATOM     38  C   UNL     1       2.804   2.142   1.791  0.00  0.00    +0.120 A 
ATOM     39  N   UNL     1       2.807   3.153   0.835  0.00  0.00    -0.263 NA
ATOM     40  C   UNL     1       1.697   3.428   0.024  0.00  0.00    +0.111 A 
ENDBRANCH   4   3
ENDBRANCH  10   9
BRANCH  12  13
ATOM     13  N   UNL     1       4.580  -6.042   6.228  0.00  0.00    -0.281 N 
ATOM     14  C   UNL     1       4.645  -5.912   7.605  0.00  0.00    +0.248 C 
ATOM     30  O   UNL     1       3.789  -5.371   8.289  0.00  0.00    -0.270 OA
ATOM     31  H   UNL     1       5.441  -6.335   5.764  0.00  0.00    +0.155 HD
BRANCH  14  15
ATOM     15  C   UNL     1       5.839  -6.448   8.326  0.00  0.00    +0.037 A 
ATOM     16  C   UNL     1       7.124  -6.622   7.643  0.00  0.00    +0.013 A 
ATOM     17  C   UNL     1       8.256  -7.158   8.357  0.00  0.00    +0.005 A 
ATOM     18  C   UNL     1       8.108  -7.521   9.765  0.00  0.00    -0.033 A 
ATOM     28  C   UNL     1       6.824  -7.333  10.419  0.00  0.00    +0.005 A 
ATOM     29  C   UNL     1       5.712  -6.810   9.722  0.00  0.00    +0.013 A 
BRANCH  18  19
ATOM     19  C   UNL     1       9.256  -8.119  10.599  0.00  0.00    +0.119 C 
BRANCH  19  20
ATOM     20  N   UNL     1      10.535  -8.418   9.888  0.00  0.00    -0.302 NA
ATOM     21  C   UNL     1      10.435  -9.686   9.035  0.00  0.00    +0.066 C 
ATOM     22  C   UNL     1      11.774  -9.971   8.280  0.00  0.00    -0.064 C 
ATOM     23  N   UNL     1      12.913 -10.089   9.294  0.00  0.00    +0.379 N 
ATOM     24  C   UNL     1      14.163 -10.414   8.593  0.00  0.00    -0.096 C 
ATOM     25  H   UNL     1      12.674 -10.940   9.973  0.00  0.00    -0.082 HD
ATOM     26  C   UNL     1      13.018  -8.833  10.148  0.00  0.00    -0.064 C 
ATOM     27  C   UNL     1      11.673  -8.542  10.871  0.00  0.00    +0.066 C 
ENDBRANCH  19  20
ENDBRANCH  18  19
ENDBRANCH  14  15
ENDBRANCH  12  13
TORSDOF 6
ENDMDL
MODEL 3
REMARK VINA RESULT:     -10.9      1.254      1.768
REMARK  Name = C:\Users\Docking\Desktop\test protocol\1iep_ligandH.pdb
REMARK  8 active torsions:
REMARK  status: ('A' for Active; 'I' for Inactive)
REMARK    1  A    between atoms: _5  and  _11
REMARK    2  A    between atoms: _19  and  _21
REMARK    3  A    between atoms: _22  and  _66
REMARK    4  A    between atoms: _27  and  _30
REMARK    5  A    between atoms: _32  and  _33
REMARK    6  A    between atoms: _38  and  _43
REMARK    7  A    between atoms: _43  and  _46
REMARK    8  A    between atoms: _53  and  _55
REMARK                            x       y       z     vdW  Elec       q    Type
REMARK                         _______ _______ _______ _____ _____    ______ ____
ROOT
ATOM     10  C   UNL     1       3.483  -5.244   4.970  0.00  0.00    +0.038 A 
ATOM     11  C   UNL     1       3.376  -3.841   4.788  0.00  0.00    +0.047 A 
ATOM     12  C   UNL     1       2.185  -3.247   4.200  0.00  0.00    +0.035 A 
ATOM     32  C   UNL     1       1.121  -4.112   3.812  0.00  0.00    +0.024 A 
ATOM     33  C   UNL     1       1.213  -5.540   3.989  0.00  0.00    +0.007 A 
ATOM     34  C   UNL     1       2.386  -6.131   4.566  0.00  0.00    -0.029 A 
ATOM     35  C   UNL     1       2.432  -7.669   4.726  0.00  0.00    +0.045 C 
ENDROOT
BRANCH  10   9
ATOM      4  C   UNL     1       6.077  -6.666   8.750  0.00  0.00    +0.077 A 
ATOM      5  C   UNL     1       5.030  -6.326   9.671  0.00  0.00    +0.048 A 
ATOM      6  C   UNL     1       3.843  -5.781   9.132  0.00  0.00    +0.116 A 
ATOM      7  N   UNL     1       3.723  -5.595   7.772  0.00  0.00    -0.223 NA
ATOM      8  C   UNL     1       4.752  -5.932   6.912  0.00  0.00    +0.220 A 
ATOM      9  N   UNL     1       4.649  -5.760   5.540  0.00  0.00    -0.283 N 
ATOM     36  H   UNL     1       5.433  -6.014   4.940  0.00  0.00    +0.155 HD
ATOM     37  N   UNL     1       5.896  -6.452   7.402  0.00  0.00    -0.214 NA
BRANCH   4   3
ATOM      1  C   UNL     1       8.953  -8.245  10.880  0.00  0.00    +0.020 A 
ATOM      2  C   UNL     1       7.668  -7.683  10.531  0.00  0.00    +0.013 A 
ATOM      3  C   UNL     1       7.389  -7.254   9.166  0.00  0.00    +0.019 A 
ATOM     38  C   UNL     1       8.439  -7.410   8.170  0.00  0.00    +0.120 A 
ATOM     39  N   UNL     1       9.667  -7.953   8.536  0.00  0.00    -0.263 NA
ATOM     40  C   UNL     1       9.947  -8.367   9.847  0.00  0.00    +0.111 A 
ENDBRANCH   4   3
ENDBRANCH  10   9
BRANCH  12  13
ATOM     13  N   UNL     1       2.024  -1.831   3.983  0.00  0.00    -0.281 N 
ATOM     14  C   UNL     1       1.543  -1.192   2.852  0.00  0.00    +0.248 C 
ATOM     30  O   UNL     1       1.378  -1.735   1.769  0.00  0.00    -0.270 OA
ATOM     31  H   UNL     1       2.297  -1.226   4.758  0.00  0.00    +0.155 HD
BRANCH  14  15
ATOM     15  C   UNL     1       1.211   0.263   2.930  0.00  0.00    +0.037 A 
ATOM     16  C   UNL     1       1.067   0.941   4.221  0.00  0.00    +0.013 A 
ATOM     17  C   UNL     1       0.730   2.341   4.269  0.00  0.00    +0.005 A 
ATOM     18  C   UNL     1       0.534   3.074   3.020  0.00  0.00    -0.033 A 
ATOM     28  C   UNL     1       0.688   2.378   1.753  0.00  0.00    +0.005 A 
ATOM     29  C   UNL     1       1.018   1.005   1.703  0.00  0.00    +0.013 A 
BRANCH  18  19
ATOM     19  C   UNL     1       0.151   4.565   2.976  0.00  0.00    +0.119 C 
BRANCH  19  20
ATOM     20  N   UNL     1       1.266   5.554   2.876  0.00  0.00    -0.302 NA
ATOM     21  C   UNL     1       2.514   5.092   3.633  0.00  0.00    +0.066 C 
ATOM     22  C   UNL     1       3.677   6.128   3.499  0.00  0.00    -0.064 C 
ATOM     23  N   UNL     1       3.205   7.489   4.014  0.00  0.00    +0.379 N 
ATOM     24  C   UNL     1       4.315   8.451   3.943  0.00  0.00    -0.096 C 
ATOM     25  H   UNL     1       2.930   7.368   5.087  0.00  0.00    -0.082 HD
ATOM     26  C   UNL     1       1.963   7.955   3.269  0.00  0.00    -0.064 C 
ATOM     27  C   UNL     1       0.823   6.905   3.383  0.00  0.00    +0.066 C 
ENDBRANCH  19  20
ENDBRANCH  18  19
ENDBRANCH  14  15
ENDBRANCH  12  13
TORSDOF 6
ENDMDL
MODEL 4
REMARK VINA RESULT:     -10.8      1.284      1.898
REMARK  Name = C:\Users\Docking\Desktop\test protocol\1iep_ligandH.pdb
REMARK  8 active torsions:
REMARK  status: ('A' for Active; 'I' for Inactive)
REMARK    1  A    between atoms: _5  and  _11
REMARK    2  A    between atoms: _19  and  _21
REMARK    3  A    between atoms: _22  and  _66
REMARK    4  A    between atoms: _27  and  _30
REMARK    5  A    between atoms: _32  and  _33
REMARK    6  A    between atoms: _38  and  _43
REMARK    7  A    between atoms: _43  and  _46
REMARK    8  A    between atoms: _53  and  _55
REMARK                            x       y       z     vdW  Elec       q    Type
REMARK                         _______ _______ _______ _____ _____    ______ ____
ROOT
ATOM     10  C   UNL     1       3.501  -5.224   4.751  0.00  0.00    +0.038 A 
ATOM     11  C   UNL     1       3.424  -3.853   4.398  0.00  0.00    +0.047 A 
ATOM     12  C   UNL     1       2.245  -3.309   3.743  0.00  0.00    +0.035 A 
ATOM     32  C   UNL     1       1.159  -4.190   3.465  0.00  0.00    +0.024 A 
ATOM     33  C   UNL     1       1.220  -5.587   3.817  0.00  0.00    +0.007 A 
ATOM     34  C   UNL     1       2.382  -6.130   4.461  0.00  0.00    -0.029 A 
ATOM     35  C   UNL     1       2.395  -7.636   4.810  0.00  0.00    +0.045 C 
ENDROOT
BRANCH  10   9
ATOM      4  C   UNL     1       5.941  -6.601   8.649  0.00  0.00    +0.077 A 
ATOM      5  C   UNL     1       4.826  -6.338   9.512  0.00  0.00    +0.048 A 
ATOM      6  C   UNL     1       3.645  -5.843   8.915  0.00  0.00    +0.116 A 
ATOM      7  N   UNL     1       3.594  -5.631   7.554  0.00  0.00    -0.223 NA
ATOM      8  C   UNL     1       4.688  -5.892   6.750  0.00  0.00    +0.220 A 
ATOM      9  N   UNL     1       4.657  -5.693   5.378  0.00  0.00    -0.283 N 
ATOM     36  H   UNL     1       5.488  -5.891   4.821  0.00  0.00    +0.155 HD
ATOM     37  N   UNL     1       5.828  -6.364   7.297  0.00  0.00    -0.214 NA
BRANCH   4   3
ATOM      1  C   UNL     1       8.758  -8.110  10.904  0.00  0.00    +0.020 A 
ATOM      2  C   UNL     1       7.468  -7.609  10.490  0.00  0.00    +0.013 A 
ATOM      3  C   UNL     1       7.256  -7.129   9.130  0.00  0.00    +0.019 A 
ATOM     38  C   UNL     1       8.380  -7.171   8.206  0.00  0.00    +0.120 A 
ATOM     39  N   UNL     1       9.611  -7.658   8.633  0.00  0.00    -0.263 NA
ATOM     40  C   UNL     1       9.827  -8.121   9.940  0.00  0.00    +0.111 A 
ENDBRANCH   4   3
ENDBRANCH  10   9
BRANCH  12  13
ATOM     13  N   UNL     1       2.114  -1.927   3.353  0.00  0.00    -0.281 N 
ATOM     14  C   UNL     1       1.494  -0.901   4.047  0.00  0.00    +0.248 C 
ATOM     30  O   UNL     1       0.768  -1.063   5.017  0.00  0.00    -0.270 OA
ATOM     31  H   UNL     1       2.528  -1.675   2.455  0.00  0.00    +0.155 HD
BRANCH  14  15
ATOM     15  C   UNL     1       1.699   0.507   3.590  0.00  0.00    +0.037 A 
ATOM     16  C   UNL     1       1.518   1.637   4.505  0.00  0.00    +0.013 A 
ATOM     17  C   UNL     1       1.705   2.986   4.034  0.00  0.00    +0.005 A 
ATOM     18  C   UNL     1       2.077   3.213   2.640  0.00  0.00    -0.033 A 
ATOM     28  C   UNL     1       2.255   2.073   1.755  0.00  0.00    +0.005 A 
ATOM     29  C   UNL     1       2.072   0.749   2.213  0.00  0.00    +0.013 A 
BRANCH  18  19
ATOM     19  C   UNL     1       2.277   4.619   2.045  0.00  0.00    +0.119 C 
BRANCH  19  20
ATOM     20  N   UNL     1       1.799   5.779   2.856  0.00  0.00    -0.302 NA
ATOM     21  C   UNL     1       0.287   5.987   2.724  0.00  0.00    +0.066 C 
ATOM     22  C   UNL     1      -0.200   7.190   3.596  0.00  0.00    -0.064 C 
ATOM     23  N   UNL     1       0.559   8.453   3.187  0.00  0.00    +0.379 N 
ATOM     24  C   UNL     1       0.063   9.598   3.965  0.00  0.00    -0.096 C 
ATOM     25  H   UNL     1       0.334   8.651   2.113  0.00  0.00    -0.082 HD
ATOM     26  C   UNL     1       2.063   8.254   3.313  0.00  0.00    -0.064 C 
ATOM     27  C   UNL     1       2.532   7.038   2.466  0.00  0.00    +0.066 C 
ENDBRANCH  19  20
ENDBRANCH  18  19
ENDBRANCH  14  15
ENDBRANCH  12  13
TORSDOF 6
ENDMDL
MODEL 5
REMARK VINA RESULT:     -10.6      6.680     13.555
REMARK  Name = C:\Users\Docking\Desktop\test protocol\1iep_ligandH.pdb
REMARK  8 active torsions:
REMARK  status: ('A' for Active; 'I' for Inactive)
REMARK    1  A    between atoms: _5  and  _11
REMARK    2  A    between atoms: _19  and  _21
REMARK    3  A    between atoms: _22  and  _66
REMARK    4  A    between atoms: _27  and  _30
REMARK    5  A    between atoms: _32  and  _33
REMARK    6  A    between atoms: _38  and  _43
REMARK    7  A    between atoms: _43  and  _46
REMARK    8  A    between atoms: _53  and  _55
REMARK                            x       y       z     vdW  Elec       q    Type
REMARK                         _______ _______ _______ _____ _____    ______ ____
ROOT
ATOM     10  C   UNL     1       4.055  -5.489   6.729  0.00  0.00    +0.038 A 
ATOM     11  C   UNL     1       5.405  -5.905   6.852  0.00  0.00    +0.047 A 
ATOM     12  C   UNL     1       5.905  -6.481   8.091  0.00  0.00    +0.035 A 
ATOM     32  C   UNL     1       5.001  -6.620   9.184  0.00  0.00    +0.024 A 
ATOM     33  C   UNL     1       3.626  -6.201   9.077  0.00  0.00    +0.007 A 
ATOM     34  C   UNL     1       3.128  -5.631   7.858  0.00  0.00    -0.029 A 
ATOM     35  C   UNL     1       1.645  -5.193   7.802  0.00  0.00    +0.045 C 
ENDROOT
BRANCH  10   9
ATOM      4  C   UNL     1       1.776  -5.799   2.517  0.00  0.00    +0.077 A 
ATOM      5  C   UNL     1       1.429  -7.173   2.738  0.00  0.00    +0.048 A 
ATOM      6  C   UNL     1       1.862  -7.765   3.946  0.00  0.00    +0.116 A 
ATOM      7  N   UNL     1       2.587  -7.028   4.857  0.00  0.00    -0.223 NA
ATOM      8  C   UNL     1       2.906  -5.705   4.611  0.00  0.00    +0.220 A 
ATOM      9  N   UNL     1       3.628  -4.943   5.517  0.00  0.00    -0.283 N 
ATOM     36  H   UNL     1       3.850  -3.973   5.295  0.00  0.00    +0.155 HD
ATOM     37  N   UNL     1       2.506  -5.118   3.465  0.00  0.00    -0.214 NA
BRANCH   4   3
ATOM      1  C   UNL     1      -0.311  -3.924  -0.209  0.00  0.00    +0.020 A 
ATOM      2  C   UNL     1       0.010  -4.665   0.989  0.00  0.00    +0.013 A 
ATOM      3  C   UNL     1       1.388  -5.033   1.290  0.00  0.00    +0.019 A 
ATOM     38  C   UNL     1       2.425  -4.632   0.352  0.00  0.00    +0.120 A 
ATOM     39  N   UNL     1       2.085  -3.920  -0.794  0.00  0.00    -0.263 NA
ATOM     40  C   UNL     1       0.763  -3.562  -1.096  0.00  0.00    +0.111 A 
ENDBRANCH   4   3
ENDBRANCH  10   9
BRANCH  12  13
ATOM     13  N   UNL     1       7.268  -6.914   8.277  0.00  0.00    -0.281 N 
ATOM     14  C   UNL     1       7.920  -7.186   9.469  0.00  0.00    +0.248 C 
ATOM     30  O   UNL     1       7.491  -6.890  10.574  0.00  0.00    -0.270 OA
ATOM     31  H   UNL     1       7.818  -7.036   7.427  0.00  0.00    +0.155 HD
BRANCH  14  15
ATOM     15  C   UNL     1       9.246  -7.872   9.426  0.00  0.00    +0.037 A 
ATOM     16  C   UNL     1       9.873  -8.392  10.644  0.00  0.00    +0.013 A 
ATOM     17  C   UNL     1      11.161  -9.035  10.577  0.00  0.00    +0.005 A 
ATOM     18  C   UNL     1      11.831  -9.163   9.285  0.00  0.00    -0.033 A 
ATOM     28  C   UNL     1      11.185  -8.643   8.092  0.00  0.00    +0.005 A 
ATOM     29  C   UNL     1       9.923  -8.011   8.154  0.00  0.00    +0.013 A 
BRANCH  18  19
ATOM     19  C   UNL     1      13.217  -9.815   9.123  0.00  0.00    +0.119 C 
BRANCH  19  20
ATOM     20  N   UNL     1      13.993 -10.091  10.369  0.00  0.00    -0.302 NA
ATOM     21  C   UNL     1      14.358  -8.805  11.115  0.00  0.00    +0.066 C 
ATOM     22  C   UNL     1      15.150  -9.113  12.427  0.00  0.00    -0.064 C 
ATOM     23  N   UNL     1      16.407  -9.915  12.085  0.00  0.00    +0.379 N 
ATOM     24  C   UNL     1      17.184 -10.157  13.309  0.00  0.00    -0.096 C 
ATOM     25  H   UNL     1      17.032  -9.291  11.405  0.00  0.00    -0.082 HD
ATOM     26  C   UNL     1      16.053 -11.195  11.340  0.00  0.00    -0.064 C 
ATOM     27  C   UNL     1      15.241 -10.879  10.053  0.00  0.00    +0.066 C 
ENDBRANCH  19  20
ENDBRANCH  18  19
ENDBRANCH  14  15
ENDBRANCH  12  13
TORSDOF 6
ENDMDL
