MODEL 1
REMARK VINA RESULT:      -8.9      0.000      0.000
REMARK  Name = C:\Users\Docking\Desktop\test protocol\1iep_ligandH.pdb
REMARK  8 active torsions:
REMARK  status: ('A' for Active; 'I' for Inactive)
REMARK    1  A    between atoms: _5  and  _11
REMARK    2  A    between atoms: _19  and  _21
REMARK    3  A    between atoms: _22  and  _66
REMARK    4  A    between atoms: _27  and  _30
REMARK    5  A    between atoms: _32  and  _33
REMARK    6  A    between atoms: _38  and  _43
REMARK    7  A    between atoms: _43  and  _46
REMARK    8  A    between atoms: _53  and  _55
REMARK                            x       y       z     vdW  Elec       q    Type
REMARK                         _______ _______ _______ _____ _____    ______ ____
ROOT
ATOM     10  C   UNL     1      11.300 -47.428  37.265  0.00  0.00    +0.038 A 
ATOM     11  C   UNL     1      12.467 -46.622  37.217  0.00  0.00    +0.047 A 
ATOM     12  C   UNL     1      12.915 -45.876  38.382  0.00  0.00    +0.035 A 
ATOM     32  C   UNL     1      12.151 -45.975  39.582  0.00  0.00    +0.024 A 
ATOM     33  C   UNL     1      10.963 -46.788  39.649  0.00  0.00    +0.007 A 
ATOM     34  C   UNL     1      10.515 -47.525  38.501  0.00  0.00    -0.029 A 
ATOM     35  C   UNL     1       9.229 -48.375  38.628  0.00  0.00    +0.045 C 
ENDROOT
BRANCH  10   9
ATOM      4  C   UNL     1      11.122 -51.407  34.587  0.00  0.00    +0.077 A 
ATOM      5  C   UNL     1      11.882 -52.157  35.545  0.00  0.00    +0.048 A 
ATOM      6  C   UNL     1      12.306 -51.480  36.711  0.00  0.00    +0.116 A 
ATOM      7  N   UNL     1      11.987 -50.151  36.894  0.00  0.00    -0.223 NA
ATOM      8  C   UNL     1      11.254 -49.457  35.949  0.00  0.00    +0.220 A 
ATOM      9  N   UNL     1      10.916 -48.123  36.116  0.00  0.00    -0.283 N 
ATOM     36  H   UNL     1      10.381 -47.644  35.393  0.00  0.00    +0.155 HD
ATOM     37  N   UNL     1      10.839 -50.081  34.827  0.00  0.00    -0.214 NA
BRANCH   4   3
ATOM      1  C   UNL     1       9.771 -53.900  31.892  0.00  0.00    +0.020 A 
ATOM      2  C   UNL     1      10.272 -53.394  33.150  0.00  0.00    +0.013 A 
ATOM      3  C   UNL     1      10.601 -51.983  33.307  0.00  0.00    +0.019 A 
ATOM     38  C   UNL     1      10.408 -51.103  32.164  0.00  0.00    +0.120 A 
ATOM     39  N   UNL     1       9.925 -51.618  30.966  0.00  0.00    -0.263 NA
ATOM     40  C   UNL     1       9.608 -52.975  30.802  0.00  0.00    +0.111 A 
ENDBRANCH   4   3
ENDBRANCH  10   9
BRANCH  12  13
ATOM     13  N   UNL     1      14.086 -45.036  38.391  0.00  0.00    -0.281 N 
ATOM     14  C   UNL     1      15.413 -45.425  38.468  0.00  0.00    +0.248 C 
ATOM     30  O   UNL     1      15.787 -46.552  38.759  0.00  0.00    -0.270 OA
ATOM     31  H   UNL     1      13.917 -44.031  38.332  0.00  0.00    +0.155 HD
BRANCH  14  15
ATOM     15  C   UNL     1      16.480 -44.414  38.198  0.00  0.00    +0.037 A 
ATOM     16  C   UNL     1      16.864 -43.426  39.209  0.00  0.00    +0.013 A 
ATOM     17  C   UNL     1      17.884 -42.450  38.916  0.00  0.00    +0.005 A 
ATOM     18  C   UNL     1      18.529 -42.460  37.605  0.00  0.00    -0.033 A 
ATOM     28  C   UNL     1      18.132 -43.454  36.623  0.00  0.00    +0.005 A 
ATOM     29  C   UNL     1      17.132 -44.411  36.906  0.00  0.00    +0.013 A 
BRANCH  18  19
ATOM     19  C   UNL     1      19.612 -41.443  37.199  0.00  0.00    +0.119 C 
BRANCH  19  20
ATOM     20  N   UNL     1      20.663 -41.123  38.210  0.00  0.00    -0.302 NA
ATOM     21  C   UNL     1      20.628 -39.650  38.629  0.00  0.00    +0.066 C 
ATOM     22  C   UNL     1      21.720 -39.338  39.704  0.00  0.00    -0.064 C 
ATOM     23  N   UNL     1      23.096 -39.711  39.151  0.00  0.00    +0.379 N 
ATOM     24  C   UNL     1      24.131 -39.365  40.137  0.00  0.00    -0.096 C 
ATOM     25  H   UNL     1      23.275 -39.092  38.242  0.00  0.00    -0.082 HD
ATOM     26  C   UNL     1      23.140 -41.173  38.730  0.00  0.00    -0.064 C 
ATOM     27  C   UNL     1      22.032 -41.479  37.683  0.00  0.00    +0.066 C 
ENDBRANCH  19  20
ENDBRANCH  18  19
ENDBRANCH  14  15
ENDBRANCH  12  13
TORSDOF 6
ENDMDL
MODEL 2
REMARK VINA RESULT:      -8.7     37.180     40.676
REMARK  Name = C:\Users\Docking\Desktop\test protocol\1iep_ligandH.pdb
REMARK  8 active torsions:
REMARK  status: ('A' for Active; 'I' for Inactive)
REMARK    1  A    between atoms: _5  and  _11
REMARK    2  A    between atoms: _19  and  _21
REMARK    3  A    between atoms: _22  and  _66
REMARK    4  A    between atoms: _27  and  _30
REMARK    5  A    between atoms: _32  and  _33
REMARK    6  A    between atoms: _38  and  _43
REMARK    7  A    between atoms: _43  and  _46
REMARK    8  A    between atoms: _53  and  _55
REMARK                            x       y       z     vdW  Elec       q    Type
REMARK                         _______ _______ _______ _____ _____    ______ ____
ROOT
ATOM     10  C   UNL     1      48.353 -45.431  20.073  0.00  0.00    +0.038 A 
ATOM     11  C   UNL     1      47.973 -45.184  18.729  0.00  0.00    +0.047 A 
ATOM     12  C   UNL     1      47.096 -44.074  18.388  0.00  0.00    +0.035 A 
ATOM     32  C   UNL     1      46.627 -43.235  19.440  0.00  0.00    +0.024 A 
ATOM     33  C   UNL     1      47.003 -43.473  20.811  0.00  0.00    +0.007 A 
ATOM     34  C   UNL     1      47.866 -44.567  21.155  0.00  0.00    -0.029 A 
ATOM     35  C   UNL     1      48.231 -44.779  22.642  0.00  0.00    +0.045 C 
ENDROOT
BRANCH  10   9
ATOM      4  C   UNL     1      52.715 -47.378  20.548  0.00  0.00    +0.077 A 
ATOM      5  C   UNL     1      53.366 -46.148  20.202  0.00  0.00    +0.048 A 
ATOM      6  C   UNL     1      52.543 -45.040  19.901  0.00  0.00    +0.116 A 
ATOM      7  N   UNL     1      51.171 -45.164  19.947  0.00  0.00    -0.223 NA
ATOM      8  C   UNL     1      50.575 -46.365  20.283  0.00  0.00    +0.220 A 
ATOM      9  N   UNL     1      49.197 -46.511  20.344  0.00  0.00    -0.283 N 
ATOM     36  H   UNL     1      48.796 -47.415  20.589  0.00  0.00    +0.155 HD
ATOM     37  N   UNL     1      51.339 -47.439  20.574  0.00  0.00    -0.214 NA
BRANCH   4   3
ATOM      1  C   UNL     1      53.527 -51.086  21.492  0.00  0.00    +0.020 A 
ATOM      2  C   UNL     1      52.771 -49.900  21.162  0.00  0.00    +0.013 A 
ATOM      3  C   UNL     1      53.448 -48.637  20.895  0.00  0.00    +0.019 A 
ATOM     38  C   UNL     1      54.901 -48.608  20.970  0.00  0.00    +0.120 A 
ATOM     39  N   UNL     1      55.601 -49.766  21.292  0.00  0.00    -0.263 NA
ATOM     40  C   UNL     1      54.961 -50.987  21.553  0.00  0.00    +0.111 A 
ENDBRANCH   4   3
ENDBRANCH  10   9
BRANCH  12  13
ATOM     13  N   UNL     1      46.669 -43.779  17.042  0.00  0.00    -0.281 N 
ATOM     14  C   UNL     1      47.454 -43.656  15.908  0.00  0.00    +0.248 C 
ATOM     30  O   UNL     1      48.673 -43.571  15.916  0.00  0.00    -0.270 OA
ATOM     31  H   UNL     1      45.667 -43.644  16.911  0.00  0.00    +0.155 HD
BRANCH  14  15
ATOM     15  C   UNL     1      46.787 -43.606  14.571  0.00  0.00    +0.037 A 
ATOM     16  C   UNL     1      45.348 -43.842  14.430  0.00  0.00    +0.013 A 
ATOM     17  C   UNL     1      44.734 -43.805  13.126  0.00  0.00    +0.005 A 
ATOM     18  C   UNL     1      45.559 -43.529  11.953  0.00  0.00    -0.033 A 
ATOM     28  C   UNL     1      46.983 -43.294  12.122  0.00  0.00    +0.005 A 
ATOM     29  C   UNL     1      47.589 -43.330  13.398  0.00  0.00    +0.013 A 
BRANCH  18  19
ATOM     19  C   UNL     1      44.991 -43.492  10.522  0.00  0.00    +0.119 C 
BRANCH  19  20
ATOM     20  N   UNL     1      44.850 -42.152   9.877  0.00  0.00    -0.302 NA
ATOM     21  C   UNL     1      44.551 -41.052  10.899  0.00  0.00    +0.066 C 
ATOM     22  C   UNL     1      44.429 -39.653  10.211  0.00  0.00    -0.064 C 
ATOM     23  N   UNL     1      43.338 -39.709   9.140  0.00  0.00    +0.379 N 
ATOM     24  C   UNL     1      43.181 -38.380   8.531  0.00  0.00    -0.096 C 
ATOM     25  H   UNL     1      42.379 -39.964   9.648  0.00  0.00    -0.082 HD
ATOM     26  C   UNL     1      43.626 -40.802   8.121  0.00  0.00    -0.064 C 
ATOM     27  C   UNL     1      43.775 -42.183   8.819  0.00  0.00    +0.066 C 
ENDBRANCH  19  20
ENDBRANCH  18  19
ENDBRANCH  14  15
ENDBRANCH  12  13
TORSDOF 6
ENDMDL
MODEL 3
REMARK VINA RESULT:      -8.5      2.723     13.318
REMARK  Name = C:\Users\Docking\Desktop\test protocol\1iep_ligandH.pdb
REMARK  8 active torsions:
REMARK  status: ('A' for Active; 'I' for Inactive)
REMARK    1  A    between atoms: _5  and  _11
REMARK    2  A    between atoms: _19  and  _21
REMARK    3  A    between atoms: _22  and  _66
REMARK    4  A    between atoms: _27  and  _30
REMARK    5  A    between atoms: _32  and  _33
REMARK    6  A    between atoms: _38  and  _43
REMARK    7  A    between atoms: _43  and  _46
REMARK    8  A    between atoms: _53  and  _55
REMARK                            x       y       z     vdW  Elec       q    Type
REMARK                         _______ _______ _______ _____ _____    ______ ____
ROOT
ATOM     10  C   UNL     1      16.488 -42.809  40.542  0.00  0.00    +0.038 A 
ATOM     11  C   UNL     1      15.581 -43.481  39.683  0.00  0.00    +0.047 A 
ATOM     12  C   UNL     1      15.378 -44.918  39.780  0.00  0.00    +0.035 A 
ATOM     32  C   UNL     1      16.113 -45.639  40.766  0.00  0.00    +0.024 A 
ATOM     33  C   UNL     1      17.039 -44.972  41.646  0.00  0.00    +0.007 A 
ATOM     34  C   UNL     1      17.246 -43.555  41.553  0.00  0.00    -0.029 A 
ATOM     35  C   UNL     1      18.256 -42.893  42.519  0.00  0.00    +0.045 C 
ENDROOT
BRANCH  10   9
ATOM      4  C   UNL     1      18.832 -38.957  38.897  0.00  0.00    +0.077 A 
ATOM      5  C   UNL     1      19.847 -39.764  38.281  0.00  0.00    +0.048 A 
ATOM      6  C   UNL     1      19.732 -41.165  38.418  0.00  0.00    +0.116 A 
ATOM      7  N   UNL     1      18.678 -41.709  39.119  0.00  0.00    -0.223 NA
ATOM      8  C   UNL     1      17.717 -40.902  39.701  0.00  0.00    +0.220 A 
ATOM      9  N   UNL     1      16.644 -41.428  40.404  0.00  0.00    -0.283 N 
ATOM     36  H   UNL     1      15.961 -40.799  40.826  0.00  0.00    +0.155 HD
ATOM     37  N   UNL     1      17.805 -39.561  39.587  0.00  0.00    -0.214 NA
BRANCH   4   3
ATOM      1  C   UNL     1      17.885 -35.209  39.496  0.00  0.00    +0.020 A 
ATOM      2  C   UNL     1      17.861 -36.651  39.587  0.00  0.00    +0.013 A 
ATOM      3  C   UNL     1      18.813 -37.461  38.838  0.00  0.00    +0.019 A 
ATOM     38  C   UNL     1      19.786 -36.776  38.001  0.00  0.00    +0.120 A 
ATOM     39  N   UNL     1      19.784 -35.386  37.931  0.00  0.00    -0.263 NA
ATOM     40  C   UNL     1      18.871 -34.596  38.646  0.00  0.00    +0.111 A 
ENDBRANCH   4   3
ENDBRANCH  10   9
BRANCH  12  13
ATOM     13  N   UNL     1      14.477 -45.657  38.930  0.00  0.00    -0.281 N 
ATOM     14  C   UNL     1      14.797 -46.493  37.873  0.00  0.00    +0.248 C 
ATOM     30  O   UNL     1      15.903 -46.566  37.360  0.00  0.00    -0.270 OA
ATOM     31  H   UNL     1      13.483 -45.549  39.133  0.00  0.00    +0.155 HD
BRANCH  14  15
ATOM     15  C   UNL     1      13.729 -47.363  37.293  0.00  0.00    +0.037 A 
ATOM     16  C   UNL     1      12.344 -46.898  37.185  0.00  0.00    +0.013 A 
ATOM     17  C   UNL     1      11.331 -47.764  36.637  0.00  0.00    +0.005 A 
ATOM     18  C   UNL     1      11.700 -49.106  36.191  0.00  0.00    -0.033 A 
ATOM     28  C   UNL     1      13.082 -49.540  36.306  0.00  0.00    +0.005 A 
ATOM     29  C   UNL     1      14.078 -48.694  36.843  0.00  0.00    +0.013 A 
BRANCH  18  19
ATOM     19  C   UNL     1      10.680 -50.105  35.614  0.00  0.00    +0.119 C 
BRANCH  19  20
ATOM     20  N   UNL     1      10.084 -49.782  34.283  0.00  0.00    -0.302 NA
ATOM     21  C   UNL     1       8.759 -49.026  34.415  0.00  0.00    +0.066 C 
ATOM     22  C   UNL     1       8.161 -48.676  33.013  0.00  0.00    -0.064 C 
ATOM     23  N   UNL     1       7.973 -49.962  32.207  0.00  0.00    +0.379 N 
ATOM     24  C   UNL     1       7.357 -49.642  30.910  0.00  0.00    -0.096 C 
ATOM     25  H   UNL     1       7.262 -50.612  32.768  0.00  0.00    -0.082 HD
ATOM     26  C   UNL     1       9.286 -50.721  32.073  0.00  0.00    -0.064 C 
ATOM     27  C   UNL     1       9.886 -51.038  33.471  0.00  0.00    +0.066 C 
ENDBRANCH  19  20
ENDBRANCH  18  19
ENDBRANCH  14  15
ENDBRANCH  12  13
TORSDOF 6
ENDMDL
MODEL 4
REMARK VINA RESULT:      -8.4      4.484     15.445
REMARK  Name = C:\Users\Docking\Desktop\test protocol\1iep_ligandH.pdb
REMARK  8 active torsions:
REMARK  status: ('A' for Active; 'I' for Inactive)
REMARK    1  A    between atoms: _5  and  _11
REMARK    2  A    between atoms: _19  and  _21
REMARK    3  A    between atoms: _22  and  _66
REMARK    4  A    between atoms: _27  and  _30
REMARK    5  A    between atoms: _32  and  _33
REMARK    6  A    between atoms: _38  and  _43
REMARK    7  A    between atoms: _43  and  _46
REMARK    8  A    between atoms: _53  and  _55
REMARK                            x       y       z     vdW  Elec       q    Type
REMARK                         _______ _______ _______ _____ _____    ______ ____
ROOT
ATOM     10  C   UNL     1      11.080 -52.300  36.046  0.00  0.00    +0.038 A 
ATOM     11  C   UNL     1      10.653 -52.477  34.705  0.00  0.00    +0.047 A 
ATOM     12  C   UNL     1       9.525 -53.337  34.382  0.00  0.00    +0.035 A 
ATOM     32  C   UNL     1       8.852 -53.999  35.450  0.00  0.00    +0.024 A 
ATOM     33  C   UNL     1       9.273 -53.830  36.819  0.00  0.00    +0.007 A 
ATOM     34  C   UNL     1      10.386 -52.985  37.144  0.00  0.00    -0.029 A 
ATOM     35  C   UNL     1      10.798 -52.847  38.628  0.00  0.00    +0.045 C 
ENDROOT
BRANCH  10   9
ATOM      4  C   UNL     1      12.994 -47.974  36.862  0.00  0.00    +0.077 A 
ATOM      5  C   UNL     1      11.720 -47.324  36.747  0.00  0.00    +0.048 A 
ATOM      6  C   UNL     1      10.599 -48.137  36.470  0.00  0.00    +0.116 A 
ATOM      7  N   UNL     1      10.751 -49.499  36.322  0.00  0.00    -0.223 NA
ATOM      8  C   UNL     1      11.994 -50.094  36.437  0.00  0.00    +0.220 A 
ATOM      9  N   UNL     1      12.169 -51.463  36.300  0.00  0.00    -0.283 N 
ATOM     36  H   UNL     1      13.103 -51.862  36.385  0.00  0.00    +0.155 HD
ATOM     37  N   UNL     1      13.080 -49.339  36.700  0.00  0.00    -0.214 NA
BRANCH   4   3
ATOM      1  C   UNL     1      16.745 -46.866  36.842  0.00  0.00    +0.020 A 
ATOM      2  C   UNL     1      15.540 -47.596  36.524  0.00  0.00    +0.013 A 
ATOM      3  C   UNL     1      14.272 -47.251  37.155  0.00  0.00    +0.019 A 
ATOM     38  C   UNL     1      14.257 -46.152  38.109  0.00  0.00    +0.120 A 
ATOM     39  N   UNL     1      15.434 -45.468  38.396  0.00  0.00    -0.263 NA
ATOM     40  C   UNL     1      16.660 -45.792  37.797  0.00  0.00    +0.111 A 
ENDBRANCH   4   3
ENDBRANCH  10   9
BRANCH  12  13
ATOM     13  N   UNL     1       9.052 -53.562  33.039  0.00  0.00    -0.281 N 
ATOM     14  C   UNL     1       9.674 -53.222  31.849  0.00  0.00    +0.248 C 
ATOM     30  O   UNL     1      10.639 -52.477  31.761  0.00  0.00    -0.270 OA
ATOM     31  H   UNL     1       8.149 -54.029  32.955  0.00  0.00    +0.155 HD
BRANCH  14  15
ATOM     15  C   UNL     1       9.138 -53.778  30.569  0.00  0.00    +0.037 A 
ATOM     16  C   UNL     1       7.977 -53.179  29.907  0.00  0.00    +0.013 A 
ATOM     17  C   UNL     1       7.470 -53.746  28.682  0.00  0.00    +0.005 A 
ATOM     18  C   UNL     1       8.126 -54.920  28.111  0.00  0.00    -0.033 A 
ATOM     28  C   UNL     1       9.280 -55.491  28.786  0.00  0.00    +0.005 A 
ATOM     29  C   UNL     1       9.779 -54.939  29.987  0.00  0.00    +0.013 A 
BRANCH  18  19
ATOM     19  C   UNL     1       7.641 -55.604  26.820  0.00  0.00    +0.119 C 
BRANCH  19  20
ATOM     20  N   UNL     1       6.384 -56.406  26.902  0.00  0.00    -0.302 NA
ATOM     21  C   UNL     1       6.593 -57.727  27.649  0.00  0.00    +0.066 C 
ATOM     22  C   UNL     1       5.264 -58.543  27.745  0.00  0.00    -0.064 C 
ATOM     23  N   UNL     1       4.722 -58.798  26.338  0.00  0.00    +0.379 N 
ATOM     24  C   UNL     1       3.502 -59.615  26.422  0.00  0.00    -0.096 C 
ATOM     25  H   UNL     1       5.487 -59.388  25.782  0.00  0.00    -0.082 HD
ATOM     26  C   UNL     1       4.513 -57.490  25.587  0.00  0.00    -0.064 C 
ATOM     27  C   UNL     1       5.833 -56.673  25.522  0.00  0.00    +0.066 C 
ENDBRANCH  19  20
ENDBRANCH  18  19
ENDBRANCH  14  15
ENDBRANCH  12  13
TORSDOF 6
ENDMDL
MODEL 5
REMARK VINA RESULT:      -8.2      2.731     13.494
REMARK  Name = C:\Users\Docking\Desktop\test protocol\1iep_ligandH.pdb
REMARK  8 active torsions:
REMARK  status: ('A' for Active; 'I' for Inactive)
REMARK    1  A    between atoms: _5  and  _11
REMARK    2  A    between atoms: _19  and  _21
REMARK    3  A    between atoms: _22  and  _66
REMARK    4  A    between atoms: _27  and  _30
REMARK    5  A    between atoms: _32  and  _33
REMARK    6  A    between atoms: _38  and  _43
REMARK    7  A    between atoms: _43  and  _46
REMARK    8  A    between atoms: _53  and  _55
REMARK                            x       y       z     vdW  Elec       q    Type
REMARK                         _______ _______ _______ _____ _____    ______ ____
ROOT
ATOM     10  C   UNL     1      16.569 -42.756  40.598  0.00  0.00    +0.038 A 
ATOM     11  C   UNL     1      15.689 -43.428  39.712  0.00  0.00    +0.047 A 
ATOM     12  C   UNL     1      15.480 -44.865  39.805  0.00  0.00    +0.035 A 
ATOM     32  C   UNL     1      16.183 -45.586  40.814  0.00  0.00    +0.024 A 
ATOM     33  C   UNL     1      17.082 -44.918  41.722  0.00  0.00    +0.007 A 
ATOM     34  C   UNL     1      17.294 -43.502  41.634  0.00  0.00    -0.029 A 
ATOM     35  C   UNL     1      18.275 -42.840  42.629  0.00  0.00    +0.045 C 
ENDROOT
BRANCH  10   9
ATOM      4  C   UNL     1      18.887 -38.912  38.898  0.00  0.00    +0.077 A 
ATOM      5  C   UNL     1      19.874 -39.723  38.245  0.00  0.00    +0.048 A 
ATOM      6  C   UNL     1      19.753 -41.124  38.376  0.00  0.00    +0.116 A 
ATOM      7  N   UNL     1      18.718 -41.664  39.109  0.00  0.00    -0.223 NA
ATOM      8  C   UNL     1      17.784 -40.854  39.728  0.00  0.00    +0.220 A 
ATOM      9  N   UNL     1      16.731 -41.375  40.463  0.00  0.00    -0.283 N 
ATOM     36  H   UNL     1      16.067 -40.744  40.911  0.00  0.00    +0.155 HD
ATOM     37  N   UNL     1      17.879 -39.512  39.619  0.00  0.00    -0.214 NA
BRANCH   4   3
ATOM      1  C   UNL     1      17.973 -35.162  39.532  0.00  0.00    +0.020 A 
ATOM      2  C   UNL     1      17.939 -36.604  39.614  0.00  0.00    +0.013 A 
ATOM      3  C   UNL     1      18.878 -37.416  38.849  0.00  0.00    +0.019 A 
ATOM     38  C   UNL     1      19.845 -36.732  38.005  0.00  0.00    +0.120 A 
ATOM     39  N   UNL     1      19.853 -35.342  37.944  0.00  0.00    -0.263 NA
ATOM     40  C   UNL     1      18.954 -34.550  38.674  0.00  0.00    +0.111 A 
ENDBRANCH   4   3
ENDBRANCH  10   9
BRANCH  12  13
ATOM     13  N   UNL     1      14.605 -45.603  38.928  0.00  0.00    -0.281 N 
ATOM     14  C   UNL     1      14.947 -46.586  38.014  0.00  0.00    +0.248 C 
ATOM     30  O   UNL     1      16.090 -46.830  37.657  0.00  0.00    -0.270 OA
ATOM     31  H   UNL     1      13.613 -45.374  38.989  0.00  0.00    +0.155 HD
BRANCH  14  15
ATOM     15  C   UNL     1      13.862 -47.407  37.396  0.00  0.00    +0.037 A 
ATOM     16  C   UNL     1      14.130 -48.744  36.862  0.00  0.00    +0.013 A 
ATOM     17  C   UNL     1      13.068 -49.508  36.256  0.00  0.00    +0.005 A 
ATOM     18  C   UNL     1      11.727 -48.935  36.181  0.00  0.00    -0.033 A 
ATOM     28  C   UNL     1      11.487 -47.607  36.723  0.00  0.00    +0.005 A 
ATOM     29  C   UNL     1      12.525 -46.856  37.317  0.00  0.00    +0.013 A 
BRANCH  18  19
ATOM     19  C   UNL     1      10.538 -49.669  35.532  0.00  0.00    +0.119 C 
BRANCH  19  20
ATOM     20  N   UNL     1      10.492 -51.155  35.676  0.00  0.00    -0.302 NA
ATOM     21  C   UNL     1      10.719 -51.869  34.341  0.00  0.00    +0.066 C 
ATOM     22  C   UNL     1      10.689 -53.422  34.514  0.00  0.00    -0.064 C 
ATOM     23  N   UNL     1       9.353 -53.839  35.130  0.00  0.00    +0.379 N 
ATOM     24  C   UNL     1       9.298 -55.304  35.240  0.00  0.00    -0.096 C 
ATOM     25  H   UNL     1       8.545 -53.522  34.430  0.00  0.00    -0.082 HD
ATOM     26  C   UNL     1       9.117 -53.131  36.457  0.00  0.00    -0.064 C 
ATOM     27  C   UNL     1       9.178 -51.588  36.279  0.00  0.00    +0.066 C 
ENDBRANCH  19  20
ENDBRANCH  18  19
ENDBRANCH  14  15
ENDBRANCH  12  13
TORSDOF 6
ENDMDL
