MODEL 1
REMARK VINA RESULT:     -10.1      0.000      0.000
REMARK  Name = C:\Users\Docking\Desktop\test protocol\1iep_ligandH.pdb
REMARK  8 active torsions:
REMARK  status: ('A' for Active; 'I' for Inactive)
REMARK    1  A    between atoms: _5  and  _11
REMARK    2  A    between atoms: _19  and  _21
REMARK    3  A    between atoms: _22  and  _66
REMARK    4  A    between atoms: _27  and  _30
REMARK    5  A    between atoms: _32  and  _33
REMARK    6  A    between atoms: _38  and  _43
REMARK    7  A    between atoms: _43  and  _46
REMARK    8  A    between atoms: _53  and  _55
REMARK                            x       y       z     vdW  Elec       q    Type
REMARK                         _______ _______ _______ _____ _____    ______ ____
ROOT
ATOM     10  C   UNL     1     -51.709 -46.445  11.845  0.00  0.00    +0.038 A 
ATOM     11  C   UNL     1     -50.705 -45.818  11.063  0.00  0.00    +0.047 A 
ATOM     12  C   UNL     1     -49.560 -45.172  11.686  0.00  0.00    +0.035 A 
ATOM     32  C   UNL     1     -49.468 -45.185  13.108  0.00  0.00    +0.024 A 
ATOM     33  C   UNL     1     -50.480 -45.816  13.918  0.00  0.00    +0.007 A 
ATOM     34  C   UNL     1     -51.613 -46.453  13.309  0.00  0.00    -0.029 A 
ATOM     35  C   UNL     1     -52.671 -47.109  14.227  0.00  0.00    +0.045 C 
ENDROOT
BRANCH  10   9
ATOM      4  C   UNL     1     -53.833 -50.233   9.801  0.00  0.00    +0.077 A 
ATOM      5  C   UNL     1     -52.689 -51.069  10.023  0.00  0.00    +0.048 A 
ATOM      6  C   UNL     1     -51.571 -50.484  10.660  0.00  0.00    +0.116 A 
ATOM      7  N   UNL     1     -51.607 -49.160  11.043  0.00  0.00    -0.223 NA
ATOM      8  C   UNL     1     -52.726 -48.381  10.811  0.00  0.00    +0.220 A 
ATOM      9  N   UNL     1     -52.786 -47.050  11.194  0.00  0.00    -0.283 N 
ATOM     36  H   UNL     1     -53.627 -46.507  10.999  0.00  0.00    +0.155 HD
ATOM     37  N   UNL     1     -53.805 -48.916  10.203  0.00  0.00    -0.214 NA
BRANCH   4   3
ATOM      1  C   UNL     1     -56.847 -52.456   8.671  0.00  0.00    +0.020 A 
ATOM      2  C   UNL     1     -55.627 -52.048   9.330  0.00  0.00    +0.013 A 
ATOM      3  C   UNL     1     -55.091 -50.706   9.142  0.00  0.00    +0.019 A 
ATOM     38  C   UNL     1     -55.819 -49.793   8.274  0.00  0.00    +0.120 A 
ATOM     39  N   UNL     1     -56.991 -50.213   7.652  0.00  0.00    -0.263 NA
ATOM     40  C   UNL     1     -57.515 -51.503   7.824  0.00  0.00    +0.111 A 
ENDBRANCH   4   3
ENDBRANCH  10   9
BRANCH  12  13
ATOM     13  N   UNL     1     -48.514 -44.513  10.944  0.00  0.00    -0.281 N 
ATOM     14  C   UNL     1     -47.834 -44.981   9.832  0.00  0.00    +0.248 C 
ATOM     30  O   UNL     1     -47.875 -46.135   9.431  0.00  0.00    -0.270 OA
ATOM     31  H   UNL     1     -48.241 -43.589  11.280  0.00  0.00    +0.155 HD
BRANCH  14  15
ATOM     15  C   UNL     1     -46.972 -44.034   9.060  0.00  0.00    +0.037 A 
ATOM     16  C   UNL     1     -46.055 -43.116   9.740  0.00  0.00    +0.013 A 
ATOM     17  C   UNL     1     -45.248 -42.201   8.973  0.00  0.00    +0.005 A 
ATOM     18  C   UNL     1     -45.353 -42.201   7.516  0.00  0.00    -0.033 A 
ATOM     28  C   UNL     1     -46.268 -43.126   6.867  0.00  0.00    +0.005 A 
ATOM     29  C   UNL     1     -47.062 -44.023   7.616  0.00  0.00    +0.013 A 
BRANCH  18  19
ATOM     19  C   UNL     1     -44.546 -41.244   6.619  0.00  0.00    +0.119 C 
BRANCH  19  20
ATOM     20  N   UNL     1     -43.074 -41.477   6.521  0.00  0.00    -0.302 NA
ATOM     21  C   UNL     1     -42.289 -40.617   7.514  0.00  0.00    +0.066 C 
ATOM     22  C   UNL     1     -40.753 -40.890   7.414  0.00  0.00    -0.064 C 
ATOM     23  N   UNL     1     -40.283 -40.629   5.982  0.00  0.00    +0.379 N 
ATOM     24  C   UNL     1     -38.829 -40.829   5.898  0.00  0.00    -0.096 C 
ATOM     25  H   UNL     1     -40.492 -39.559   5.748  0.00  0.00    -0.082 HD
ATOM     26  C   UNL     1     -41.061 -41.478   4.987  0.00  0.00    -0.064 C 
ATOM     27  C   UNL     1     -42.588 -41.221   5.115  0.00  0.00    +0.066 C 
ENDBRANCH  19  20
ENDBRANCH  18  19
ENDBRANCH  14  15
ENDBRANCH  12  13
TORSDOF 6
ENDMDL
MODEL 2
REMARK VINA RESULT:      -9.7      2.363      2.894
REMARK  Name = C:\Users\Docking\Desktop\test protocol\1iep_ligandH.pdb
REMARK  8 active torsions:
REMARK  status: ('A' for Active; 'I' for Inactive)
REMARK    1  A    between atoms: _5  and  _11
REMARK    2  A    between atoms: _19  and  _21
REMARK    3  A    between atoms: _22  and  _66
REMARK    4  A    between atoms: _27  and  _30
REMARK    5  A    between atoms: _32  and  _33
REMARK    6  A    between atoms: _38  and  _43
REMARK    7  A    between atoms: _43  and  _46
REMARK    8  A    between atoms: _53  and  _55
REMARK                            x       y       z     vdW  Elec       q    Type
REMARK                         _______ _______ _______ _____ _____    ______ ____
ROOT
ATOM     10  C   UNL     1     -51.652 -47.150  10.193  0.00  0.00    +0.038 A 
ATOM     11  C   UNL     1     -50.390 -46.570   9.909  0.00  0.00    +0.047 A 
ATOM     12  C   UNL     1     -50.112 -45.178  10.229  0.00  0.00    +0.035 A 
ATOM     32  C   UNL     1     -51.143 -44.407  10.840  0.00  0.00    +0.024 A 
ATOM     33  C   UNL     1     -52.433 -44.980  11.134  0.00  0.00    +0.007 A 
ATOM     34  C   UNL     1     -52.713 -46.352  10.819  0.00  0.00    -0.029 A 
ATOM     35  C   UNL     1     -54.116 -46.912  11.151  0.00  0.00    +0.045 C 
ENDROOT
BRANCH  10   9
ATOM      4  C   UNL     1     -51.451 -51.838  11.204  0.00  0.00    +0.077 A 
ATOM      5  C   UNL     1     -50.847 -51.596  12.483  0.00  0.00    +0.048 A 
ATOM      6  C   UNL     1     -50.598 -50.252  12.840  0.00  0.00    +0.116 A 
ATOM      7  N   UNL     1     -50.933 -49.233  11.974  0.00  0.00    -0.223 NA
ATOM      8  C   UNL     1     -51.513 -49.501  10.748  0.00  0.00    +0.220 A 
ATOM      9  N   UNL     1     -51.865 -48.491   9.865  0.00  0.00    -0.283 N 
ATOM     36  H   UNL     1     -52.283 -48.730   8.967  0.00  0.00    +0.155 HD
ATOM     37  N   UNL     1     -51.759 -50.776  10.383  0.00  0.00    -0.214 NA
BRANCH   4   3
ATOM      1  C   UNL     1     -51.271 -55.653  10.362  0.00  0.00    +0.020 A 
ATOM      2  C   UNL     1     -50.907 -54.356  10.882  0.00  0.00    +0.013 A 
ATOM      3  C   UNL     1     -51.778 -53.204  10.686  0.00  0.00    +0.019 A 
ATOM     38  C   UNL     1     -53.020 -53.401   9.954  0.00  0.00    +0.120 A 
ATOM     39  N   UNL     1     -53.343 -54.662   9.463  0.00  0.00    -0.263 NA
ATOM     40  C   UNL     1     -52.512 -55.777   9.644  0.00  0.00    +0.111 A 
ENDBRANCH   4   3
ENDBRANCH  10   9
BRANCH  12  13
ATOM     13  N   UNL     1     -48.852 -44.533   9.957  0.00  0.00    -0.281 N 
ATOM     14  C   UNL     1     -48.133 -44.534   8.773  0.00  0.00    +0.248 C 
ATOM     30  O   UNL     1     -48.361 -45.272   7.826  0.00  0.00    -0.270 OA
ATOM     31  H   UNL     1     -48.440 -44.011  10.731  0.00  0.00    +0.155 HD
BRANCH  14  15
ATOM     15  C   UNL     1     -46.985 -43.588   8.625  0.00  0.00    +0.037 A 
ATOM     16  C   UNL     1     -46.078 -43.312   9.742  0.00  0.00    +0.013 A 
ATOM     17  C   UNL     1     -44.989 -42.382   9.577  0.00  0.00    +0.005 A 
ATOM     18  C   UNL     1     -44.799 -41.723   8.287  0.00  0.00    -0.033 A 
ATOM     28  C   UNL     1     -45.710 -42.019   7.194  0.00  0.00    +0.005 A 
ATOM     29  C   UNL     1     -46.780 -42.929   7.352  0.00  0.00    +0.013 A 
BRANCH  18  19
ATOM     19  C   UNL     1     -43.677 -40.701   8.028  0.00  0.00    +0.119 C 
BRANCH  19  20
ATOM     20  N   UNL     1     -42.487 -41.173   7.259  0.00  0.00    -0.302 NA
ATOM     21  C   UNL     1     -41.196 -40.490   7.720  0.00  0.00    +0.066 C 
ATOM     22  C   UNL     1     -39.958 -41.012   6.921  0.00  0.00    -0.064 C 
ATOM     23  N   UNL     1     -40.187 -40.784   5.426  0.00  0.00    +0.379 N 
ATOM     24  C   UNL     1     -39.000 -41.221   4.676  0.00  0.00    -0.096 C 
ATOM     25  H   UNL     1     -40.304 -39.688   5.265  0.00  0.00    -0.082 HD
ATOM     26  C   UNL     1     -41.469 -41.459   4.959  0.00  0.00    -0.064 C 
ATOM     27  C   UNL     1     -42.689 -40.954   5.780  0.00  0.00    +0.066 C 
ENDBRANCH  19  20
ENDBRANCH  18  19
ENDBRANCH  14  15
ENDBRANCH  12  13
TORSDOF 6
ENDMDL
MODEL 3
REMARK VINA RESULT:      -9.5     10.905     17.925
REMARK  Name = C:\Users\Docking\Desktop\test protocol\1iep_ligandH.pdb
REMARK  8 active torsions:
REMARK  status: ('A' for Active; 'I' for Inactive)
REMARK    1  A    between atoms: _5  and  _11
REMARK    2  A    between atoms: _19  and  _21
REMARK    3  A    between atoms: _22  and  _66
REMARK    4  A    between atoms: _27  and  _30
REMARK    5  A    between atoms: _32  and  _33
REMARK    6  A    between atoms: _38  and  _43
REMARK    7  A    between atoms: _43  and  _46
REMARK    8  A    between atoms: _53  and  _55
REMARK                            x       y       z     vdW  Elec       q    Type
REMARK                         _______ _______ _______ _____ _____    ______ ____
ROOT
ATOM     10  C   UNL     1     -35.347 -43.185  17.631  0.00  0.00    +0.038 A 
ATOM     11  C   UNL     1     -35.934 -43.057  16.346  0.00  0.00    +0.047 A 
ATOM     12  C   UNL     1     -37.272 -42.511  16.181  0.00  0.00    +0.035 A 
ATOM     32  C   UNL     1     -37.983 -42.101  17.347  0.00  0.00    +0.024 A 
ATOM     33  C   UNL     1     -37.402 -42.225  18.661  0.00  0.00    +0.007 A 
ATOM     34  C   UNL     1     -36.083 -42.766  18.829  0.00  0.00    -0.029 A 
ATOM     35  C   UNL     1     -35.512 -42.881  20.262  0.00  0.00    +0.045 C 
ENDROOT
BRANCH  10   9
ATOM      4  C   UNL     1     -30.568 -42.746  17.536  0.00  0.00    +0.077 A 
ATOM      5  C   UNL     1     -30.643 -41.346  17.236  0.00  0.00    +0.048 A 
ATOM      6  C   UNL     1     -31.931 -40.778  17.106  0.00  0.00    +0.116 A 
ATOM      7  N   UNL     1     -33.052 -41.562  17.268  0.00  0.00    -0.223 NA
ATOM      8  C   UNL     1     -32.945 -42.910  17.556  0.00  0.00    +0.220 A 
ATOM      9  N   UNL     1     -34.059 -43.716  17.731  0.00  0.00    -0.283 N 
ATOM     36  H   UNL     1     -33.937 -44.708  17.935  0.00  0.00    +0.155 HD
ATOM     37  N   UNL     1     -31.726 -43.477  17.683  0.00  0.00    -0.214 NA
BRANCH   4   3
ATOM      1  C   UNL     1     -27.345 -44.844  16.818  0.00  0.00    +0.020 A 
ATOM      2  C   UNL     1     -28.587 -44.138  16.600  0.00  0.00    +0.013 A 
ATOM      3  C   UNL     1     -29.280 -43.490  17.707  0.00  0.00    +0.019 A 
ATOM     38  C   UNL     1     -28.685 -43.575  19.032  0.00  0.00    +0.120 A 
ATOM     39  N   UNL     1     -27.489 -44.263  19.212  0.00  0.00    -0.263 NA
ATOM     40  C   UNL     1     -26.814 -44.891  18.155  0.00  0.00    +0.111 A 
ENDBRANCH   4   3
ENDBRANCH  10   9
BRANCH  12  13
ATOM     13  N   UNL     1     -37.923 -42.365  14.903  0.00  0.00    -0.281 N 
ATOM     14  C   UNL     1     -37.716 -43.107  13.752  0.00  0.00    +0.248 C 
ATOM     30  O   UNL     1     -36.781 -43.876  13.585  0.00  0.00    -0.270 OA
ATOM     31  H   UNL     1     -38.621 -41.624  14.839  0.00  0.00    +0.155 HD
BRANCH  14  15
ATOM     15  C   UNL     1     -38.679 -42.965  12.618  0.00  0.00    +0.037 A 
ATOM     16  C   UNL     1     -38.727 -43.948  11.533  0.00  0.00    +0.013 A 
ATOM     17  C   UNL     1     -39.653 -43.778  10.442  0.00  0.00    +0.005 A 
ATOM     18  C   UNL     1     -40.542 -42.618  10.432  0.00  0.00    -0.033 A 
ATOM     28  C   UNL     1     -40.477 -41.660  11.523  0.00  0.00    +0.005 A 
ATOM     29  C   UNL     1     -39.569 -41.823  12.594  0.00  0.00    +0.013 A 
BRANCH  18  19
ATOM     19  C   UNL     1     -41.547 -42.345   9.297  0.00  0.00    +0.119 C 
BRANCH  19  20
ATOM     20  N   UNL     1     -40.988 -41.973   7.963  0.00  0.00    -0.302 NA
ATOM     21  C   UNL     1     -39.956 -40.847   8.066  0.00  0.00    +0.066 C 
ATOM     22  C   UNL     1     -39.365 -40.487   6.664  0.00  0.00    -0.064 C 
ATOM     23  N   UNL     1     -40.503 -40.094   5.720  0.00  0.00    +0.379 N 
ATOM     24  C   UNL     1     -39.945 -39.699   4.418  0.00  0.00    -0.096 C 
ATOM     25  H   UNL     1     -41.011 -39.203   6.155  0.00  0.00    -0.082 HD
ATOM     26  C   UNL     1     -41.535 -41.208   5.614  0.00  0.00    -0.064 C 
ATOM     27  C   UNL     1     -42.094 -41.578   7.016  0.00  0.00    +0.066 C 
ENDBRANCH  19  20
ENDBRANCH  18  19
ENDBRANCH  14  15
ENDBRANCH  12  13
TORSDOF 6
ENDMDL
MODEL 4
REMARK VINA RESULT:      -9.1     10.428     17.497
REMARK  Name = C:\Users\Docking\Desktop\test protocol\1iep_ligandH.pdb
REMARK  8 active torsions:
REMARK  status: ('A' for Active; 'I' for Inactive)
REMARK    1  A    between atoms: _5  and  _11
REMARK    2  A    between atoms: _19  and  _21
REMARK    3  A    between atoms: _22  and  _66
REMARK    4  A    between atoms: _27  and  _30
REMARK    5  A    between atoms: _32  and  _33
REMARK    6  A    between atoms: _38  and  _43
REMARK    7  A    between atoms: _43  and  _46
REMARK    8  A    between atoms: _53  and  _55
REMARK                            x       y       z     vdW  Elec       q    Type
REMARK                         _______ _______ _______ _____ _____    ______ ____
ROOT
ATOM     10  C   UNL     1     -36.105 -43.184  17.086  0.00  0.00    +0.038 A 
ATOM     11  C   UNL     1     -36.387 -43.017  15.706  0.00  0.00    +0.047 A 
ATOM     12  C   UNL     1     -37.717 -42.643  15.249  0.00  0.00    +0.035 A 
ATOM     32  C   UNL     1     -38.735 -42.443  16.226  0.00  0.00    +0.024 A 
ATOM     33  C   UNL     1     -38.467 -42.610  17.632  0.00  0.00    +0.007 A 
ATOM     34  C   UNL     1     -37.158 -42.981  18.089  0.00  0.00    -0.029 A 
ATOM     35  C   UNL     1     -36.929 -43.152  19.609  0.00  0.00    +0.045 C 
ENDROOT
BRANCH  10   9
ATOM      4  C   UNL     1     -31.514 -42.127  18.001  0.00  0.00    +0.077 A 
ATOM      5  C   UNL     1     -31.703 -40.745  17.662  0.00  0.00    +0.048 A 
ATOM      6  C   UNL     1     -32.995 -40.349  17.250  0.00  0.00    +0.116 A 
ATOM      7  N   UNL     1     -34.015 -41.274  17.186  0.00  0.00    -0.223 NA
ATOM      8  C   UNL     1     -33.798 -42.598  17.518  0.00  0.00    +0.220 A 
ATOM      9  N   UNL     1     -34.811 -43.544  17.468  0.00  0.00    -0.283 N 
ATOM     36  H   UNL     1     -34.609 -44.512  17.714  0.00  0.00    +0.155 HD
ATOM     37  N   UNL     1     -32.573 -43.002  17.913  0.00  0.00    -0.214 NA
BRANCH   4   3
ATOM      1  C   UNL     1     -28.432 -44.490  18.465  0.00  0.00    +0.020 A 
ATOM      2  C   UNL     1     -29.701 -43.984  17.994  0.00  0.00    +0.013 A 
ATOM      3  C   UNL     1     -30.207 -42.698  18.456  0.00  0.00    +0.019 A 
ATOM     38  C   UNL     1     -29.399 -41.943  19.402  0.00  0.00    +0.120 A 
ATOM     39  N   UNL     1     -28.182 -42.456  19.839  0.00  0.00    -0.263 NA
ATOM     40  C   UNL     1     -27.685 -43.694  19.402  0.00  0.00    +0.111 A 
ENDBRANCH   4   3
ENDBRANCH  10   9
BRANCH  12  13
ATOM     13  N   UNL     1     -38.064 -42.467  13.860  0.00  0.00    -0.281 N 
ATOM     14  C   UNL     1     -38.620 -43.397  12.997  0.00  0.00    +0.248 C 
ATOM     30  O   UNL     1     -38.707 -44.593  13.233  0.00  0.00    -0.270 OA
ATOM     31  H   UNL     1     -37.877 -41.545  13.466  0.00  0.00    +0.155 HD
BRANCH  14  15
ATOM     15  C   UNL     1     -39.143 -42.933  11.676  0.00  0.00    +0.037 A 
ATOM     16  C   UNL     1     -38.803 -43.635  10.436  0.00  0.00    +0.013 A 
ATOM     17  C   UNL     1     -39.306 -43.157   9.173  0.00  0.00    +0.005 A 
ATOM     18  C   UNL     1     -40.157 -41.970   9.144  0.00  0.00    -0.033 A 
ATOM     28  C   UNL     1     -40.483 -41.296  10.390  0.00  0.00    +0.005 A 
ATOM     29  C   UNL     1     -39.991 -41.761  11.630  0.00  0.00    +0.013 A 
BRANCH  18  19
ATOM     19  C   UNL     1     -40.722 -41.377   7.840  0.00  0.00    +0.119 C 
BRANCH  19  20
ATOM     20  N   UNL     1     -42.203 -41.209   7.750  0.00  0.00    -0.302 NA
ATOM     21  C   UNL     1     -42.954 -42.373   8.403  0.00  0.00    +0.066 C 
ATOM     22  C   UNL     1     -44.502 -42.170   8.320  0.00  0.00    -0.064 C 
ATOM     23  N   UNL     1     -44.915 -42.013   6.855  0.00  0.00    +0.379 N 
ATOM     24  C   UNL     1     -46.377 -41.880   6.770  0.00  0.00    -0.096 C 
ATOM     25  H   UNL     1     -44.628 -42.948   6.321  0.00  0.00    -0.082 HD
ATOM     26  C   UNL     1     -44.171 -40.859   6.198  0.00  0.00    -0.064 C 
ATOM     27  C   UNL     1     -42.634 -41.056   6.312  0.00  0.00    +0.066 C 
ENDBRANCH  19  20
ENDBRANCH  18  19
ENDBRANCH  14  15
ENDBRANCH  12  13
TORSDOF 6
ENDMDL
MODEL 5
REMARK VINA RESULT:      -8.9      1.517      2.250
REMARK  Name = C:\Users\Docking\Desktop\test protocol\1iep_ligandH.pdb
REMARK  8 active torsions:
REMARK  status: ('A' for Active; 'I' for Inactive)
REMARK    1  A    between atoms: _5  and  _11
REMARK    2  A    between atoms: _19  and  _21
REMARK    3  A    between atoms: _22  and  _66
REMARK    4  A    between atoms: _27  and  _30
REMARK    5  A    between atoms: _32  and  _33
REMARK    6  A    between atoms: _38  and  _43
REMARK    7  A    between atoms: _43  and  _46
REMARK    8  A    between atoms: _53  and  _55
REMARK                            x       y       z     vdW  Elec       q    Type
REMARK                         _______ _______ _______ _____ _____    ______ ____
ROOT
ATOM     10  C   UNL     1     -51.749 -47.725  11.874  0.00  0.00    +0.038 A 
ATOM     11  C   UNL     1     -50.805 -47.068  11.046  0.00  0.00    +0.047 A 
ATOM     12  C   UNL     1     -49.866 -46.101  11.594  0.00  0.00    +0.035 A 
ATOM     32  C   UNL     1     -49.917 -45.829  12.992  0.00  0.00    +0.024 A 
ATOM     33  C   UNL     1     -50.871 -46.487  13.849  0.00  0.00    +0.007 A 
ATOM     34  C   UNL     1     -51.801 -47.439  13.313  0.00  0.00    -0.029 A 
ATOM     35  C   UNL     1     -52.807 -48.110  14.278  0.00  0.00    +0.045 C 
ENDROOT
BRANCH  10   9
ATOM      4  C   UNL     1     -55.855 -48.835   9.650  0.00  0.00    +0.077 A 
ATOM      5  C   UNL     1     -56.302 -47.472   9.667  0.00  0.00    +0.048 A 
ATOM      6  C   UNL     1     -55.449 -46.517  10.264  0.00  0.00    +0.116 A 
ATOM      7  N   UNL     1     -54.241 -46.907  10.801  0.00  0.00    -0.223 NA
ATOM      8  C   UNL     1     -53.841 -48.230  10.769  0.00  0.00    +0.220 A 
ATOM      9  N   UNL     1     -52.627 -48.644  11.295  0.00  0.00    -0.283 N 
ATOM     36  H   UNL     1     -52.371 -49.631  11.258  0.00  0.00    +0.155 HD
ATOM     37  N   UNL     1     -54.638 -49.162  10.205  0.00  0.00    -0.214 NA
BRANCH   4   3
ATOM      1  C   UNL     1     -57.563 -51.247   7.087  0.00  0.00    +0.020 A 
ATOM      2  C   UNL     1     -56.792 -50.144   7.613  0.00  0.00    +0.013 A 
ATOM      3  C   UNL     1     -56.643 -49.959   9.051  0.00  0.00    +0.019 A 
ATOM     38  C   UNL     1     -57.291 -50.915   9.936  0.00  0.00    +0.120 A 
ATOM     39  N   UNL     1     -58.029 -51.966   9.401  0.00  0.00    -0.263 NA
ATOM     40  C   UNL     1     -58.180 -52.153   8.019  0.00  0.00    +0.111 A 
ENDBRANCH   4   3
ENDBRANCH  10   9
BRANCH  12  13
ATOM     13  N   UNL     1     -48.890 -45.396  10.800  0.00  0.00    -0.281 N 
ATOM     14  C   UNL     1     -48.423 -45.723   9.538  0.00  0.00    +0.248 C 
ATOM     30  O   UNL     1     -48.618 -46.796   8.985  0.00  0.00    -0.270 OA
ATOM     31  H   UNL     1     -48.496 -44.554  11.220  0.00  0.00    +0.155 HD
BRANCH  14  15
ATOM     15  C   UNL     1     -47.609 -44.720   8.786  0.00  0.00    +0.037 A 
ATOM     16  C   UNL     1     -47.409 -44.833   7.340  0.00  0.00    +0.013 A 
ATOM     17  C   UNL     1     -46.605 -43.861   6.642  0.00  0.00    +0.005 A 
ATOM     18  C   UNL     1     -45.997 -42.764   7.392  0.00  0.00    -0.033 A 
ATOM     28  C   UNL     1     -46.216 -42.673   8.826  0.00  0.00    +0.005 A 
ATOM     29  C   UNL     1     -47.003 -43.624   9.513  0.00  0.00    +0.013 A 
BRANCH  18  19
ATOM     19  C   UNL     1     -45.107 -41.693   6.733  0.00  0.00    +0.119 C 
BRANCH  19  20
ATOM     20  N   UNL     1     -43.795 -41.401   7.383  0.00  0.00    -0.302 NA
ATOM     21  C   UNL     1     -42.875 -40.580   6.475  0.00  0.00    +0.066 C 
ATOM     22  C   UNL     1     -41.515 -40.264   7.178  0.00  0.00    -0.064 C 
ATOM     23  N   UNL     1     -40.841 -41.574   7.590  0.00  0.00    +0.379 N 
ATOM     24  C   UNL     1     -39.535 -41.283   8.200  0.00  0.00    -0.096 C 
ATOM     25  H   UNL     1     -40.657 -42.165   6.663  0.00  0.00    -0.082 HD
ATOM     26  C   UNL     1     -41.749 -42.398   8.491  0.00  0.00    -0.064 C 
ATOM     27  C   UNL     1     -43.109 -42.681   7.793  0.00  0.00    +0.066 C 
ENDBRANCH  19  20
ENDBRANCH  18  19
ENDBRANCH  14  15
ENDBRANCH  12  13
TORSDOF 6
ENDMDL
