MODEL 1
REMARK VINA RESULT:      -9.5      0.000      0.000
REMARK  Name = C:\Users\Docking\Desktop\test protocol\1iep_ligandH.pdb
REMARK  8 active torsions:
REMARK  status: ('A' for Active; 'I' for Inactive)
REMARK    1  A    between atoms: _5  and  _11
REMARK    2  A    between atoms: _19  and  _21
REMARK    3  A    between atoms: _22  and  _66
REMARK    4  A    between atoms: _27  and  _30
REMARK    5  A    between atoms: _32  and  _33
REMARK    6  A    between atoms: _38  and  _43
REMARK    7  A    between atoms: _43  and  _46
REMARK    8  A    between atoms: _53  and  _55
REMARK                            x       y       z     vdW  Elec       q    Type
REMARK                         _______ _______ _______ _____ _____    ______ ____
ROOT
ATOM     10  C   UNL     1      -7.585  53.779  12.798  0.00  0.00    +0.038 A 
ATOM     11  C   UNL     1      -8.177  53.300  13.994  0.00  0.00    +0.047 A 
ATOM     12  C   UNL     1      -9.378  53.915  14.538  0.00  0.00    +0.035 A 
ATOM     32  C   UNL     1      -9.950  55.016  13.836  0.00  0.00    +0.024 A 
ATOM     33  C   UNL     1      -9.360  55.517  12.620  0.00  0.00    +0.007 A 
ATOM     34  C   UNL     1      -8.174  54.915  12.080  0.00  0.00    -0.029 A 
ATOM     35  C   UNL     1      -7.581  55.498  10.776  0.00  0.00    +0.045 C 
ENDROOT
BRANCH  10   9
ATOM      4  C   UNL     1      -5.100  49.859  11.576  0.00  0.00    +0.077 A 
ATOM      5  C   UNL     1      -6.178  48.988  11.945  0.00  0.00    +0.048 A 
ATOM      6  C   UNL     1      -7.352  49.588  12.452  0.00  0.00    +0.116 A 
ATOM      7  N   UNL     1      -7.431  50.958  12.576  0.00  0.00    -0.223 NA
ATOM      8  C   UNL     1      -6.372  51.769  12.212  0.00  0.00    +0.220 A 
ATOM      9  N   UNL     1      -6.432  53.150  12.321  0.00  0.00    -0.283 N 
ATOM     36  H   UNL     1      -5.627  53.713  12.049  0.00  0.00    +0.155 HD
ATOM     37  N   UNL     1      -5.239  51.220  11.727  0.00  0.00    -0.214 NA
BRANCH   4   3
ATOM      1  C   UNL     1      -2.174  47.549  10.389  0.00  0.00    +0.020 A 
ATOM      2  C   UNL     1      -3.447  47.963  10.933  0.00  0.00    +0.013 A 
ATOM      3  C   UNL     1      -3.795  49.375  11.022  0.00  0.00    +0.019 A 
ATOM     38  C   UNL     1      -2.826  50.351  10.547  0.00  0.00    +0.120 A 
ATOM     39  N   UNL     1      -1.607  49.923  10.030  0.00  0.00    -0.263 NA
ATOM     40  C   UNL     1      -1.261  48.567   9.941  0.00  0.00    +0.111 A 
ENDBRANCH   4   3
ENDBRANCH  10   9
BRANCH  12  13
ATOM     13  N   UNL     1     -10.020  53.477  15.753  0.00  0.00    -0.281 N 
ATOM     14  C   UNL     1     -10.475  52.206  16.064  0.00  0.00    +0.248 C 
ATOM     30  O   UNL     1     -10.593  51.297  15.257  0.00  0.00    -0.270 OA
ATOM     31  H   UNL     1     -10.154  54.190  16.470  0.00  0.00    +0.155 HD
BRANCH  14  15
ATOM     15  C   UNL     1     -10.871  51.907  17.474  0.00  0.00    +0.037 A 
ATOM     16  C   UNL     1     -10.279  50.786  18.208  0.00  0.00    +0.013 A 
ATOM     17  C   UNL     1     -10.691  50.509  19.562  0.00  0.00    +0.005 A 
ATOM     18  C   UNL     1     -11.701  51.357  20.190  0.00  0.00    -0.033 A 
ATOM     28  C   UNL     1     -12.269  52.465  19.441  0.00  0.00    +0.005 A 
ATOM     29  C   UNL     1     -11.868  52.739  18.114  0.00  0.00    +0.013 A 
BRANCH  18  19
ATOM     19  C   UNL     1     -12.216  51.122  21.623  0.00  0.00    +0.119 C 
BRANCH  19  20
ATOM     20  N   UNL     1     -12.244  49.713  22.117  0.00  0.00    -0.302 NA
ATOM     21  C   UNL     1     -13.408  48.917  21.520  0.00  0.00    +0.066 C 
ATOM     22  C   UNL     1     -13.409  47.440  22.030  0.00  0.00    -0.064 C 
ATOM     23  N   UNL     1     -13.474  47.431  23.559  0.00  0.00    +0.379 N 
ATOM     24  C   UNL     1     -13.533  46.043  24.039  0.00  0.00    -0.096 C 
ATOM     25  H   UNL     1     -14.422  47.934  23.859  0.00  0.00    -0.082 HD
ATOM     26  C   UNL     1     -12.321  48.222  24.160  0.00  0.00    -0.064 C 
ATOM     27  C   UNL     1     -12.313  49.681  23.624  0.00  0.00    +0.066 C 
ENDBRANCH  19  20
ENDBRANCH  18  19
ENDBRANCH  14  15
ENDBRANCH  12  13
TORSDOF 6
ENDMDL
MODEL 2
REMARK VINA RESULT:      -9.4     28.419     32.662
REMARK  Name = C:\Users\Docking\Desktop\test protocol\1iep_ligandH.pdb
REMARK  8 active torsions:
REMARK  status: ('A' for Active; 'I' for Inactive)
REMARK    1  A    between atoms: _5  and  _11
REMARK    2  A    between atoms: _19  and  _21
REMARK    3  A    between atoms: _22  and  _66
REMARK    4  A    between atoms: _27  and  _30
REMARK    5  A    between atoms: _32  and  _33
REMARK    6  A    between atoms: _38  and  _43
REMARK    7  A    between atoms: _43  and  _46
REMARK    8  A    between atoms: _53  and  _55
REMARK                            x       y       z     vdW  Elec       q    Type
REMARK                         _______ _______ _______ _____ _____    ______ ____
ROOT
ATOM     10  C   UNL     1     -33.179  67.452  11.474  0.00  0.00    +0.038 A 
ATOM     11  C   UNL     1     -33.030  68.302  10.348  0.00  0.00    +0.047 A 
ATOM     12  C   UNL     1     -34.188  68.838   9.652  0.00  0.00    +0.035 A 
ATOM     32  C   UNL     1     -35.485  68.491  10.131  0.00  0.00    +0.024 A 
ATOM     33  C   UNL     1     -35.655  67.628  11.273  0.00  0.00    +0.007 A 
ATOM     34  C   UNL     1     -34.516  67.094  11.963  0.00  0.00    -0.029 A 
ATOM     35  C   UNL     1     -34.758  66.168  13.178  0.00  0.00    +0.045 C 
ENDROOT
BRANCH  10   9
ATOM      4  C   UNL     1     -29.713  64.176  12.016  0.00  0.00    +0.077 A 
ATOM      5  C   UNL     1     -30.248  63.351  10.971  0.00  0.00    +0.048 A 
ATOM      6  C   UNL     1     -31.421  63.802  10.325  0.00  0.00    +0.116 A 
ATOM      7  N   UNL     1     -32.006  64.991  10.702  0.00  0.00    -0.223 NA
ATOM      8  C   UNL     1     -31.465  65.762  11.715  0.00  0.00    +0.220 A 
ATOM      9  N   UNL     1     -32.032  66.965  12.105  0.00  0.00    -0.283 N 
ATOM     36  H   UNL     1     -31.606  67.501  12.862  0.00  0.00    +0.155 HD
ATOM     37  N   UNL     1     -30.346  65.353  12.349  0.00  0.00    -0.214 NA
BRANCH   4   3
ATOM      1  C   UNL     1     -27.211  63.508  14.948  0.00  0.00    +0.020 A 
ATOM      2  C   UNL     1     -28.429  63.844  14.247  0.00  0.00    +0.013 A 
ATOM      3  C   UNL     1     -28.478  63.836  12.791  0.00  0.00    +0.019 A 
ATOM     38  C   UNL     1     -27.267  63.480  12.067  0.00  0.00    +0.120 A 
ATOM     39  N   UNL     1     -26.108  63.162  12.768  0.00  0.00    -0.263 NA
ATOM     40  C   UNL     1     -26.049  63.168  14.169  0.00  0.00    +0.111 A 
ENDBRANCH   4   3
ENDBRANCH  10   9
BRANCH  12  13
ATOM     13  N   UNL     1     -34.099  69.699   8.498  0.00  0.00    -0.281 N 
ATOM     14  C   UNL     1     -33.686  69.367   7.218  0.00  0.00    +0.248 C 
ATOM     30  O   UNL     1     -33.125  68.322   6.922  0.00  0.00    -0.270 OA
ATOM     31  H   UNL     1     -34.373  70.671   8.643  0.00  0.00    +0.155 HD
BRANCH  14  15
ATOM     15  C   UNL     1     -33.917  70.342   6.109  0.00  0.00    +0.037 A 
ATOM     16  C   UNL     1     -33.522  71.747   6.239  0.00  0.00    +0.013 A 
ATOM     17  C   UNL     1     -33.772  72.671   5.161  0.00  0.00    +0.005 A 
ATOM     18  C   UNL     1     -34.419  72.191   3.942  0.00  0.00    -0.033 A 
ATOM     28  C   UNL     1     -34.796  70.791   3.838  0.00  0.00    +0.005 A 
ATOM     29  C   UNL     1     -34.553  69.883   4.893  0.00  0.00    +0.013 A 
BRANCH  18  19
ATOM     19  C   UNL     1     -34.744  73.110   2.750  0.00  0.00    +0.119 C 
BRANCH  19  20
ATOM     20  N   UNL     1     -35.638  74.277   3.010  0.00  0.00    -0.302 NA
ATOM     21  C   UNL     1     -36.943  73.860   3.695  0.00  0.00    +0.066 C 
ATOM     22  C   UNL     1     -37.857  75.096   3.980  0.00  0.00    -0.064 C 
ATOM     23  N   UNL     1     -38.144  75.828   2.668  0.00  0.00    +0.379 N 
ATOM     24  C   UNL     1     -39.051  76.956   2.924  0.00  0.00    -0.096 C 
ATOM     25  H   UNL     1     -38.673  75.115   1.992  0.00  0.00    -0.082 HD
ATOM     26  C   UNL     1     -36.852  76.244   1.979  0.00  0.00    -0.064 C 
ATOM     27  C   UNL     1     -35.939  75.012   1.727  0.00  0.00    +0.066 C 
ENDBRANCH  19  20
ENDBRANCH  18  19
ENDBRANCH  14  15
ENDBRANCH  12  13
TORSDOF 6
ENDMDL
MODEL 3
REMARK VINA RESULT:      -9.1     40.178     42.791
REMARK  Name = C:\Users\Docking\Desktop\test protocol\1iep_ligandH.pdb
REMARK  8 active torsions:
REMARK  status: ('A' for Active; 'I' for Inactive)
REMARK    1  A    between atoms: _5  and  _11
REMARK    2  A    between atoms: _19  and  _21
REMARK    3  A    between atoms: _22  and  _66
REMARK    4  A    between atoms: _27  and  _30
REMARK    5  A    between atoms: _32  and  _33
REMARK    6  A    between atoms: _38  and  _43
REMARK    7  A    between atoms: _43  and  _46
REMARK    8  A    between atoms: _53  and  _55
REMARK                            x       y       z     vdW  Elec       q    Type
REMARK                         _______ _______ _______ _____ _____    ______ ____
ROOT
ATOM     10  C   UNL     1     -49.982  45.536   4.015  0.00  0.00    +0.038 A 
ATOM     11  C   UNL     1     -49.996  46.926   4.296  0.00  0.00    +0.047 A 
ATOM     12  C   UNL     1     -50.903  47.825   3.599  0.00  0.00    +0.035 A 
ATOM     32  C   UNL     1     -51.783  47.274   2.623  0.00  0.00    +0.024 A 
ATOM     33  C   UNL     1     -51.781  45.864   2.324  0.00  0.00    +0.007 A 
ATOM     34  C   UNL     1     -50.888  44.972   3.007  0.00  0.00    -0.029 A 
ATOM     35  C   UNL     1     -50.924  43.470   2.641  0.00  0.00    +0.045 C 
ENDROOT
BRANCH  10   9
ATOM      4  C   UNL     1     -45.935  42.974   4.318  0.00  0.00    +0.077 A 
ATOM      5  C   UNL     1     -45.578  43.266   2.960  0.00  0.00    +0.048 A 
ATOM      6  C   UNL     1     -46.466  44.074   2.215  0.00  0.00    +0.116 A 
ATOM      7  N   UNL     1     -47.622  44.548   2.796  0.00  0.00    -0.223 NA
ATOM      8  C   UNL     1     -47.938  44.246   4.108  0.00  0.00    +0.220 A 
ATOM      9  N   UNL     1     -49.091  44.718   4.714  0.00  0.00    -0.283 N 
ATOM     36  H   UNL     1     -49.291  44.466   5.682  0.00  0.00    +0.155 HD
ATOM     37  N   UNL     1     -47.106  43.475   4.839  0.00  0.00    -0.214 NA
BRANCH   4   3
ATOM      1  C   UNL     1     -44.747  40.789   7.338  0.00  0.00    +0.020 A 
ATOM      2  C   UNL     1     -45.598  41.592   6.490  0.00  0.00    +0.013 A 
ATOM      3  C   UNL     1     -45.097  42.137   5.234  0.00  0.00    +0.019 A 
ATOM     38  C   UNL     1     -43.720  41.847   4.862  0.00  0.00    +0.120 A 
ATOM     39  N   UNL     1     -42.924  41.072   5.700  0.00  0.00    -0.263 NA
ATOM     40  C   UNL     1     -43.395  40.544   6.912  0.00  0.00    +0.111 A 
ENDBRANCH   4   3
ENDBRANCH  10   9
BRANCH  12  13
ATOM     13  N   UNL     1     -50.957  49.246   3.837  0.00  0.00    -0.281 N 
ATOM     14  C   UNL     1     -51.850  49.943   4.633  0.00  0.00    +0.248 C 
ATOM     30  O   UNL     1     -52.878  49.470   5.097  0.00  0.00    -0.270 OA
ATOM     31  H   UNL     1     -50.250  49.807   3.360  0.00  0.00    +0.155 HD
BRANCH  14  15
ATOM     15  C   UNL     1     -51.570  51.377   4.949  0.00  0.00    +0.037 A 
ATOM     16  C   UNL     1     -50.787  51.757   6.127  0.00  0.00    +0.013 A 
ATOM     17  C   UNL     1     -50.546  53.148   6.418  0.00  0.00    +0.005 A 
ATOM     18  C   UNL     1     -51.088  54.170   5.526  0.00  0.00    -0.033 A 
ATOM     28  C   UNL     1     -51.857  53.765   4.361  0.00  0.00    +0.005 A 
ATOM     29  C   UNL     1     -52.097  52.403   4.074  0.00  0.00    +0.013 A 
BRANCH  18  19
ATOM     19  C   UNL     1     -50.898  55.679   5.770  0.00  0.00    +0.119 C 
BRANCH  19  20
ATOM     20  N   UNL     1     -50.964  56.157   7.184  0.00  0.00    -0.302 NA
ATOM     21  C   UNL     1     -52.371  56.021   7.771  0.00  0.00    +0.066 C 
ATOM     22  C   UNL     1     -52.417  56.504   9.258  0.00  0.00    -0.064 C 
ATOM     23  N   UNL     1     -51.935  57.954   9.335  0.00  0.00    +0.379 N 
ATOM     24  C   UNL     1     -52.031  58.429  10.723  0.00  0.00    -0.096 C 
ATOM     25  H   UNL     1     -52.626  58.573   8.716  0.00  0.00    -0.082 HD
ATOM     26  C   UNL     1     -50.537  58.098   8.750  0.00  0.00    -0.064 C 
ATOM     27  C   UNL     1     -50.496  57.588   7.283  0.00  0.00    +0.066 C 
ENDBRANCH  19  20
ENDBRANCH  18  19
ENDBRANCH  14  15
ENDBRANCH  12  13
TORSDOF 6
ENDMDL
MODEL 4
REMARK VINA RESULT:      -9.0     28.994     33.422
REMARK  Name = C:\Users\Docking\Desktop\test protocol\1iep_ligandH.pdb
REMARK  8 active torsions:
REMARK  status: ('A' for Active; 'I' for Inactive)
REMARK    1  A    between atoms: _5  and  _11
REMARK    2  A    between atoms: _19  and  _21
REMARK    3  A    between atoms: _22  and  _66
REMARK    4  A    between atoms: _27  and  _30
REMARK    5  A    between atoms: _32  and  _33
REMARK    6  A    between atoms: _38  and  _43
REMARK    7  A    between atoms: _43  and  _46
REMARK    8  A    between atoms: _53  and  _55
REMARK                            x       y       z     vdW  Elec       q    Type
REMARK                         _______ _______ _______ _____ _____    ______ ____
ROOT
ATOM     10  C   UNL     1     -34.462  67.417  11.066  0.00  0.00    +0.038 A 
ATOM     11  C   UNL     1     -34.349  68.169   9.868  0.00  0.00    +0.047 A 
ATOM     12  C   UNL     1     -35.510  68.431   9.032  0.00  0.00    +0.035 A 
ATOM     32  C   UNL     1     -36.772  67.915   9.447  0.00  0.00    +0.024 A 
ATOM     33  C   UNL     1     -36.905  67.148  10.661  0.00  0.00    +0.007 A 
ATOM     34  C   UNL     1     -35.762  66.884  11.488  0.00  0.00    -0.029 A 
ATOM     35  C   UNL     1     -35.962  66.050  12.776  0.00  0.00    +0.045 C 
ENDROOT
BRANCH  10   9
ATOM      4  C   UNL     1     -30.502  64.922  12.131  0.00  0.00    +0.077 A 
ATOM      5  C   UNL     1     -30.756  63.964  11.095  0.00  0.00    +0.048 A 
ATOM      6  C   UNL     1     -31.920  64.145  10.314  0.00  0.00    +0.116 A 
ATOM      7  N   UNL     1     -32.760  65.209  10.561  0.00  0.00    -0.223 NA
ATOM      8  C   UNL     1     -32.487  66.114  11.570  0.00  0.00    +0.220 A 
ATOM      9  N   UNL     1     -33.314  67.196  11.830  0.00  0.00    -0.283 N 
ATOM     36  H   UNL     1     -33.082  67.837  12.588  0.00  0.00    +0.155 HD
ATOM     37  N   UNL     1     -31.383  65.962  12.330  0.00  0.00    -0.214 NA
BRANCH   4   3
ATOM      1  C   UNL     1     -27.404  63.652  14.153  0.00  0.00    +0.020 A 
ATOM      2  C   UNL     1     -28.546  63.650  13.268  0.00  0.00    +0.013 A 
ATOM      3  C   UNL     1     -29.312  64.868  13.038  0.00  0.00    +0.019 A 
ATOM     38  C   UNL     1     -28.894  66.081  13.725  0.00  0.00    +0.120 A 
ATOM     39  N   UNL     1     -27.791  66.053  14.573  0.00  0.00    -0.263 NA
ATOM     40  C   UNL     1     -27.046  64.886  14.803  0.00  0.00    +0.111 A 
ENDBRANCH   4   3
ENDBRANCH  10   9
BRANCH  12  13
ATOM     13  N   UNL     1     -35.455  69.181   7.802  0.00  0.00    -0.281 N 
ATOM     14  C   UNL     1     -35.037  70.489   7.619  0.00  0.00    +0.248 C 
ATOM     30  O   UNL     1     -34.847  71.286   8.526  0.00  0.00    -0.270 OA
ATOM     31  H   UNL     1     -35.762  68.687   6.963  0.00  0.00    +0.155 HD
BRANCH  14  15
ATOM     15  C   UNL     1     -34.811  70.988   6.229  0.00  0.00    +0.037 A 
ATOM     16  C   UNL     1     -34.427  72.378   5.973  0.00  0.00    +0.013 A 
ATOM     17  C   UNL     1     -34.232  72.838   4.621  0.00  0.00    +0.005 A 
ATOM     18  C   UNL     1     -34.420  71.904   3.513  0.00  0.00    -0.033 A 
ATOM     28  C   UNL     1     -34.796  70.529   3.795  0.00  0.00    +0.005 A 
ATOM     29  C   UNL     1     -34.989  70.075   5.119  0.00  0.00    +0.013 A 
BRANCH  18  19
ATOM     19  C   UNL     1     -34.254  72.313   2.037  0.00  0.00    +0.119 C 
BRANCH  19  20
ATOM     20  N   UNL     1     -34.636  73.708   1.667  0.00  0.00    -0.302 NA
ATOM     21  C   UNL     1     -36.116  73.990   1.938  0.00  0.00    +0.066 C 
ATOM     22  C   UNL     1     -36.493  75.461   1.567  0.00  0.00    -0.064 C 
ATOM     23  N   UNL     1     -36.153  75.716   0.097  0.00  0.00    +0.379 N 
ATOM     24  C   UNL     1     -36.560  77.080  -0.271  0.00  0.00    -0.096 C 
ATOM     25  H   UNL     1     -36.755  75.006  -0.517  0.00  0.00    -0.082 HD
ATOM     26  C   UNL     1     -34.684  75.435  -0.182  0.00  0.00    -0.064 C 
ATOM     27  C   UNL     1     -34.313  73.980   0.218  0.00  0.00    +0.066 C 
ENDBRANCH  19  20
ENDBRANCH  18  19
ENDBRANCH  14  15
ENDBRANCH  12  13
TORSDOF 6
ENDMDL
MODEL 5
REMARK VINA RESULT:      -8.8     32.241     33.374
REMARK  Name = C:\Users\Docking\Desktop\test protocol\1iep_ligandH.pdb
REMARK  8 active torsions:
REMARK  status: ('A' for Active; 'I' for Inactive)
REMARK    1  A    between atoms: _5  and  _11
REMARK    2  A    between atoms: _19  and  _21
REMARK    3  A    between atoms: _22  and  _66
REMARK    4  A    between atoms: _27  and  _30
REMARK    5  A    between atoms: _32  and  _33
REMARK    6  A    between atoms: _38  and  _43
REMARK    7  A    between atoms: _43  and  _46
REMARK    8  A    between atoms: _53  and  _55
REMARK                            x       y       z     vdW  Elec       q    Type
REMARK                         _______ _______ _______ _____ _____    ______ ____
ROOT
ATOM     10  C   UNL     1     -36.004  40.935  -2.943  0.00  0.00    +0.038 A 
ATOM     11  C   UNL     1     -36.501  41.292  -1.663  0.00  0.00    +0.047 A 
ATOM     12  C   UNL     1     -37.651  40.613  -1.086  0.00  0.00    +0.035 A 
ATOM     32  C   UNL     1     -38.270  39.573  -1.839  0.00  0.00    +0.024 A 
ATOM     33  C   UNL     1     -37.779  39.199  -3.142  0.00  0.00    +0.007 A 
ATOM     34  C   UNL     1     -36.646  39.867  -3.717  0.00  0.00    -0.029 A 
ATOM     35  C   UNL     1     -36.167  39.428  -5.121  0.00  0.00    +0.045 C 
ENDROOT
BRANCH  10   9
ATOM      4  C   UNL     1     -31.269  41.576  -3.397  0.00  0.00    +0.077 A 
ATOM      5  C   UNL     1     -30.977  40.469  -2.533  0.00  0.00    +0.048 A 
ATOM      6  C   UNL     1     -32.073  39.766  -1.986  0.00  0.00    +0.116 A 
ATOM      7  N   UNL     1     -33.362  40.149  -2.288  0.00  0.00    -0.223 NA
ATOM      8  C   UNL     1     -33.609  41.222  -3.124  0.00  0.00    +0.220 A 
ATOM      9  N   UNL     1     -34.897  41.620  -3.448  0.00  0.00    -0.283 N 
ATOM     36  H   UNL     1     -35.038  42.422  -4.063  0.00  0.00    +0.155 HD
ATOM     37  N   UNL     1     -32.579  41.912  -3.658  0.00  0.00    -0.214 NA
BRANCH   4   3
ATOM      1  C   UNL     1     -28.269  44.016  -3.987  0.00  0.00    +0.020 A 
ATOM      2  C   UNL     1     -29.265  43.223  -3.304  0.00  0.00    +0.013 A 
ATOM      3  C   UNL     1     -30.219  42.416  -4.054  0.00  0.00    +0.019 A 
ATOM     38  C   UNL     1     -30.137  42.434  -5.507  0.00  0.00    +0.120 A 
ATOM     39  N   UNL     1     -29.168  43.208  -6.138  0.00  0.00    -0.263 NA
ATOM     40  C   UNL     1     -28.246  43.990  -5.426  0.00  0.00    +0.111 A 
ENDBRANCH   4   3
ENDBRANCH  10   9
BRANCH  12  13
ATOM     13  N   UNL     1     -38.204  40.937   0.206  0.00  0.00    -0.281 N 
ATOM     14  C   UNL     1     -38.949  42.051   0.558  0.00  0.00    +0.248 C 
ATOM     30  O   UNL     1     -39.072  43.048  -0.138  0.00  0.00    -0.270 OA
ATOM     31  H   UNL     1     -38.025  40.264   0.951  0.00  0.00    +0.155 HD
BRANCH  14  15
ATOM     15  C   UNL     1     -39.647  42.064   1.880  0.00  0.00    +0.037 A 
ATOM     16  C   UNL     1     -38.922  42.360   3.118  0.00  0.00    +0.013 A 
ATOM     17  C   UNL     1     -39.615  42.350   4.382  0.00  0.00    +0.005 A 
ATOM     18  C   UNL     1     -41.044  42.044   4.413  0.00  0.00    -0.033 A 
ATOM     28  C   UNL     1     -41.739  41.760   3.168  0.00  0.00    +0.005 A 
ATOM     29  C   UNL     1     -41.062  41.768   1.928  0.00  0.00    +0.013 A 
BRANCH  18  19
ATOM     19  C   UNL     1     -41.859  41.990   5.718  0.00  0.00    +0.119 C 
BRANCH  19  20
ATOM     20  N   UNL     1     -41.627  40.825   6.622  0.00  0.00    -0.302 NA
ATOM     21  C   UNL     1     -42.278  41.022   7.993  0.00  0.00    +0.066 C 
ATOM     22  C   UNL     1     -42.045  39.784   8.919  0.00  0.00    -0.064 C 
ATOM     23  N   UNL     1     -40.542  39.536   9.063  0.00  0.00    +0.379 N 
ATOM     24  C   UNL     1     -40.317  38.407   9.979  0.00  0.00    -0.096 C 
ATOM     25  H   UNL     1     -40.093  40.444   9.528  0.00  0.00    -0.082 HD
ATOM     26  C   UNL     1     -39.886  39.341   7.704  0.00  0.00    -0.064 C 
ATOM     27  C   UNL     1     -40.149  40.564   6.782  0.00  0.00    +0.066 C 
ENDBRANCH  19  20
ENDBRANCH  18  19
ENDBRANCH  14  15
ENDBRANCH  12  13
TORSDOF 6
ENDMDL
