MODEL 1
REMARK VINA RESULT:      -9.3      0.000      0.000
REMARK  Name = C:\Users\Docking\Desktop\test protocol\1iep_ligandH.pdb
REMARK  8 active torsions:
REMARK  status: ('A' for Active; 'I' for Inactive)
REMARK    1  A    between atoms: _5  and  _11
REMARK    2  A    between atoms: _19  and  _21
REMARK    3  A    between atoms: _22  and  _66
REMARK    4  A    between atoms: _27  and  _30
REMARK    5  A    between atoms: _32  and  _33
REMARK    6  A    between atoms: _38  and  _43
REMARK    7  A    between atoms: _43  and  _46
REMARK    8  A    between atoms: _53  and  _55
REMARK                            x       y       z     vdW  Elec       q    Type
REMARK                         _______ _______ _______ _____ _____    ______ ____
ROOT
ATOM     10  C   UNL     1      13.297  12.248  26.064  0.00  0.00    +0.038 A 
ATOM     11  C   UNL     1      14.107  11.084  26.072  0.00  0.00    +0.047 A 
ATOM     12  C   UNL     1      14.433  10.385  24.839  0.00  0.00    +0.035 A 
ATOM     32  C   UNL     1      13.919  10.901  23.614  0.00  0.00    +0.024 A 
ATOM     33  C   UNL     1      13.093  12.083  23.587  0.00  0.00    +0.007 A 
ATOM     34  C   UNL     1      12.766  12.775  24.801  0.00  0.00    -0.029 A 
ATOM     35  C   UNL     1      11.870  14.032  24.714  0.00  0.00    +0.045 C 
ENDROOT
BRANCH  10   9
ATOM      4  C   UNL     1      14.144  15.610  29.383  0.00  0.00    +0.077 A 
ATOM      5  C   UNL     1      15.258  16.138  28.649  0.00  0.00    +0.048 A 
ATOM      6  C   UNL     1      15.585  15.511  27.426  0.00  0.00    +0.116 A 
ATOM      7  N   UNL     1      14.846  14.437  26.979  0.00  0.00    -0.223 NA
ATOM      8  C   UNL     1      13.778  13.952  27.712  0.00  0.00    +0.220 A 
ATOM      9  N   UNL     1      13.016  12.879  27.278  0.00  0.00    -0.283 N 
ATOM     36  H   UNL     1      12.241  12.546  27.851  0.00  0.00    +0.155 HD
ATOM     37  N   UNL     1      13.447  14.533  28.884  0.00  0.00    -0.214 NA
BRANCH   4   3
ATOM      1  C   UNL     1      11.884  17.071  32.221  0.00  0.00    +0.020 A 
ATOM      2  C   UNL     1      12.286  16.538  30.940  0.00  0.00    +0.013 A 
ATOM      3  C   UNL     1      13.673  16.167  30.690  0.00  0.00    +0.019 A 
ATOM     38  C   UNL     1      14.636  16.348  31.767  0.00  0.00    +0.120 A 
ATOM     39  N   UNL     1      14.219  16.865  32.990  0.00  0.00    -0.263 NA
ATOM     40  C   UNL     1      12.888  17.227  33.241  0.00  0.00    +0.111 A 
ENDBRANCH   4   3
ENDBRANCH  10   9
BRANCH  12  13
ATOM     13  N   UNL     1      15.245   9.194  24.786  0.00  0.00    -0.281 N 
ATOM     14  C   UNL     1      15.559   8.331  25.823  0.00  0.00    +0.248 C 
ATOM     30  O   UNL     1      15.363   8.571  27.005  0.00  0.00    -0.270 OA
ATOM     31  H   UNL     1      15.635   8.959  23.873  0.00  0.00    +0.155 HD
BRANCH  14  15
ATOM     15  C   UNL     1      16.195   7.018  25.501  0.00  0.00    +0.037 A 
ATOM     16  C   UNL     1      16.988   6.835  24.283  0.00  0.00    +0.013 A 
ATOM     17  C   UNL     1      17.577   5.553  23.988  0.00  0.00    +0.005 A 
ATOM     18  C   UNL     1      17.376   4.442  24.916  0.00  0.00    -0.033 A 
ATOM     28  C   UNL     1      16.589   4.652  26.120  0.00  0.00    +0.005 A 
ATOM     29  C   UNL     1      16.009   5.907  26.411  0.00  0.00    +0.013 A 
BRANCH  18  19
ATOM     19  C   UNL     1      17.949   3.034  24.671  0.00  0.00    +0.119 C 
BRANCH  19  20
ATOM     20  N   UNL     1      18.510   2.750  23.316  0.00  0.00    -0.302 NA
ATOM     21  C   UNL     1      17.448   2.202  22.359  0.00  0.00    +0.066 C 
ATOM     22  C   UNL     1      18.047   1.931  20.940  0.00  0.00    -0.064 C 
ATOM     23  N   UNL     1      19.220   0.958  21.062  0.00  0.00    +0.379 N 
ATOM     24  C   UNL     1      19.749   0.657  19.723  0.00  0.00    -0.096 C 
ATOM     25  H   UNL     1      18.828   0.008  21.493  0.00  0.00    -0.082 HD
ATOM     26  C   UNL     1      20.280   1.494  22.014  0.00  0.00    -0.064 C 
ATOM     27  C   UNL     1      19.668   1.787  23.413  0.00  0.00    +0.066 C 
ENDBRANCH  19  20
ENDBRANCH  18  19
ENDBRANCH  14  15
ENDBRANCH  12  13
TORSDOF 6
ENDMDL
MODEL 2
REMARK VINA RESULT:      -9.2      9.685     13.710
REMARK  Name = C:\Users\Docking\Desktop\test protocol\1iep_ligandH.pdb
REMARK  8 active torsions:
REMARK  status: ('A' for Active; 'I' for Inactive)
REMARK    1  A    between atoms: _5  and  _11
REMARK    2  A    between atoms: _19  and  _21
REMARK    3  A    between atoms: _22  and  _66
REMARK    4  A    between atoms: _27  and  _30
REMARK    5  A    between atoms: _32  and  _33
REMARK    6  A    between atoms: _38  and  _43
REMARK    7  A    between atoms: _43  and  _46
REMARK    8  A    between atoms: _53  and  _55
REMARK                            x       y       z     vdW  Elec       q    Type
REMARK                         _______ _______ _______ _____ _____    ______ ____
ROOT
ATOM     10  C   UNL     1      13.531  20.130  23.012  0.00  0.00    +0.038 A 
ATOM     11  C   UNL     1      13.380  19.607  24.321  0.00  0.00    +0.047 A 
ATOM     12  C   UNL     1      12.068  19.265  24.848  0.00  0.00    +0.035 A 
ATOM     32  C   UNL     1      10.931  19.466  24.013  0.00  0.00    +0.024 A 
ATOM     33  C   UNL     1      11.066  19.998  22.679  0.00  0.00    +0.007 A 
ATOM     34  C   UNL     1      12.358  20.339  22.155  0.00  0.00    -0.029 A 
ATOM     35  C   UNL     1      12.443  20.911  20.721  0.00  0.00    +0.045 C 
ENDROOT
BRANCH  10   9
ATOM      4  C   UNL     1      17.657  18.959  20.856  0.00  0.00    +0.077 A 
ATOM      5  C   UNL     1      17.230  17.607  20.642  0.00  0.00    +0.048 A 
ATOM      6  C   UNL     1      15.944  17.251  21.108  0.00  0.00    +0.116 A 
ATOM      7  N   UNL     1      15.153  18.186  21.739  0.00  0.00    -0.223 NA
ATOM      8  C   UNL     1      15.596  19.482  21.931  0.00  0.00    +0.220 A 
ATOM      9  N   UNL     1      14.815  20.441  22.556  0.00  0.00    -0.283 N 
ATOM     36  H   UNL     1      15.180  21.384  22.685  0.00  0.00    +0.155 HD
ATOM     37  N   UNL     1      16.821  19.846  21.496  0.00  0.00    -0.214 NA
BRANCH   4   3
ATOM      1  C   UNL     1      21.242  20.524  20.873  0.00  0.00    +0.020 A 
ATOM      2  C   UNL     1      19.972  20.025  21.348  0.00  0.00    +0.013 A 
ATOM      3  C   UNL     1      18.987  19.489  20.417  0.00  0.00    +0.019 A 
ATOM     38  C   UNL     1      19.321  19.470  19.001  0.00  0.00    +0.120 A 
ATOM     39  N   UNL     1      20.552  19.958  18.573  0.00  0.00    -0.263 NA
ATOM     40  C   UNL     1      21.507  20.478  19.459  0.00  0.00    +0.111 A 
ENDBRANCH   4   3
ENDBRANCH  10   9
BRANCH  12  13
ATOM     13  N   UNL     1      11.852  18.738  26.173  0.00  0.00    -0.281 N 
ATOM     14  C   UNL     1      12.115  17.458  26.634  0.00  0.00    +0.248 C 
ATOM     30  O   UNL     1      12.378  16.506  25.915  0.00  0.00    -0.270 OA
ATOM     31  H   UNL     1      11.458  19.388  26.854  0.00  0.00    +0.155 HD
BRANCH  14  15
ATOM     15  C   UNL     1      12.063  17.196  28.104  0.00  0.00    +0.037 A 
ATOM     16  C   UNL     1      12.549  15.934  28.668  0.00  0.00    +0.013 A 
ATOM     17  C   UNL     1      12.472  15.699  30.089  0.00  0.00    +0.005 A 
ATOM     18  C   UNL     1      11.907  16.731  30.955  0.00  0.00    -0.033 A 
ATOM     28  C   UNL     1      11.438  17.976  30.370  0.00  0.00    +0.005 A 
ATOM     29  C   UNL     1      11.511  18.209  28.978  0.00  0.00    +0.013 A 
BRANCH  18  19
ATOM     19  C   UNL     1      11.766  16.558  32.479  0.00  0.00    +0.119 C 
BRANCH  19  20
ATOM     20  N   UNL     1      12.882  17.067  33.331  0.00  0.00    -0.302 NA
ATOM     21  C   UNL     1      12.675  18.530  33.736  0.00  0.00    +0.066 C 
ATOM     22  C   UNL     1      13.840  19.039  34.645  0.00  0.00    -0.064 C 
ATOM     23  N   UNL     1      15.170  18.864  33.911  0.00  0.00    +0.379 N 
ATOM     24  C   UNL     1      16.262  19.396  34.740  0.00  0.00    -0.096 C 
ATOM     25  H   UNL     1      15.125  19.474  32.979  0.00  0.00    -0.082 HD
ATOM     26  C   UNL     1      15.383  17.413  33.503  0.00  0.00    -0.064 C 
ATOM     27  C   UNL     1      14.205  16.908  32.624  0.00  0.00    +0.066 C 
ENDBRANCH  19  20
ENDBRANCH  18  19
ENDBRANCH  14  15
ENDBRANCH  12  13
TORSDOF 6
ENDMDL
MODEL 3
REMARK VINA RESULT:      -9.1      2.795     13.358
REMARK  Name = C:\Users\Docking\Desktop\test protocol\1iep_ligandH.pdb
REMARK  8 active torsions:
REMARK  status: ('A' for Active; 'I' for Inactive)
REMARK    1  A    between atoms: _5  and  _11
REMARK    2  A    between atoms: _19  and  _21
REMARK    3  A    between atoms: _22  and  _66
REMARK    4  A    between atoms: _27  and  _30
REMARK    5  A    between atoms: _32  and  _33
REMARK    6  A    between atoms: _38  and  _43
REMARK    7  A    between atoms: _43  and  _46
REMARK    8  A    between atoms: _53  and  _55
REMARK                            x       y       z     vdW  Elec       q    Type
REMARK                         _______ _______ _______ _____ _____    ______ ____
ROOT
ATOM     10  C   UNL     1      16.106   5.974  27.241  0.00  0.00    +0.038 A 
ATOM     11  C   UNL     1      15.564   7.257  26.975  0.00  0.00    +0.047 A 
ATOM     12  C   UNL     1      15.396   8.238  28.036  0.00  0.00    +0.035 A 
ATOM     32  C   UNL     1      15.793   7.879  29.357  0.00  0.00    +0.024 A 
ATOM     33  C   UNL     1      16.345   6.579  29.645  0.00  0.00    +0.007 A 
ATOM     34  C   UNL     1      16.511   5.606  28.603  0.00  0.00    -0.029 A 
ATOM     35  C   UNL     1      17.102   4.225  28.972  0.00  0.00    +0.045 C 
ENDROOT
BRANCH  10   9
ATOM      4  C   UNL     1      18.641   3.974  23.689  0.00  0.00    +0.077 A 
ATOM      5  C   UNL     1      19.773   4.818  23.942  0.00  0.00    +0.048 A 
ATOM      6  C   UNL     1      19.660   5.758  24.991  0.00  0.00    +0.116 A 
ATOM      7  N   UNL     1      18.497   5.839  25.725  0.00  0.00    -0.223 NA
ATOM      8  C   UNL     1      17.423   5.012  25.454  0.00  0.00    +0.220 A 
ATOM      9  N   UNL     1      16.246   5.071  26.184  0.00  0.00    -0.283 N 
ATOM     36  H   UNL     1      15.474   4.448  25.948  0.00  0.00    +0.155 HD
ATOM     37  N   UNL     1      17.505   4.107  24.456  0.00  0.00    -0.214 NA
BRANCH   4   3
ATOM      1  C   UNL     1      17.391   1.399  21.023  0.00  0.00    +0.020 A 
ATOM      2  C   UNL     1      17.367   2.407  22.057  0.00  0.00    +0.013 A 
ATOM      3  C   UNL     1      18.608   2.929  22.617  0.00  0.00    +0.019 A 
ATOM     38  C   UNL     1      19.865   2.406  22.104  0.00  0.00    +0.120 A 
ATOM     39  N   UNL     1      19.856   1.434  21.108  0.00  0.00    -0.263 NA
ATOM     40  C   UNL     1      18.669   0.923  20.563  0.00  0.00    +0.111 A 
ENDBRANCH   4   3
ENDBRANCH  10   9
BRANCH  12  13
ATOM     13  N   UNL     1      14.843   9.553  27.827  0.00  0.00    -0.281 N 
ATOM     14  C   UNL     1      15.500  10.693  27.393  0.00  0.00    +0.248 C 
ATOM     30  O   UNL     1      16.715  10.807  27.323  0.00  0.00    -0.270 OA
ATOM     31  H   UNL     1      13.847   9.656  28.022  0.00  0.00    +0.155 HD
BRANCH  14  15
ATOM     15  C   UNL     1      14.690  11.885  26.994  0.00  0.00    +0.037 A 
ATOM     16  C   UNL     1      14.915  13.196  27.606  0.00  0.00    +0.013 A 
ATOM     17  C   UNL     1      14.109  14.325  27.214  0.00  0.00    +0.005 A 
ATOM     18  C   UNL     1      13.070  14.147  26.203  0.00  0.00    -0.033 A 
ATOM     28  C   UNL     1      12.872  12.836  25.608  0.00  0.00    +0.005 A 
ATOM     29  C   UNL     1      13.660  11.727  25.990  0.00  0.00    +0.013 A 
BRANCH  18  19
ATOM     19  C   UNL     1      12.149  15.291  25.739  0.00  0.00    +0.119 C 
BRANCH  19  20
ATOM     20  N   UNL     1      12.339  16.625  26.382  0.00  0.00    -0.302 NA
ATOM     21  C   UNL     1      11.006  17.280  26.753  0.00  0.00    +0.066 C 
ATOM     22  C   UNL     1      11.225  18.665  27.444  0.00  0.00    -0.064 C 
ATOM     23  N   UNL     1      12.034  19.573  26.516  0.00  0.00    +0.379 N 
ATOM     24  C   UNL     1      12.192  20.895  27.139  0.00  0.00    -0.096 C 
ATOM     25  H   UNL     1      11.447  19.708  25.579  0.00  0.00    -0.082 HD
ATOM     26  C   UNL     1      13.361  18.928  26.140  0.00  0.00    -0.064 C 
ATOM     27  C   UNL     1      13.133  17.539  25.481  0.00  0.00    +0.066 C 
ENDBRANCH  19  20
ENDBRANCH  18  19
ENDBRANCH  14  15
ENDBRANCH  12  13
TORSDOF 6
ENDMDL
MODEL 4
REMARK VINA RESULT:      -9.1      5.419     12.584
REMARK  Name = C:\Users\Docking\Desktop\test protocol\1iep_ligandH.pdb
REMARK  8 active torsions:
REMARK  status: ('A' for Active; 'I' for Inactive)
REMARK    1  A    between atoms: _5  and  _11
REMARK    2  A    between atoms: _19  and  _21
REMARK    3  A    between atoms: _22  and  _66
REMARK    4  A    between atoms: _27  and  _30
REMARK    5  A    between atoms: _32  and  _33
REMARK    6  A    between atoms: _38  and  _43
REMARK    7  A    between atoms: _43  and  _46
REMARK    8  A    between atoms: _53  and  _55
REMARK                            x       y       z     vdW  Elec       q    Type
REMARK                         _______ _______ _______ _____ _____    ______ ____
ROOT
ATOM     10  C   UNL     1      15.851   6.373  28.815  0.00  0.00    +0.038 A 
ATOM     11  C   UNL     1      15.498   7.743  28.915  0.00  0.00    +0.047 A 
ATOM     12  C   UNL     1      16.106   8.742  28.050  0.00  0.00    +0.035 A 
ATOM     32  C   UNL     1      17.068   8.310  27.091  0.00  0.00    +0.024 A 
ATOM     33  C   UNL     1      17.440   6.921  26.977  0.00  0.00    +0.007 A 
ATOM     34  C   UNL     1      16.845   5.932  27.830  0.00  0.00    -0.029 A 
ATOM     35  C   UNL     1      17.286   4.459  27.668  0.00  0.00    +0.045 C 
ENDROOT
BRANCH  10   9
ATOM      4  C   UNL     1      15.827   3.591  32.726  0.00  0.00    +0.077 A 
ATOM      5  C   UNL     1      17.163   3.975  33.079  0.00  0.00    +0.048 A 
ATOM      6  C   UNL     1      17.825   4.885  32.224  0.00  0.00    +0.116 A 
ATOM      7  N   UNL     1      17.187   5.369  31.103  0.00  0.00    -0.223 NA
ATOM      8  C   UNL     1      15.899   4.977  30.790  0.00  0.00    +0.220 A 
ATOM      9  N   UNL     1      15.235   5.457  29.671  0.00  0.00    -0.283 N 
ATOM     36  H   UNL     1      14.288   5.138  29.471  0.00  0.00    +0.155 HD
ATOM     37  N   UNL     1      15.246   4.108  31.590  0.00  0.00    -0.214 NA
BRANCH   4   3
ATOM      1  C   UNL     1      14.625   0.441  34.708  0.00  0.00    +0.020 A 
ATOM      2  C   UNL     1      15.466   1.320  33.930  0.00  0.00    +0.013 A 
ATOM      3  C   UNL     1      14.996   2.641  33.531  0.00  0.00    +0.019 A 
ATOM     38  C   UNL     1      13.659   3.044  33.940  0.00  0.00    +0.120 A 
ATOM     39  N   UNL     1      12.871   2.176  34.687  0.00  0.00    -0.263 NA
ATOM     40  C   UNL     1      13.312   0.902  35.076  0.00  0.00    +0.111 A 
ENDBRANCH   4   3
ENDBRANCH  10   9
BRANCH  12  13
ATOM     13  N   UNL     1      15.793  10.148  28.110  0.00  0.00    -0.281 N 
ATOM     14  C   UNL     1      15.080  10.903  27.193  0.00  0.00    +0.248 C 
ATOM     30  O   UNL     1      14.784  10.525  26.069  0.00  0.00    -0.270 OA
ATOM     31  H   UNL     1      16.139  10.649  28.929  0.00  0.00    +0.155 HD
BRANCH  14  15
ATOM     15  C   UNL     1      14.645  12.281  27.573  0.00  0.00    +0.037 A 
ATOM     16  C   UNL     1      15.484  13.137  28.417  0.00  0.00    +0.013 A 
ATOM     17  C   UNL     1      15.033  14.456  28.784  0.00  0.00    +0.005 A 
ATOM     18  C   UNL     1      13.736  14.928  28.304  0.00  0.00    -0.033 A 
ATOM     28  C   UNL     1      12.927  14.061  27.464  0.00  0.00    +0.005 A 
ATOM     29  C   UNL     1      13.365  12.767  27.104  0.00  0.00    +0.013 A 
BRANCH  18  19
ATOM     19  C   UNL     1      13.166  16.313  28.663  0.00  0.00    +0.119 C 
BRANCH  19  20
ATOM     20  N   UNL     1      12.934  17.269  27.539  0.00  0.00    -0.302 NA
ATOM     21  C   UNL     1      14.176  17.431  26.658  0.00  0.00    +0.066 C 
ATOM     22  C   UNL     1      13.909  18.418  25.475  0.00  0.00    -0.064 C 
ATOM     23  N   UNL     1      13.460  19.770  26.032  0.00  0.00    +0.379 N 
ATOM     24  C   UNL     1      13.264  20.716  24.925  0.00  0.00    -0.096 C 
ATOM     25  H   UNL     1      14.285  20.162  26.671  0.00  0.00    -0.082 HD
ATOM     26  C   UNL     1      12.228  19.617  26.912  0.00  0.00    -0.064 C 
ATOM     27  C   UNL     1      12.494  18.612  28.068  0.00  0.00    +0.066 C 
ENDBRANCH  19  20
ENDBRANCH  18  19
ENDBRANCH  14  15
ENDBRANCH  12  13
TORSDOF 6
ENDMDL
MODEL 5
REMARK VINA RESULT:      -8.9      1.314      2.081
REMARK  Name = C:\Users\Docking\Desktop\test protocol\1iep_ligandH.pdb
REMARK  8 active torsions:
REMARK  status: ('A' for Active; 'I' for Inactive)
REMARK    1  A    between atoms: _5  and  _11
REMARK    2  A    between atoms: _19  and  _21
REMARK    3  A    between atoms: _22  and  _66
REMARK    4  A    between atoms: _27  and  _30
REMARK    5  A    between atoms: _32  and  _33
REMARK    6  A    between atoms: _38  and  _43
REMARK    7  A    between atoms: _43  and  _46
REMARK    8  A    between atoms: _53  and  _55
REMARK                            x       y       z     vdW  Elec       q    Type
REMARK                         _______ _______ _______ _____ _____    ______ ____
ROOT
ATOM     10  C   UNL     1      13.253  12.356  25.863  0.00  0.00    +0.038 A 
ATOM     11  C   UNL     1      14.007  11.156  25.903  0.00  0.00    +0.047 A 
ATOM     12  C   UNL     1      14.418  10.484  24.680  0.00  0.00    +0.035 A 
ATOM     32  C   UNL     1      14.045  11.064  23.432  0.00  0.00    +0.024 A 
ATOM     33  C   UNL     1      13.278  12.283  23.373  0.00  0.00    +0.007 A 
ATOM     34  C   UNL     1      12.868  12.949  24.576  0.00  0.00    -0.029 A 
ATOM     35  C   UNL     1      12.041  14.250  24.453  0.00  0.00    +0.045 C 
ENDROOT
BRANCH  10   9
ATOM      4  C   UNL     1      13.919  15.573  29.362  0.00  0.00    +0.077 A 
ATOM      5  C   UNL     1      15.116  16.076  28.752  0.00  0.00    +0.048 A 
ATOM      6  C   UNL     1      15.530  15.476  27.542  0.00  0.00    +0.116 A 
ATOM      7  N   UNL     1      14.794  14.449  26.992  0.00  0.00    -0.223 NA
ATOM      8  C   UNL     1      13.645  13.986  27.607  0.00  0.00    +0.220 A 
ATOM      9  N   UNL     1      12.885  12.959  27.068  0.00  0.00    -0.283 N 
ATOM     36  H   UNL     1      12.048  12.641  27.556  0.00  0.00    +0.155 HD
ATOM     37  N   UNL     1      13.230  14.541  28.764  0.00  0.00    -0.214 NA
BRANCH   4   3
ATOM      1  C   UNL     1      11.425  16.801  32.115  0.00  0.00    +0.020 A 
ATOM      2  C   UNL     1      11.922  16.282  30.861  0.00  0.00    +0.013 A 
ATOM      3  C   UNL     1      13.352  16.106  30.641  0.00  0.00    +0.019 A 
ATOM     38  C   UNL     1      14.260  16.466  31.719  0.00  0.00    +0.120 A 
ATOM     39  N   UNL     1      13.753  16.965  32.915  0.00  0.00    -0.263 NA
ATOM     40  C   UNL     1      12.379  17.140  33.138  0.00  0.00    +0.111 A 
ENDBRANCH   4   3
ENDBRANCH  10   9
BRANCH  12  13
ATOM     13  N   UNL     1      15.178   9.259  24.658  0.00  0.00    -0.281 N 
ATOM     14  C   UNL     1      15.613   8.508  25.738  0.00  0.00    +0.248 C 
ATOM     30  O   UNL     1      15.598   8.892  26.898  0.00  0.00    -0.270 OA
ATOM     31  H   UNL     1      15.424   8.901  23.735  0.00  0.00    +0.155 HD
BRANCH  14  15
ATOM     15  C   UNL     1      16.157   7.138  25.492  0.00  0.00    +0.037 A 
ATOM     16  C   UNL     1      15.892   6.036  26.421  0.00  0.00    +0.013 A 
ATOM     17  C   UNL     1      16.444   4.729  26.169  0.00  0.00    +0.005 A 
ATOM     18  C   UNL     1      17.265   4.515  24.980  0.00  0.00    -0.033 A 
ATOM     28  C   UNL     1      17.507   5.623  24.072  0.00  0.00    +0.005 A 
ATOM     29  C   UNL     1      16.970   6.907  24.316  0.00  0.00    +0.013 A 
BRANCH  18  19
ATOM     19  C   UNL     1      17.911   3.158  24.643  0.00  0.00    +0.119 C 
BRANCH  19  20
ATOM     20  N   UNL     1      19.403   3.102  24.603  0.00  0.00    -0.302 NA
ATOM     21  C   UNL     1      19.911   1.837  23.906  0.00  0.00    +0.066 C 
ATOM     22  C   UNL     1      21.474   1.805  23.853  0.00  0.00    -0.064 C 
ATOM     23  N   UNL     1      22.031   1.903  25.274  0.00  0.00    +0.379 N 
ATOM     24  C   UNL     1      23.498   1.815  25.232  0.00  0.00    -0.096 C 
ATOM     25  H   UNL     1      21.656   1.022  25.845  0.00  0.00    -0.082 HD
ATOM     26  C   UNL     1      21.528   3.157  25.975  0.00  0.00    -0.064 C 
ATOM     27  C   UNL     1      19.975   3.192  25.996  0.00  0.00    +0.066 C 
ENDBRANCH  19  20
ENDBRANCH  18  19
ENDBRANCH  14  15
ENDBRANCH  12  13
TORSDOF 6
ENDMDL
