MODEL 1
REMARK VINA RESULT:      -8.1      0.000      0.000
REMARK  Name = C:\Users\Docking\Desktop\test protocol\1iep_ligandH.pdb
REMARK  8 active torsions:
REMARK  status: ('A' for Active; 'I' for Inactive)
REMARK    1  A    between atoms: _5  and  _11
REMARK    2  A    between atoms: _19  and  _21
REMARK    3  A    between atoms: _22  and  _66
REMARK    4  A    between atoms: _27  and  _30
REMARK    5  A    between atoms: _32  and  _33
REMARK    6  A    between atoms: _38  and  _43
REMARK    7  A    between atoms: _43  and  _46
REMARK    8  A    between atoms: _53  and  _55
REMARK                            x       y       z     vdW  Elec       q    Type
REMARK                         _______ _______ _______ _____ _____    ______ ____
ROOT
ATOM     10  C   UNL     1      18.020  20.959  26.437  0.00  0.00    +0.038 A 
ATOM     11  C   UNL     1      19.199  20.174  26.364  0.00  0.00    +0.047 A 
ATOM     12  C   UNL     1      20.022  20.161  25.165  0.00  0.00    +0.035 A 
ATOM     32  C   UNL     1      19.616  20.964  24.059  0.00  0.00    +0.024 A 
ATOM     33  C   UNL     1      18.421  21.767  24.115  0.00  0.00    +0.007 A 
ATOM     34  C   UNL     1      17.603  21.782  25.295  0.00  0.00    -0.029 A 
ATOM     35  C   UNL     1      16.329  22.657  25.298  0.00  0.00    +0.045 C 
ENDROOT
BRANCH  10   9
ATOM      4  C   UNL     1      14.405  19.284  29.113  0.00  0.00    +0.077 A 
ATOM      5  C   UNL     1      13.962  18.405  28.070  0.00  0.00    +0.048 A 
ATOM      6  C   UNL     1      14.688  18.419  26.857  0.00  0.00    +0.116 A 
ATOM      7  N   UNL     1      15.774  19.254  26.711  0.00  0.00    -0.223 NA
ATOM      8  C   UNL     1      16.174  20.091  27.736  0.00  0.00    +0.220 A 
ATOM      9  N   UNL     1      17.268  20.933  27.614  0.00  0.00    -0.283 N 
ATOM     36  H   UNL     1      17.526  21.541  28.391  0.00  0.00    +0.155 HD
ATOM     37  N   UNL     1      15.497  20.097  28.903  0.00  0.00    -0.214 NA
BRANCH   4   3
ATOM      1  C   UNL     1      11.722  19.308  31.959  0.00  0.00    +0.020 A 
ATOM      2  C   UNL     1      12.310  19.205  30.643  0.00  0.00    +0.013 A 
ATOM      3  C   UNL     1      13.744  19.380  30.453  0.00  0.00    +0.019 A 
ATOM     38  C   UNL     1      14.562  19.661  31.624  0.00  0.00    +0.120 A 
ATOM     39  N   UNL     1      13.967  19.756  32.878  0.00  0.00    -0.263 NA
ATOM     40  C   UNL     1      12.588  19.590  33.073  0.00  0.00    +0.111 A 
ENDBRANCH   4   3
ENDBRANCH  10   9
BRANCH  12  13
ATOM     13  N   UNL     1      21.225  19.377  25.029  0.00  0.00    -0.281 N 
ATOM     14  C   UNL     1      22.086  18.960  26.031  0.00  0.00    +0.248 C 
ATOM     30  O   UNL     1      22.068  19.380  27.178  0.00  0.00    -0.270 OA
ATOM     31  H   UNL     1      21.471  19.096  24.080  0.00  0.00    +0.155 HD
BRANCH  14  15
ATOM     15  C   UNL     1      23.128  17.938  25.707  0.00  0.00    +0.037 A 
ATOM     16  C   UNL     1      22.783  16.522  25.559  0.00  0.00    +0.013 A 
ATOM     17  C   UNL     1      23.810  15.554  25.263  0.00  0.00    +0.005 A 
ATOM     18  C   UNL     1      25.193  16.001  25.113  0.00  0.00    -0.033 A 
ATOM     28  C   UNL     1      25.506  17.413  25.260  0.00  0.00    +0.005 A 
ATOM     29  C   UNL     1      24.502  18.364  25.551  0.00  0.00    +0.013 A 
BRANCH  18  19
ATOM     19  C   UNL     1      26.356  15.036  24.819  0.00  0.00    +0.119 C 
BRANCH  19  20
ATOM     20  N   UNL     1      27.235  15.359  23.655  0.00  0.00    -0.302 NA
ATOM     21  C   UNL     1      26.836  14.579  22.399  0.00  0.00    +0.066 C 
ATOM     22  C   UNL     1      27.752  14.946  21.186  0.00  0.00    -0.064 C 
ATOM     23  N   UNL     1      29.212  14.673  21.552  0.00  0.00    +0.379 N 
ATOM     24  C   UNL     1      30.070  14.963  20.394  0.00  0.00    -0.096 C 
ATOM     25  H   UNL     1      29.305  13.586  21.780  0.00  0.00    -0.082 HD
ATOM     26  C   UNL     1      29.616  15.443  22.802  0.00  0.00    -0.064 C 
ATOM     27  C   UNL     1      28.681  15.093  23.993  0.00  0.00    +0.066 C 
ENDBRANCH  19  20
ENDBRANCH  18  19
ENDBRANCH  14  15
ENDBRANCH  12  13
TORSDOF 6
ENDMDL
MODEL 2
REMARK VINA RESULT:      -8.1     20.342     26.126
REMARK  Name = C:\Users\Docking\Desktop\test protocol\1iep_ligandH.pdb
REMARK  8 active torsions:
REMARK  status: ('A' for Active; 'I' for Inactive)
REMARK    1  A    between atoms: _5  and  _11
REMARK    2  A    between atoms: _19  and  _21
REMARK    3  A    between atoms: _22  and  _66
REMARK    4  A    between atoms: _27  and  _30
REMARK    5  A    between atoms: _32  and  _33
REMARK    6  A    between atoms: _38  and  _43
REMARK    7  A    between atoms: _43  and  _46
REMARK    8  A    between atoms: _53  and  _55
REMARK                            x       y       z     vdW  Elec       q    Type
REMARK                         _______ _______ _______ _____ _____    ______ ____
ROOT
ATOM     10  C   UNL     1      16.855  34.667  15.227  0.00  0.00    +0.038 A 
ATOM     11  C   UNL     1      16.709  36.048  15.513  0.00  0.00    +0.047 A 
ATOM     12  C   UNL     1      16.154  36.501  16.779  0.00  0.00    +0.035 A 
ATOM     32  C   UNL     1      15.760  35.518  17.733  0.00  0.00    +0.024 A 
ATOM     33  C   UNL     1      15.900  34.109  17.459  0.00  0.00    +0.007 A 
ATOM     34  C   UNL     1      16.445  33.657  16.211  0.00  0.00    -0.029 A 
ATOM     35  C   UNL     1      16.567  32.135  15.969  0.00  0.00    +0.045 C 
ENDROOT
BRANCH  10   9
ATOM      4  C   UNL     1      16.410  33.067  10.724  0.00  0.00    +0.077 A 
ATOM      5  C   UNL     1      14.986  32.949  10.844  0.00  0.00    +0.048 A 
ATOM      6  C   UNL     1      14.407  33.303  12.083  0.00  0.00    +0.116 A 
ATOM      7  N   UNL     1      15.204  33.742  13.119  0.00  0.00    -0.223 NA
ATOM      8  C   UNL     1      16.575  33.842  12.970  0.00  0.00    +0.220 A 
ATOM      9  N   UNL     1      17.394  34.288  13.996  0.00  0.00    -0.283 N 
ATOM     36  H   UNL     1      18.402  34.341  13.849  0.00  0.00    +0.155 HD
ATOM     37  N   UNL     1      17.152  33.508  11.797  0.00  0.00    -0.214 NA
BRANCH   4   3
ATOM      1  C   UNL     1      17.350  31.719   7.174  0.00  0.00    +0.020 A 
ATOM      2  C   UNL     1      16.574  32.016   8.356  0.00  0.00    +0.013 A 
ATOM      3  C   UNL     1      17.168  32.733   9.477  0.00  0.00    +0.019 A 
ATOM     38  C   UNL     1      18.561  33.140   9.368  0.00  0.00    +0.120 A 
ATOM     39  N   UNL     1      19.284  32.839   8.218  0.00  0.00    -0.263 NA
ATOM     40  C   UNL     1      18.723  32.148   7.134  0.00  0.00    +0.111 A 
ENDBRANCH   4   3
ENDBRANCH  10   9
BRANCH  12  13
ATOM     13  N   UNL     1      15.974  37.890  17.121  0.00  0.00    -0.281 N 
ATOM     14  C   UNL     1      16.947  38.866  17.257  0.00  0.00    +0.248 C 
ATOM     30  O   UNL     1      18.147  38.643  17.314  0.00  0.00    -0.270 OA
ATOM     31  H   UNL     1      15.012  38.190  17.282  0.00  0.00    +0.155 HD
BRANCH  14  15
ATOM     15  C   UNL     1      16.525  40.296  17.359  0.00  0.00    +0.037 A 
ATOM     16  C   UNL     1      15.556  40.733  18.367  0.00  0.00    +0.013 A 
ATOM     17  C   UNL     1      15.153  42.116  18.432  0.00  0.00    +0.005 A 
ATOM     18  C   UNL     1      15.723  43.073  17.486  0.00  0.00    -0.033 A 
ATOM     28  C   UNL     1      16.687  42.613  16.500  0.00  0.00    +0.005 A 
ATOM     29  C   UNL     1      17.083  41.259  16.432  0.00  0.00    +0.013 A 
BRANCH  18  19
ATOM     19  C   UNL     1      15.336  44.563  17.470  0.00  0.00    +0.119 C 
BRANCH  19  20
ATOM     20  N   UNL     1      14.057  44.930  16.791  0.00  0.00    -0.302 NA
ATOM     21  C   UNL     1      14.285  45.868  15.602  0.00  0.00    +0.066 C 
ATOM     22  C   UNL     1      12.940  46.223  14.890  0.00  0.00    -0.064 C 
ATOM     23  N   UNL     1      11.982  46.854  15.902  0.00  0.00    +0.379 N 
ATOM     24  C   UNL     1      10.737  47.242  15.223  0.00  0.00    -0.096 C 
ATOM     25  H   UNL     1      12.461  47.784  16.287  0.00  0.00    -0.082 HD
ATOM     26  C   UNL     1      11.751  45.929  17.089  0.00  0.00    -0.064 C 
ATOM     27  C   UNL     1      13.097  45.559  17.771  0.00  0.00    +0.066 C 
ENDBRANCH  19  20
ENDBRANCH  18  19
ENDBRANCH  14  15
ENDBRANCH  12  13
TORSDOF 6
ENDMDL
MODEL 3
REMARK VINA RESULT:      -7.9     20.703     23.492
REMARK  Name = C:\Users\Docking\Desktop\test protocol\1iep_ligandH.pdb
REMARK  8 active torsions:
REMARK  status: ('A' for Active; 'I' for Inactive)
REMARK    1  A    between atoms: _5  and  _11
REMARK    2  A    between atoms: _19  and  _21
REMARK    3  A    between atoms: _22  and  _66
REMARK    4  A    between atoms: _27  and  _30
REMARK    5  A    between atoms: _32  and  _33
REMARK    6  A    between atoms: _38  and  _43
REMARK    7  A    between atoms: _43  and  _46
REMARK    8  A    between atoms: _53  and  _55
REMARK                            x       y       z     vdW  Elec       q    Type
REMARK                         _______ _______ _______ _____ _____    ______ ____
ROOT
ATOM     10  C   UNL     1      -0.653  19.943  10.775  0.00  0.00    +0.038 A 
ATOM     11  C   UNL     1       0.699  20.299  11.013  0.00  0.00    +0.047 A 
ATOM     12  C   UNL     1       1.715  20.122   9.987  0.00  0.00    +0.035 A 
ATOM     32  C   UNL     1       1.318  19.582   8.729  0.00  0.00    +0.024 A 
ATOM     33  C   UNL     1      -0.052  19.214   8.471  0.00  0.00    +0.007 A 
ATOM     34  C   UNL     1      -1.058  19.384   9.480  0.00  0.00    -0.029 A 
ATOM     35  C   UNL     1      -2.510  18.966   9.150  0.00  0.00    +0.045 C 
ENDROOT
BRANCH  10   9
ATOM      4  C   UNL     1      -3.036  18.453  14.667  0.00  0.00    +0.077 A 
ATOM      5  C   UNL     1      -2.383  17.175  14.649  0.00  0.00    +0.048 A 
ATOM      6  C   UNL     1      -1.447  16.939  13.618  0.00  0.00    +0.116 A 
ATOM      7  N   UNL     1      -1.189  17.915  12.680  0.00  0.00    -0.223 NA
ATOM      8  C   UNL     1      -1.837  19.135  12.724  0.00  0.00    +0.220 A 
ATOM      9  N   UNL     1      -1.588  20.134  11.796  0.00  0.00    -0.283 N 
ATOM     36  H   UNL     1      -2.092  21.018  11.858  0.00  0.00    +0.155 HD
ATOM     37  N   UNL     1      -2.737  19.385  13.698  0.00  0.00    -0.214 NA
BRANCH   4   3
ATOM      1  C   UNL     1      -4.703  19.610  18.010  0.00  0.00    +0.020 A 
ATOM      2  C   UNL     1      -3.687  19.230  17.056  0.00  0.00    +0.013 A 
ATOM      3  C   UNL     1      -4.047  18.854  15.695  0.00  0.00    +0.019 A 
ATOM     38  C   UNL     1      -5.455  18.875  15.327  0.00  0.00    +0.120 A 
ATOM     39  N   UNL     1      -6.412  19.244  16.268  0.00  0.00    -0.263 NA
ATOM     40  C   UNL     1      -6.077  19.605  17.582  0.00  0.00    +0.111 A 
ENDBRANCH   4   3
ENDBRANCH  10   9
BRANCH  12  13
ATOM     13  N   UNL     1       3.105  20.457  10.173  0.00  0.00    -0.281 N 
ATOM     14  C   UNL     1       4.035  19.816  10.975  0.00  0.00    +0.248 C 
ATOM     30  O   UNL     1       3.759  18.980  11.822  0.00  0.00    -0.270 OA
ATOM     31  H   UNL     1       3.444  21.265   9.651  0.00  0.00    +0.155 HD
BRANCH  14  15
ATOM     15  C   UNL     1       5.481  20.164  10.823  0.00  0.00    +0.037 A 
ATOM     16  C   UNL     1       6.467  19.158  10.420  0.00  0.00    +0.013 A 
ATOM     17  C   UNL     1       7.858  19.517  10.297  0.00  0.00    +0.005 A 
ATOM     18  C   UNL     1       8.270  20.890  10.576  0.00  0.00    -0.033 A 
ATOM     28  C   UNL     1       7.271  21.869  10.969  0.00  0.00    +0.005 A 
ATOM     29  C   UNL     1       5.907  21.521  11.091  0.00  0.00    +0.013 A 
BRANCH  18  19
ATOM     19  C   UNL     1       9.736  21.356  10.491  0.00  0.00    +0.119 C 
BRANCH  19  20
ATOM     20  N   UNL     1      10.401  21.282   9.156  0.00  0.00    -0.302 NA
ATOM     21  C   UNL     1      11.896  21.602   9.240  0.00  0.00    +0.066 C 
ATOM     22  C   UNL     1      12.580  21.498   7.838  0.00  0.00    -0.064 C 
ATOM     23  N   UNL     1      11.878  22.441   6.860  0.00  0.00    +0.379 N 
ATOM     24  C   UNL     1      12.555  22.388   5.556  0.00  0.00    -0.096 C 
ATOM     25  H   UNL     1      11.985  23.478   7.255  0.00  0.00    -0.082 HD
ATOM     26  C   UNL     1      10.390  22.131   6.772  0.00  0.00    -0.064 C 
ATOM     27  C   UNL     1       9.726  22.209   8.175  0.00  0.00    +0.066 C 
ENDBRANCH  19  20
ENDBRANCH  18  19
ENDBRANCH  14  15
ENDBRANCH  12  13
TORSDOF 6
ENDMDL
MODEL 4
REMARK VINA RESULT:      -7.8     20.547     23.381
REMARK  Name = C:\Users\Docking\Desktop\test protocol\1iep_ligandH.pdb
REMARK  8 active torsions:
REMARK  status: ('A' for Active; 'I' for Inactive)
REMARK    1  A    between atoms: _5  and  _11
REMARK    2  A    between atoms: _19  and  _21
REMARK    3  A    between atoms: _22  and  _66
REMARK    4  A    between atoms: _27  and  _30
REMARK    5  A    between atoms: _32  and  _33
REMARK    6  A    between atoms: _38  and  _43
REMARK    7  A    between atoms: _43  and  _46
REMARK    8  A    between atoms: _53  and  _55
REMARK                            x       y       z     vdW  Elec       q    Type
REMARK                         _______ _______ _______ _____ _____    ______ ____
ROOT
ATOM     10  C   UNL     1      -0.752  19.938  10.687  0.00  0.00    +0.038 A 
ATOM     11  C   UNL     1       0.630  20.227  10.820  0.00  0.00    +0.047 A 
ATOM     12  C   UNL     1       1.552  20.016   9.715  0.00  0.00    +0.035 A 
ATOM     32  C   UNL     1       1.032  19.512   8.487  0.00  0.00    +0.024 A 
ATOM     33  C   UNL     1      -0.370  19.212   8.336  0.00  0.00    +0.007 A 
ATOM     34  C   UNL     1      -1.284  19.416   9.423  0.00  0.00    -0.029 A 
ATOM     35  C   UNL     1      -2.776  19.071   9.205  0.00  0.00    +0.045 C 
ENDROOT
BRANCH  10   9
ATOM      4  C   UNL     1      -2.951  18.486  14.699  0.00  0.00    +0.077 A 
ATOM      5  C   UNL     1      -2.399  17.165  14.593  0.00  0.00    +0.048 A 
ATOM      6  C   UNL     1      -1.561  16.899  13.488  0.00  0.00    +0.116 A 
ATOM      7  N   UNL     1      -1.299  17.887  12.563  0.00  0.00    -0.223 NA
ATOM      8  C   UNL     1      -1.848  19.149  12.694  0.00  0.00    +0.220 A 
ATOM      9  N   UNL     1      -1.593  20.160  11.780  0.00  0.00    -0.283 N 
ATOM     36  H   UNL     1      -2.023  21.076  11.908  0.00  0.00    +0.155 HD
ATOM     37  N   UNL     1      -2.654  19.428  13.740  0.00  0.00    -0.214 NA
BRANCH   4   3
ATOM      1  C   UNL     1      -4.266  19.783  18.146  0.00  0.00    +0.020 A 
ATOM      2  C   UNL     1      -3.353  19.372  17.105  0.00  0.00    +0.013 A 
ATOM      3  C   UNL     1      -3.852  18.922  15.812  0.00  0.00    +0.019 A 
ATOM     38  C   UNL     1      -5.292  18.900  15.603  0.00  0.00    +0.120 A 
ATOM     39  N   UNL     1      -6.147  19.300  16.625  0.00  0.00    -0.263 NA
ATOM     40  C   UNL     1      -5.679  19.734  17.874  0.00  0.00    +0.111 A 
ENDBRANCH   4   3
ENDBRANCH  10   9
BRANCH  12  13
ATOM     13  N   UNL     1       2.967  20.284   9.793  0.00  0.00    -0.281 N 
ATOM     14  C   UNL     1       3.699  21.215   9.075  0.00  0.00    +0.248 C 
ATOM     30  O   UNL     1       3.281  21.816   8.096  0.00  0.00    -0.270 OA
ATOM     31  H   UNL     1       3.493  19.718  10.460  0.00  0.00    +0.155 HD
BRANCH  14  15
ATOM     15  C   UNL     1       5.102  21.511   9.495  0.00  0.00    +0.037 A 
ATOM     16  C   UNL     1       6.094  22.007   8.538  0.00  0.00    +0.013 A 
ATOM     17  C   UNL     1       7.445  22.268   8.966  0.00  0.00    +0.005 A 
ATOM     18  C   UNL     1       7.812  22.035  10.361  0.00  0.00    -0.033 A 
ATOM     28  C   UNL     1       6.807  21.548  11.291  0.00  0.00    +0.005 A 
ATOM     29  C   UNL     1       5.482  21.290  10.874  0.00  0.00    +0.013 A 
BRANCH  18  19
ATOM     19  C   UNL     1       9.236  22.267  10.901  0.00  0.00    +0.119 C 
BRANCH  19  20
ATOM     20  N   UNL     1      10.335  21.455  10.300  0.00  0.00    -0.302 NA
ATOM     21  C   UNL     1      10.847  20.379  11.262  0.00  0.00    +0.066 C 
ATOM     22  C   UNL     1      11.981  19.524  10.609  0.00  0.00    -0.064 C 
ATOM     23  N   UNL     1      13.122  20.445  10.171  0.00  0.00    +0.379 N 
ATOM     24  C   UNL     1      14.215  19.638   9.609  0.00  0.00    -0.096 C 
ATOM     25  H   UNL     1      13.512  20.957  11.081  0.00  0.00    -0.082 HD
ATOM     26  C   UNL     1      12.621  21.519   9.216  0.00  0.00    -0.064 C 
ATOM     27  C   UNL     1      11.474  22.344   9.864  0.00  0.00    +0.066 C 
ENDBRANCH  19  20
ENDBRANCH  18  19
ENDBRANCH  14  15
ENDBRANCH  12  13
TORSDOF 6
ENDMDL
MODEL 5
REMARK VINA RESULT:      -7.8     18.226     20.305
REMARK  Name = C:\Users\Docking\Desktop\test protocol\1iep_ligandH.pdb
REMARK  8 active torsions:
REMARK  status: ('A' for Active; 'I' for Inactive)
REMARK    1  A    between atoms: _5  and  _11
REMARK    2  A    between atoms: _19  and  _21
REMARK    3  A    between atoms: _22  and  _66
REMARK    4  A    between atoms: _27  and  _30
REMARK    5  A    between atoms: _32  and  _33
REMARK    6  A    between atoms: _38  and  _43
REMARK    7  A    between atoms: _43  and  _46
REMARK    8  A    between atoms: _53  and  _55
REMARK                            x       y       z     vdW  Elec       q    Type
REMARK                         _______ _______ _______ _____ _____    ______ ____
ROOT
ATOM     10  C   UNL     1      18.392  30.788  10.439  0.00  0.00    +0.038 A 
ATOM     11  C   UNL     1      17.851  29.479  10.371  0.00  0.00    +0.047 A 
ATOM     12  C   UNL     1      17.745  28.774   9.103  0.00  0.00    +0.035 A 
ATOM     32  C   UNL     1      18.202  29.431   7.924  0.00  0.00    +0.024 A 
ATOM     33  C   UNL     1      18.753  30.762   7.975  0.00  0.00    +0.007 A 
ATOM     34  C   UNL     1      18.859  31.464   9.222  0.00  0.00    -0.029 A 
ATOM     35  C   UNL     1      19.452  32.892   9.217  0.00  0.00    +0.045 C 
ENDROOT
BRANCH  10   9
ATOM      4  C   UNL     1      16.463  33.324  14.029  0.00  0.00    +0.077 A 
ATOM      5  C   UNL     1      15.199  33.424  13.357  0.00  0.00    +0.048 A 
ATOM      6  C   UNL     1      15.089  32.816  12.087  0.00  0.00    +0.116 A 
ATOM      7  N   UNL     1      16.169  32.158  11.539  0.00  0.00    -0.223 NA
ATOM      8  C   UNL     1      17.374  32.081  12.212  0.00  0.00    +0.220 A 
ATOM      9  N   UNL     1      18.471  31.418  11.683  0.00  0.00    -0.283 N 
ATOM     36  H   UNL     1      19.345  31.390  12.208  0.00  0.00    +0.155 HD
ATOM     37  N   UNL     1      17.505  32.655  13.426  0.00  0.00    -0.214 NA
BRANCH   4   3
ATOM      1  C   UNL     1      16.017  34.649  17.682  0.00  0.00    +0.020 A 
ATOM      2  C   UNL     1      15.702  34.075  16.394  0.00  0.00    +0.013 A 
ATOM      3  C   UNL     1      16.735  33.912  15.379  0.00  0.00    +0.019 A 
ATOM     38  C   UNL     1      18.087  34.342  15.701  0.00  0.00    +0.120 A 
ATOM     39  N   UNL     1      18.361  34.892  16.950  0.00  0.00    -0.263 NA
ATOM     40  C   UNL     1      17.375  35.056  17.934  0.00  0.00    +0.111 A 
ENDBRANCH   4   3
ENDBRANCH  10   9
BRANCH  12  13
ATOM     13  N   UNL     1      17.197  27.446   8.971  0.00  0.00    -0.281 N 
ATOM     14  C   UNL     1      17.857  26.236   9.104  0.00  0.00    +0.248 C 
ATOM     30  O   UNL     1      19.072  26.112   9.147  0.00  0.00    -0.270 OA
ATOM     31  H   UNL     1      16.202  27.393   8.753  0.00  0.00    +0.155 HD
BRANCH  14  15
ATOM     15  C   UNL     1      17.051  24.980   9.187  0.00  0.00    +0.037 A 
ATOM     16  C   UNL     1      17.253  24.017  10.273  0.00  0.00    +0.013 A 
ATOM     17  C   UNL     1      16.474  22.805  10.321  0.00  0.00    +0.005 A 
ATOM     18  C   UNL     1      15.484  22.550   9.278  0.00  0.00    -0.033 A 
ATOM     28  C   UNL     1      15.299  23.524   8.215  0.00  0.00    +0.005 A 
ATOM     29  C   UNL     1      16.062  24.713   8.165  0.00  0.00    +0.013 A 
BRANCH  18  19
ATOM     19  C   UNL     1      14.623  21.274   9.237  0.00  0.00    +0.119 C 
BRANCH  19  20
ATOM     20  N   UNL     1      13.166  21.422   9.529  0.00  0.00    -0.302 NA
ATOM     21  C   UNL     1      12.803  20.905  10.924  0.00  0.00    +0.066 C 
ATOM     22  C   UNL     1      11.279  21.089  11.221  0.00  0.00    -0.064 C 
ATOM     23  N   UNL     1      10.463  20.367  10.148  0.00  0.00    +0.379 N 
ATOM     24  C   UNL     1       9.031  20.489  10.456  0.00  0.00    -0.096 C 
ATOM     25  H   UNL     1      10.728  19.285  10.192  0.00  0.00    -0.082 HD
ATOM     26  C   UNL     1      10.819  20.873   8.757  0.00  0.00    -0.064 C 
ATOM     27  C   UNL     1      12.340  20.713   8.483  0.00  0.00    +0.066 C 
ENDBRANCH  19  20
ENDBRANCH  18  19
ENDBRANCH  14  15
ENDBRANCH  12  13
TORSDOF 6
ENDMDL
