MODEL 1
REMARK VINA RESULT:      -7.5      0.000      0.000
REMARK  Name = C:\Users\Docking\Desktop\test protocol\1iep_ligandH.pdb
REMARK  8 active torsions:
REMARK  status: ('A' for Active; 'I' for Inactive)
REMARK    1  A    between atoms: _5  and  _11
REMARK    2  A    between atoms: _19  and  _21
REMARK    3  A    between atoms: _22  and  _66
REMARK    4  A    between atoms: _27  and  _30
REMARK    5  A    between atoms: _32  and  _33
REMARK    6  A    between atoms: _38  and  _43
REMARK    7  A    between atoms: _43  and  _46
REMARK    8  A    between atoms: _53  and  _55
REMARK                            x       y       z     vdW  Elec       q    Type
REMARK                         _______ _______ _______ _____ _____    ______ ____
ROOT
ATOM     10  C   UNL     1      16.718  -7.349  43.027  0.00  0.00    +0.038 A 
ATOM     11  C   UNL     1      17.077  -5.998  43.268  0.00  0.00    +0.047 A 
ATOM     12  C   UNL     1      17.692  -5.187  42.229  0.00  0.00    +0.035 A 
ATOM     32  C   UNL     1      17.924  -5.782  40.955  0.00  0.00    +0.024 A 
ATOM     33  C   UNL     1      17.567  -7.155  40.693  0.00  0.00    +0.007 A 
ATOM     34  C   UNL     1      16.962  -7.961  41.715  0.00  0.00    -0.029 A 
ATOM     35  C   UNL     1      16.606  -9.428  41.381  0.00  0.00    +0.045 C 
ENDROOT
BRANCH  10   9
ATOM      4  C   UNL     1      12.922  -8.684  45.643  0.00  0.00    +0.077 A 
ATOM      5  C   UNL     1      12.038  -7.828  44.905  0.00  0.00    +0.048 A 
ATOM      6  C   UNL     1      12.602  -7.055  43.865  0.00  0.00    +0.116 A 
ATOM      7  N   UNL     1      13.950  -7.140  43.592  0.00  0.00    -0.223 NA
ATOM      8  C   UNL     1      14.774  -7.975  44.324  0.00  0.00    +0.220 A 
ATOM      9  N   UNL     1      16.131  -8.082  44.061  0.00  0.00    -0.283 N 
ATOM     36  H   UNL     1      16.707  -8.704  44.628  0.00  0.00    +0.155 HD
ATOM     37  N   UNL     1      14.261  -8.722  45.323  0.00  0.00    -0.214 NA
BRANCH   4   3
ATOM      1  C   UNL     1      12.905 -10.912  48.858  0.00  0.00    +0.020 A 
ATOM      2  C   UNL     1      13.386 -10.066  47.791  0.00  0.00    +0.013 A 
ATOM      3  C   UNL     1      12.476  -9.564  46.769  0.00  0.00    +0.019 A 
ATOM     38  C   UNL     1      11.073  -9.940  46.857  0.00  0.00    +0.120 A 
ATOM     39  N   UNL     1      10.638 -10.759  47.895  0.00  0.00    -0.263 NA
ATOM     40  C   UNL     1      11.505 -11.249  48.883  0.00  0.00    +0.111 A 
ENDBRANCH   4   3
ENDBRANCH  10   9
BRANCH  12  13
ATOM     13  N   UNL     1      18.085  -3.812  42.417  0.00  0.00    -0.281 N 
ATOM     14  C   UNL     1      19.245  -3.330  43.000  0.00  0.00    +0.248 C 
ATOM     30  O   UNL     1      20.029  -4.011  43.644  0.00  0.00    -0.270 OA
ATOM     31  H   UNL     1      17.427  -3.109  42.079  0.00  0.00    +0.155 HD
BRANCH  14  15
ATOM     15  C   UNL     1      19.575  -1.879  42.860  0.00  0.00    +0.037 A 
ATOM     16  C   UNL     1      18.823  -1.014  41.948  0.00  0.00    +0.013 A 
ATOM     17  C   UNL     1      19.174   0.379  41.818  0.00  0.00    +0.005 A 
ATOM     18  C   UNL     1      20.282   0.914  42.605  0.00  0.00    -0.033 A 
ATOM     28  C   UNL     1      21.008   0.034  43.506  0.00  0.00    +0.005 A 
ATOM     29  C   UNL     1      20.668  -1.331  43.634  0.00  0.00    +0.013 A 
BRANCH  18  19
ATOM     19  C   UNL     1      20.739   2.382  42.515  0.00  0.00    +0.119 C 
BRANCH  19  20
ATOM     20  N   UNL     1      19.682   3.434  42.598  0.00  0.00    -0.302 NA
ATOM     21  C   UNL     1      20.276   4.844  42.637  0.00  0.00    +0.066 C 
ATOM     22  C   UNL     1      19.156   5.933  42.701  0.00  0.00    -0.064 C 
ATOM     23  N   UNL     1      18.275   5.682  43.926  0.00  0.00    +0.379 N 
ATOM     24  C   UNL     1      17.255   6.737  44.021  0.00  0.00    -0.096 C 
ATOM     25  H   UNL     1      18.923   5.756  44.830  0.00  0.00    -0.082 HD
ATOM     26  C   UNL     1      17.682   4.281  43.896  0.00  0.00    -0.064 C 
ATOM     27  C   UNL     1      18.802   3.208  43.803  0.00  0.00    +0.066 C 
ENDBRANCH  19  20
ENDBRANCH  18  19
ENDBRANCH  14  15
ENDBRANCH  12  13
TORSDOF 6
ENDMDL
MODEL 2
REMARK VINA RESULT:      -7.4     23.362     26.666
REMARK  Name = C:\Users\Docking\Desktop\test protocol\1iep_ligandH.pdb
REMARK  8 active torsions:
REMARK  status: ('A' for Active; 'I' for Inactive)
REMARK    1  A    between atoms: _5  and  _11
REMARK    2  A    between atoms: _19  and  _21
REMARK    3  A    between atoms: _22  and  _66
REMARK    4  A    between atoms: _27  and  _30
REMARK    5  A    between atoms: _32  and  _33
REMARK    6  A    between atoms: _38  and  _43
REMARK    7  A    between atoms: _43  and  _46
REMARK    8  A    between atoms: _53  and  _55
REMARK                            x       y       z     vdW  Elec       q    Type
REMARK                         _______ _______ _______ _____ _____    ______ ____
ROOT
ATOM     10  C   UNL     1       8.556   4.099  69.269  0.00  0.00    +0.038 A 
ATOM     11  C   UNL     1       7.951   3.634  68.073  0.00  0.00    +0.047 A 
ATOM     12  C   UNL     1       6.528   3.815  67.830  0.00  0.00    +0.035 A 
ATOM     32  C   UNL     1       5.752   4.477  68.824  0.00  0.00    +0.024 A 
ATOM     33  C   UNL     1       6.350   4.955  70.046  0.00  0.00    +0.007 A 
ATOM     34  C   UNL     1       7.752   4.777  70.293  0.00  0.00    -0.029 A 
ATOM     35  C   UNL     1       8.338   5.304  71.624  0.00  0.00    +0.045 C 
ENDROOT
BRANCH  10   9
ATOM      4  C   UNL     1      13.147   5.140  68.336  0.00  0.00    +0.077 A 
ATOM      5  C   UNL     1      12.786   6.152  67.385  0.00  0.00    +0.048 A 
ATOM      6  C   UNL     1      11.408   6.369  67.160  0.00  0.00    +0.116 A 
ATOM      7  N   UNL     1      10.470   5.623  67.841  0.00  0.00    -0.223 NA
ATOM      8  C   UNL     1      10.852   4.654  68.749  0.00  0.00    +0.220 A 
ATOM      9  N   UNL     1       9.926   3.898  69.451  0.00  0.00    -0.283 N 
ATOM     36  H   UNL     1      10.248   3.187  70.107  0.00  0.00    +0.155 HD
ATOM     37  N   UNL     1      12.162   4.427  68.981  0.00  0.00    -0.214 NA
BRANCH   4   3
ATOM      1  C   UNL     1      17.035   5.293  68.740  0.00  0.00    +0.020 A 
ATOM      2  C   UNL     1      15.687   5.671  68.381  0.00  0.00    +0.013 A 
ATOM      3  C   UNL     1      14.562   4.797  68.685  0.00  0.00    +0.019 A 
ATOM     38  C   UNL     1      14.836   3.536  69.358  0.00  0.00    +0.120 A 
ATOM     39  N   UNL     1      16.144   3.197  69.690  0.00  0.00    -0.263 NA
ATOM     40  C   UNL     1      17.235   4.030  69.401  0.00  0.00    +0.111 A 
ENDBRANCH   4   3
ENDBRANCH  10   9
BRANCH  12  13
ATOM     13  N   UNL     1       5.858   3.357  66.638  0.00  0.00    -0.281 N 
ATOM     14  C   UNL     1       5.261   4.122  65.649  0.00  0.00    +0.248 C 
ATOM     30  O   UNL     1       5.026   5.317  65.747  0.00  0.00    -0.270 OA
ATOM     31  H   UNL     1       5.818   2.346  66.508  0.00  0.00    +0.155 HD
BRANCH  14  15
ATOM     15  C   UNL     1       4.854   3.461  64.372  0.00  0.00    +0.037 A 
ATOM     16  C   UNL     1       3.717   3.954  63.590  0.00  0.00    +0.013 A 
ATOM     17  C   UNL     1       3.334   3.287  62.371  0.00  0.00    +0.005 A 
ATOM     18  C   UNL     1       4.092   2.120  61.925  0.00  0.00    -0.033 A 
ATOM     28  C   UNL     1       5.219   1.656  62.717  0.00  0.00    +0.005 A 
ATOM     29  C   UNL     1       5.596   2.306  63.913  0.00  0.00    +0.013 A 
BRANCH  18  19
ATOM     19  C   UNL     1       3.742   1.334  60.647  0.00  0.00    +0.119 C 
BRANCH  19  20
ATOM     20  N   UNL     1       3.703   2.097  59.364  0.00  0.00    -0.302 NA
ATOM     21  C   UNL     1       3.206   1.237  58.199  0.00  0.00    +0.066 C 
ATOM     22  C   UNL     1       3.150   2.057  56.869  0.00  0.00    -0.064 C 
ATOM     23  N   UNL     1       4.537   2.628  56.567  0.00  0.00    +0.379 N 
ATOM     24  C   UNL     1       4.502   3.352  55.288  0.00  0.00    -0.096 C 
ATOM     25  H   UNL     1       5.238   1.770  56.452  0.00  0.00    -0.082 HD
ATOM     26  C   UNL     1       5.040   3.483  57.722  0.00  0.00    -0.064 C 
ATOM     27  C   UNL     1       5.063   2.667  59.044  0.00  0.00    +0.066 C 
ENDBRANCH  19  20
ENDBRANCH  18  19
ENDBRANCH  14  15
ENDBRANCH  12  13
TORSDOF 6
ENDMDL
MODEL 3
REMARK VINA RESULT:      -7.4     23.077     27.915
REMARK  Name = C:\Users\Docking\Desktop\test protocol\1iep_ligandH.pdb
REMARK  8 active torsions:
REMARK  status: ('A' for Active; 'I' for Inactive)
REMARK    1  A    between atoms: _5  and  _11
REMARK    2  A    between atoms: _19  and  _21
REMARK    3  A    between atoms: _22  and  _66
REMARK    4  A    between atoms: _27  and  _30
REMARK    5  A    between atoms: _32  and  _33
REMARK    6  A    between atoms: _38  and  _43
REMARK    7  A    between atoms: _43  and  _46
REMARK    8  A    between atoms: _53  and  _55
REMARK                            x       y       z     vdW  Elec       q    Type
REMARK                         _______ _______ _______ _____ _____    ______ ____
ROOT
ATOM     10  C   UNL     1      14.736   3.418  68.397  0.00  0.00    +0.038 A 
ATOM     11  C   UNL     1      14.721   2.000  68.417  0.00  0.00    +0.047 A 
ATOM     12  C   UNL     1      13.474   1.263  68.553  0.00  0.00    +0.035 A 
ATOM     32  C   UNL     1      12.261   2.002  68.663  0.00  0.00    +0.024 A 
ATOM     33  C   UNL     1      12.258   3.444  68.645  0.00  0.00    +0.007 A 
ATOM     34  C   UNL     1      13.485   4.177  68.514  0.00  0.00    -0.029 A 
ATOM     35  C   UNL     1      13.423   5.722  68.508  0.00  0.00    +0.045 C 
ENDROOT
BRANCH  10   9
ATOM      4  C   UNL     1      18.553   5.670  70.242  0.00  0.00    +0.077 A 
ATOM      5  C   UNL     1      18.050   5.551  71.580  0.00  0.00    +0.048 A 
ATOM      6  C   UNL     1      16.802   4.910  71.750  0.00  0.00    +0.116 A 
ATOM      7  N   UNL     1      16.117   4.428  70.656  0.00  0.00    -0.223 NA
ATOM      8  C   UNL     1      16.630   4.560  69.378  0.00  0.00    +0.220 A 
ATOM      9  N   UNL     1      15.962   4.075  68.265  0.00  0.00    -0.283 N 
ATOM     36  H   UNL     1      16.369   4.199  67.338  0.00  0.00    +0.155 HD
ATOM     37  N   UNL     1      17.818   5.169  69.190  0.00  0.00    -0.214 NA
BRANCH   4   3
ATOM      1  C   UNL     1      21.535   7.239  68.256  0.00  0.00    +0.020 A 
ATOM      2  C   UNL     1      20.263   6.611  68.531  0.00  0.00    +0.013 A 
ATOM      3  C   UNL     1      19.858   6.318  69.900  0.00  0.00    +0.019 A 
ATOM     38  C   UNL     1      20.770   6.677  70.976  0.00  0.00    +0.120 A 
ATOM     39  N   UNL     1      21.988   7.280  70.680  0.00  0.00    -0.263 NA
ATOM     40  C   UNL     1      22.390   7.565  69.367  0.00  0.00    +0.111 A 
ENDBRANCH   4   3
ENDBRANCH  10   9
BRANCH  12  13
ATOM     13  N   UNL     1      13.398  -0.177  68.588  0.00  0.00    -0.281 N 
ATOM     14  C   UNL     1      12.433  -0.992  68.019  0.00  0.00    +0.248 C 
ATOM     30  O   UNL     1      11.368  -0.594  67.572  0.00  0.00    -0.270 OA
ATOM     31  H   UNL     1      14.146  -0.652  69.093  0.00  0.00    +0.155 HD
BRANCH  14  15
ATOM     15  C   UNL     1      12.682  -2.464  67.949  0.00  0.00    +0.037 A 
ATOM     16  C   UNL     1      11.615  -3.429  68.227  0.00  0.00    +0.013 A 
ATOM     17  C   UNL     1      11.887  -4.844  68.169  0.00  0.00    +0.005 A 
ATOM     18  C   UNL     1      13.232  -5.302  67.830  0.00  0.00    -0.033 A 
ATOM     28  C   UNL     1      14.270  -4.323  67.554  0.00  0.00    +0.005 A 
ATOM     29  C   UNL     1      14.008  -2.935  67.611  0.00  0.00    +0.013 A 
BRANCH  18  19
ATOM     19  C   UNL     1      13.617  -6.792  67.766  0.00  0.00    +0.119 C 
BRANCH  19  20
ATOM     20  N   UNL     1      14.667  -7.185  66.780  0.00  0.00    -0.302 NA
ATOM     21  C   UNL     1      14.114  -8.107  65.690  0.00  0.00    +0.066 C 
ATOM     22  C   UNL     1      15.221  -8.490  64.654  0.00  0.00    -0.064 C 
ATOM     23  N   UNL     1      16.391  -9.154  65.383  0.00  0.00    +0.379 N 
ATOM     24  C   UNL     1      17.407  -9.567  64.404  0.00  0.00    -0.096 C 
ATOM     25  H   UNL     1      16.002 -10.074  65.877  0.00  0.00    -0.082 HD
ATOM     26  C   UNL     1      16.944  -8.244  66.470  0.00  0.00    -0.064 C 
ATOM     27  C   UNL     1      15.830  -7.846  67.478  0.00  0.00    +0.066 C 
ENDBRANCH  19  20
ENDBRANCH  18  19
ENDBRANCH  14  15
ENDBRANCH  12  13
TORSDOF 6
ENDMDL
MODEL 4
REMARK VINA RESULT:      -7.3      2.617     13.381
REMARK  Name = C:\Users\Docking\Desktop\test protocol\1iep_ligandH.pdb
REMARK  8 active torsions:
REMARK  status: ('A' for Active; 'I' for Inactive)
REMARK    1  A    between atoms: _5  and  _11
REMARK    2  A    between atoms: _19  and  _21
REMARK    3  A    between atoms: _22  and  _66
REMARK    4  A    between atoms: _27  and  _30
REMARK    5  A    between atoms: _32  and  _33
REMARK    6  A    between atoms: _38  and  _43
REMARK    7  A    between atoms: _43  and  _46
REMARK    8  A    between atoms: _53  and  _55
REMARK                            x       y       z     vdW  Elec       q    Type
REMARK                         _______ _______ _______ _____ _____    ______ ____
ROOT
ATOM     10  C   UNL     1      17.463  -4.865  42.029  0.00  0.00    +0.038 A 
ATOM     11  C   UNL     1      16.953  -5.543  43.165  0.00  0.00    +0.047 A 
ATOM     12  C   UNL     1      16.754  -6.984  43.156  0.00  0.00    +0.035 A 
ATOM     32  C   UNL     1      17.089  -7.704  41.972  0.00  0.00    +0.024 A 
ATOM     33  C   UNL     1      17.608  -7.031  40.807  0.00  0.00    +0.007 A 
ATOM     34  C   UNL     1      17.803  -5.609  40.810  0.00  0.00    -0.029 A 
ATOM     35  C   UNL     1      18.356  -4.939  39.531  0.00  0.00    +0.045 C 
ENDROOT
BRANCH  10   9
ATOM      4  C   UNL     1      19.985  -0.962  43.231  0.00  0.00    +0.077 A 
ATOM      5  C   UNL     1      21.040  -1.748  43.803  0.00  0.00    +0.048 A 
ATOM      6  C   UNL     1      20.892  -3.153  43.775  0.00  0.00    +0.116 A 
ATOM      7  N   UNL     1      19.768  -3.719  43.212  0.00  0.00    -0.223 NA
ATOM      8  C   UNL     1      18.768  -2.932  42.671  0.00  0.00    +0.220 A 
ATOM      9  N   UNL     1      17.633  -3.480  42.093  0.00  0.00    -0.283 N 
ATOM     36  H   UNL     1      16.915  -2.866  41.711  0.00  0.00    +0.155 HD
ATOM     37  N   UNL     1      18.886  -1.588  42.687  0.00  0.00    -0.214 NA
BRANCH   4   3
ATOM      1  C   UNL     1      19.104   2.800  43.841  0.00  0.00    +0.020 A 
ATOM      2  C   UNL     1      19.049   1.358  43.921  0.00  0.00    +0.013 A 
ATOM      3  C   UNL     1      19.997   0.534  43.183  0.00  0.00    +0.019 A 
ATOM     38  C   UNL     1      20.998   1.205  42.366  0.00  0.00    +0.120 A 
ATOM     39  N   UNL     1      21.026   2.595  42.307  0.00  0.00    -0.263 NA
ATOM     40  C   UNL     1      20.117   3.398  43.012  0.00  0.00    +0.111 A 
ENDBRANCH   4   3
ENDBRANCH  10   9
BRANCH  12  13
ATOM     13  N   UNL     1      16.232  -7.726  44.276  0.00  0.00    -0.281 N 
ATOM     14  C   UNL     1      15.016  -8.382  44.371  0.00  0.00    +0.248 C 
ATOM     30  O   UNL     1      14.096  -8.251  43.577  0.00  0.00    -0.270 OA
ATOM     31  H   UNL     1      16.832  -7.773  45.100  0.00  0.00    +0.155 HD
BRANCH  14  15
ATOM     15  C   UNL     1      14.783  -9.308  45.521  0.00  0.00    +0.037 A 
ATOM     16  C   UNL     1      15.083 -10.738  45.419  0.00  0.00    +0.013 A 
ATOM     17  C   UNL     1      14.832 -11.612  46.537  0.00  0.00    +0.005 A 
ATOM     18  C   UNL     1      14.279 -11.056  47.770  0.00  0.00    -0.033 A 
ATOM     28  C   UNL     1      13.995  -9.632  47.846  0.00  0.00    +0.005 A 
ATOM     29  C   UNL     1      14.239  -8.773  46.751  0.00  0.00    +0.013 A 
BRANCH  18  19
ATOM     19  C   UNL     1      13.960 -11.917  49.007  0.00  0.00    +0.119 C 
BRANCH  19  20
ATOM     20  N   UNL     1      13.704 -13.371  48.780  0.00  0.00    -0.302 NA
ATOM     21  C   UNL     1      12.277 -13.633  48.290  0.00  0.00    +0.066 C 
ATOM     22  C   UNL     1      12.033 -15.156  48.036  0.00  0.00    -0.064 C 
ATOM     23  N   UNL     1      12.317 -15.937  49.321  0.00  0.00    +0.379 N 
ATOM     24  C   UNL     1      12.033 -17.362  49.102  0.00  0.00    -0.096 C 
ATOM     25  H   UNL     1      11.613 -15.567  50.103  0.00  0.00    -0.082 HD
ATOM     26  C   UNL     1      13.733 -15.679  49.816  0.00  0.00    -0.064 C 
ATOM     27  C   UNL     1      13.974 -14.160  50.037  0.00  0.00    +0.066 C 
ENDBRANCH  19  20
ENDBRANCH  18  19
ENDBRANCH  14  15
ENDBRANCH  12  13
TORSDOF 6
ENDMDL
MODEL 5
REMARK VINA RESULT:      -7.3     22.649     27.620
REMARK  Name = C:\Users\Docking\Desktop\test protocol\1iep_ligandH.pdb
REMARK  8 active torsions:
REMARK  status: ('A' for Active; 'I' for Inactive)
REMARK    1  A    between atoms: _5  and  _11
REMARK    2  A    between atoms: _19  and  _21
REMARK    3  A    between atoms: _22  and  _66
REMARK    4  A    between atoms: _27  and  _30
REMARK    5  A    between atoms: _32  and  _33
REMARK    6  A    between atoms: _38  and  _43
REMARK    7  A    between atoms: _43  and  _46
REMARK    8  A    between atoms: _53  and  _55
REMARK                            x       y       z     vdW  Elec       q    Type
REMARK                         _______ _______ _______ _____ _____    ______ ____
ROOT
ATOM     10  C   UNL     1      13.848   2.507  68.493  0.00  0.00    +0.038 A 
ATOM     11  C   UNL     1      14.179   1.236  67.957  0.00  0.00    +0.047 A 
ATOM     12  C   UNL     1      13.208   0.153  67.933  0.00  0.00    +0.035 A 
ATOM     32  C   UNL     1      11.908   0.401  68.462  0.00  0.00    +0.024 A 
ATOM     33  C   UNL     1      11.555   1.686  69.012  0.00  0.00    +0.007 A 
ATOM     34  C   UNL     1      12.509   2.757  69.039  0.00  0.00    -0.029 A 
ATOM     35  C   UNL     1      12.078   4.113  69.646  0.00  0.00    +0.045 C 
ENDROOT
BRANCH  10   9
ATOM      4  C   UNL     1      17.635   4.738  70.421  0.00  0.00    +0.077 A 
ATOM      5  C   UNL     1      17.665   3.845  71.543  0.00  0.00    +0.048 A 
ATOM      6  C   UNL     1      16.684   2.829  71.590  0.00  0.00    +0.116 A 
ATOM      7  N   UNL     1      15.748   2.724  70.584  0.00  0.00    -0.223 NA
ATOM      8  C   UNL     1      15.746   3.603  69.516  0.00  0.00    +0.220 A 
ATOM      9  N   UNL     1      14.819   3.511  68.489  0.00  0.00    -0.283 N 
ATOM     36  H   UNL     1      14.847   4.183  67.723  0.00  0.00    +0.155 HD
ATOM     37  N   UNL     1      16.672   4.582  69.449  0.00  0.00    -0.214 NA
BRANCH   4   3
ATOM      1  C   UNL     1      20.080   7.321  68.791  0.00  0.00    +0.020 A 
ATOM      2  C   UNL     1      19.143   6.228  68.923  0.00  0.00    +0.013 A 
ATOM      3  C   UNL     1      18.608   5.860  70.227  0.00  0.00    +0.019 A 
ATOM     38  C   UNL     1      19.043   6.624  71.387  0.00  0.00    +0.120 A 
ATOM     39  N   UNL     1      19.947   7.669  71.230  0.00  0.00    -0.263 NA
ATOM     40  C   UNL     1      20.470   8.032  69.979  0.00  0.00    +0.111 A 
ENDBRANCH   4   3
ENDBRANCH  10   9
BRANCH  12  13
ATOM     13  N   UNL     1      13.489  -1.160  67.410  0.00  0.00    -0.281 N 
ATOM     14  C   UNL     1      13.691  -2.334  68.117  0.00  0.00    +0.248 C 
ATOM     30  O   UNL     1      13.872  -2.391  69.324  0.00  0.00    -0.270 OA
ATOM     31  H   UNL     1      13.546  -1.234  66.394  0.00  0.00    +0.155 HD
BRANCH  14  15
ATOM     15  C   UNL     1      13.708  -3.631  67.375  0.00  0.00    +0.037 A 
ATOM     16  C   UNL     1      14.960  -4.204  66.874  0.00  0.00    +0.013 A 
ATOM     17  C   UNL     1      14.946  -5.448  66.146  0.00  0.00    +0.005 A 
ATOM     18  C   UNL     1      13.674  -6.128  65.915  0.00  0.00    -0.033 A 
ATOM     28  C   UNL     1      12.448  -5.540  66.427  0.00  0.00    +0.005 A 
ATOM     29  C   UNL     1      12.457  -4.321  67.141  0.00  0.00    +0.013 A 
BRANCH  18  19
ATOM     19  C   UNL     1      13.563  -7.449  65.130  0.00  0.00    +0.119 C 
BRANCH  19  20
ATOM     20  N   UNL     1      14.682  -8.427  65.276  0.00  0.00    -0.302 NA
ATOM     21  C   UNL     1      14.744  -9.407  64.101  0.00  0.00    +0.066 C 
ATOM     22  C   UNL     1      15.934 -10.409  64.258  0.00  0.00    -0.064 C 
ATOM     23  N   UNL     1      15.792 -11.161  65.583  0.00  0.00    +0.379 N 
ATOM     24  C   UNL     1      16.878 -12.145  65.707  0.00  0.00    -0.096 C 
ATOM     25  H   UNL     1      14.829 -11.721  65.553  0.00  0.00    -0.082 HD
ATOM     26  C   UNL     1      15.727 -10.193  66.756  0.00  0.00    -0.064 C 
ATOM     27  C   UNL     1      14.559  -9.183  66.576  0.00  0.00    +0.066 C 
ENDBRANCH  19  20
ENDBRANCH  18  19
ENDBRANCH  14  15
ENDBRANCH  12  13
TORSDOF 6
ENDMDL
