MODEL 1
REMARK VINA RESULT:      -8.7      0.000      0.000
REMARK  Name = C:\Users\Docking\Desktop\test protocol\1iep_ligandH.pdb
REMARK  8 active torsions:
REMARK  status: ('A' for Active; 'I' for Inactive)
REMARK    1  A    between atoms: _5  and  _11
REMARK    2  A    between atoms: _19  and  _21
REMARK    3  A    between atoms: _22  and  _66
REMARK    4  A    between atoms: _27  and  _30
REMARK    5  A    between atoms: _32  and  _33
REMARK    6  A    between atoms: _38  and  _43
REMARK    7  A    between atoms: _43  and  _46
REMARK    8  A    between atoms: _53  and  _55
REMARK                            x       y       z     vdW  Elec       q    Type
REMARK                         _______ _______ _______ _____ _____    ______ ____
ROOT
ATOM     10  C   UNL     1      36.619   7.528   8.607  0.00  0.00    +0.038 A 
ATOM     11  C   UNL     1      35.255   7.350   8.261  0.00  0.00    +0.047 A 
ATOM     12  C   UNL     1      34.387   6.483   9.042  0.00  0.00    +0.035 A 
ATOM     32  C   UNL     1      34.941   5.814  10.173  0.00  0.00    +0.024 A 
ATOM     33  C   UNL     1      36.325   5.982  10.539  0.00  0.00    +0.007 A 
ATOM     34  C   UNL     1      37.187   6.834   9.770  0.00  0.00    -0.029 A 
ATOM     35  C   UNL     1      38.665   6.973  10.205  0.00  0.00    +0.045 C 
ENDROOT
BRANCH  10   9
ATOM      4  C   UNL     1      39.273   8.428   4.711  0.00  0.00    +0.077 A 
ATOM      5  C   UNL     1      39.098   7.095   4.211  0.00  0.00    +0.048 A 
ATOM      6  C   UNL     1      38.323   6.206   4.990  0.00  0.00    +0.116 A 
ATOM      7  N   UNL     1      37.770   6.630   6.179  0.00  0.00    -0.223 NA
ATOM      8  C   UNL     1      37.960   7.922   6.633  0.00  0.00    +0.220 A 
ATOM      9  N   UNL     1      37.407   8.372   7.822  0.00  0.00    -0.283 N 
ATOM     36  H   UNL     1      37.577   9.331   8.126  0.00  0.00    +0.155 HD
ATOM     37  N   UNL     1      38.697   8.789   5.908  0.00  0.00    -0.214 NA
BRANCH   4   3
ATOM      1  C   UNL     1      40.309  11.314   2.282  0.00  0.00    +0.020 A 
ATOM      2  C   UNL     1      39.504  10.308   2.936  0.00  0.00    +0.013 A 
ATOM      3  C   UNL     1      40.062   9.483   4.001  0.00  0.00    +0.019 A 
ATOM     38  C   UNL     1      41.449   9.705   4.383  0.00  0.00    +0.120 A 
ATOM     39  N   UNL     1      42.200  10.680   3.735  0.00  0.00    -0.263 NA
ATOM     40  C   UNL     1      41.674  11.478   2.708  0.00  0.00    +0.111 A 
ENDBRANCH   4   3
ENDBRANCH  10   9
BRANCH  12  13
ATOM     13  N   UNL     1      32.997   6.258   8.734  0.00  0.00    -0.281 N 
ATOM     14  C   UNL     1      32.429   5.153   8.121  0.00  0.00    +0.248 C 
ATOM     30  O   UNL     1      33.062   4.278   7.549  0.00  0.00    -0.270 OA
ATOM     31  H   UNL     1      32.353   7.003   9.000  0.00  0.00    +0.155 HD
BRANCH  14  15
ATOM     15  C   UNL     1      30.941   5.006   8.133  0.00  0.00    +0.037 A 
ATOM     16  C   UNL     1      30.289   3.941   8.900  0.00  0.00    +0.013 A 
ATOM     17  C   UNL     1      28.854   3.811   8.880  0.00  0.00    +0.005 A 
ATOM     18  C   UNL     1      28.060   4.751   8.091  0.00  0.00    -0.033 A 
ATOM     28  C   UNL     1      28.733   5.800   7.343  0.00  0.00    +0.005 A 
ATOM     29  C   UNL     1      30.140   5.930   7.359  0.00  0.00    +0.013 A 
BRANCH  18  19
ATOM     19  C   UNL     1      26.525   4.674   7.995  0.00  0.00    +0.119 C 
BRANCH  19  20
ATOM     20  N   UNL     1      25.949   3.799   6.930  0.00  0.00    -0.302 NA
ATOM     21  C   UNL     1      26.489   4.154   5.542  0.00  0.00    +0.066 C 
ATOM     22  C   UNL     1      25.893   3.214   4.443  0.00  0.00    -0.064 C 
ATOM     23  N   UNL     1      24.367   3.306   4.470  0.00  0.00    +0.379 N 
ATOM     24  C   UNL     1      23.806   2.469   3.400  0.00  0.00    -0.096 C 
ATOM     25  H   UNL     1      24.088   4.364   4.253  0.00  0.00    -0.082 HD
ATOM     26  C   UNL     1      23.822   2.958   5.848  0.00  0.00    -0.064 C 
ATOM     27  C   UNL     1      24.442   3.878   6.936  0.00  0.00    +0.066 C 
ENDBRANCH  19  20
ENDBRANCH  18  19
ENDBRANCH  14  15
ENDBRANCH  12  13
TORSDOF 6
ENDMDL
MODEL 2
REMARK VINA RESULT:      -8.6      1.809      2.593
REMARK  Name = C:\Users\Docking\Desktop\test protocol\1iep_ligandH.pdb
REMARK  8 active torsions:
REMARK  status: ('A' for Active; 'I' for Inactive)
REMARK    1  A    between atoms: _5  and  _11
REMARK    2  A    between atoms: _19  and  _21
REMARK    3  A    between atoms: _22  and  _66
REMARK    4  A    between atoms: _27  and  _30
REMARK    5  A    between atoms: _32  and  _33
REMARK    6  A    between atoms: _38  and  _43
REMARK    7  A    between atoms: _43  and  _46
REMARK    8  A    between atoms: _53  and  _55
REMARK                            x       y       z     vdW  Elec       q    Type
REMARK                         _______ _______ _______ _____ _____    ______ ____
ROOT
ATOM     10  C   UNL     1      36.587   7.534   8.668  0.00  0.00    +0.038 A 
ATOM     11  C   UNL     1      35.219   7.348   8.342  0.00  0.00    +0.047 A 
ATOM     12  C   UNL     1      34.365   6.486   9.144  0.00  0.00    +0.035 A 
ATOM     32  C   UNL     1      34.937   5.830  10.273  0.00  0.00    +0.024 A 
ATOM     33  C   UNL     1      36.325   6.006  10.618  0.00  0.00    +0.007 A 
ATOM     34  C   UNL     1      37.173   6.854   9.830  0.00  0.00    -0.029 A 
ATOM     35  C   UNL     1      38.656   7.001  10.243  0.00  0.00    +0.045 C 
ENDROOT
BRANCH  10   9
ATOM      4  C   UNL     1      39.227   8.390   4.752  0.00  0.00    +0.077 A 
ATOM      5  C   UNL     1      39.073   7.044   4.282  0.00  0.00    +0.048 A 
ATOM      6  C   UNL     1      38.313   6.160   5.081  0.00  0.00    +0.116 A 
ATOM      7  N   UNL     1      37.753   6.601   6.260  0.00  0.00    -0.223 NA
ATOM      8  C   UNL     1      37.922   7.906   6.686  0.00  0.00    +0.220 A 
ATOM      9  N   UNL     1      37.361   8.373   7.864  0.00  0.00    -0.283 N 
ATOM     36  H   UNL     1      37.516   9.341   8.147  0.00  0.00    +0.155 HD
ATOM     37  N   UNL     1      38.645   8.769   5.941  0.00  0.00    -0.214 NA
BRANCH   4   3
ATOM      1  C   UNL     1      42.105  10.747   3.542  0.00  0.00    +0.020 A 
ATOM      2  C   UNL     1      41.405   9.720   4.280  0.00  0.00    +0.013 A 
ATOM      3  C   UNL     1      39.999   9.442   4.018  0.00  0.00    +0.019 A 
ATOM     38  C   UNL     1      39.324  10.226   2.995  0.00  0.00    +0.120 A 
ATOM     39  N   UNL     1      40.023  11.210   2.302  0.00  0.00    -0.263 NA
ATOM     40  C   UNL     1      41.376  11.488   2.546  0.00  0.00    +0.111 A 
ENDBRANCH   4   3
ENDBRANCH  10   9
BRANCH  12  13
ATOM     13  N   UNL     1      32.971   6.253   8.857  0.00  0.00    -0.281 N 
ATOM     14  C   UNL     1      32.408   5.179   8.186  0.00  0.00    +0.248 C 
ATOM     30  O   UNL     1      33.042   4.358   7.541  0.00  0.00    -0.270 OA
ATOM     31  H   UNL     1      32.321   6.966   9.188  0.00  0.00    +0.155 HD
BRANCH  14  15
ATOM     15  C   UNL     1      30.925   5.001   8.226  0.00  0.00    +0.037 A 
ATOM     16  C   UNL     1      30.292   4.109   9.201  0.00  0.00    +0.013 A 
ATOM     17  C   UNL     1      28.860   3.942   9.207  0.00  0.00    +0.005 A 
ATOM     18  C   UNL     1      28.051   4.672   8.234  0.00  0.00    -0.033 A 
ATOM     28  C   UNL     1      28.704   5.555   7.281  0.00  0.00    +0.005 A 
ATOM     29  C   UNL     1      30.107   5.720   7.272  0.00  0.00    +0.013 A 
BRANCH  18  19
ATOM     19  C   UNL     1      26.518   4.539   8.153  0.00  0.00    +0.119 C 
BRANCH  19  20
ATOM     20  N   UNL     1      25.796   4.184   9.411  0.00  0.00    -0.302 NA
ATOM     21  C   UNL     1      25.610   2.672   9.560  0.00  0.00    +0.066 C 
ATOM     22  C   UNL     1      24.873   2.317  10.893  0.00  0.00    -0.064 C 
ATOM     23  N   UNL     1      23.522   3.035  10.931  0.00  0.00    +0.379 N 
ATOM     24  C   UNL     1      22.801   2.658  12.156  0.00  0.00    -0.096 C 
ATOM     25  H   UNL     1      22.924   2.676  10.062  0.00  0.00    -0.082 HD
ATOM     26  C   UNL     1      23.697   4.540  10.781  0.00  0.00    -0.064 C 
ATOM     27  C   UNL     1      24.458   4.879   9.468  0.00  0.00    +0.066 C 
ENDBRANCH  19  20
ENDBRANCH  18  19
ENDBRANCH  14  15
ENDBRANCH  12  13
TORSDOF 6
ENDMDL
MODEL 3
REMARK VINA RESULT:      -8.3      5.887      7.007
REMARK  Name = C:\Users\Docking\Desktop\test protocol\1iep_ligandH.pdb
REMARK  8 active torsions:
REMARK  status: ('A' for Active; 'I' for Inactive)
REMARK    1  A    between atoms: _5  and  _11
REMARK    2  A    between atoms: _19  and  _21
REMARK    3  A    between atoms: _22  and  _66
REMARK    4  A    between atoms: _27  and  _30
REMARK    5  A    between atoms: _32  and  _33
REMARK    6  A    between atoms: _38  and  _43
REMARK    7  A    between atoms: _43  and  _46
REMARK    8  A    between atoms: _53  and  _55
REMARK                            x       y       z     vdW  Elec       q    Type
REMARK                         _______ _______ _______ _____ _____    ______ ____
ROOT
ATOM     10  C   UNL     1      35.701   4.815  12.010  0.00  0.00    +0.038 A 
ATOM     11  C   UNL     1      34.495   5.243  11.399  0.00  0.00    +0.047 A 
ATOM     12  C   UNL     1      33.529   4.283  10.887  0.00  0.00    +0.035 A 
ATOM     32  C   UNL     1      33.823   2.894  11.017  0.00  0.00    +0.024 A 
ATOM     33  C   UNL     1      35.045   2.442  11.635  0.00  0.00    +0.007 A 
ATOM     34  C   UNL     1      36.002   3.385  12.139  0.00  0.00    -0.029 A 
ATOM     35  C   UNL     1      37.298   2.843  12.786  0.00  0.00    +0.045 C 
ENDROOT
BRANCH  10   9
ATOM      4  C   UNL     1      37.269   7.827  15.403  0.00  0.00    +0.077 A 
ATOM      5  C   UNL     1      36.207   7.467  16.297  0.00  0.00    +0.048 A 
ATOM      6  C   UNL     1      35.274   6.508  15.843  0.00  0.00    +0.116 A 
ATOM      7  N   UNL     1      35.403   5.957  14.586  0.00  0.00    -0.223 NA
ATOM      8  C   UNL     1      36.439   6.328  13.748  0.00  0.00    +0.220 A 
ATOM      9  N   UNL     1      36.593   5.780  12.484  0.00  0.00    -0.283 N 
ATOM     36  H   UNL     1      37.366   6.086  11.893  0.00  0.00    +0.155 HD
ATOM     37  N   UNL     1      37.342   7.242  14.158  0.00  0.00    -0.214 NA
BRANCH   4   3
ATOM      1  C   UNL     1      39.184  10.867  16.949  0.00  0.00    +0.020 A 
ATOM      2  C   UNL     1      38.120   9.933  16.658  0.00  0.00    +0.013 A 
ATOM      3  C   UNL     1      38.335   8.823  15.739  0.00  0.00    +0.019 A 
ATOM     38  C   UNL     1      39.649   8.684  15.128  0.00  0.00    +0.120 A 
ATOM     39  N   UNL     1      40.653   9.599  15.426  0.00  0.00    -0.263 NA
ATOM     40  C   UNL     1      40.457  10.673  16.308  0.00  0.00    +0.111 A 
ENDBRANCH   4   3
ENDBRANCH  10   9
BRANCH  12  13
ATOM     13  N   UNL     1      32.291   4.658  10.250  0.00  0.00    -0.281 N 
ATOM     14  C   UNL     1      32.116   5.230   9.000  0.00  0.00    +0.248 C 
ATOM     30  O   UNL     1      33.017   5.705   8.325  0.00  0.00    -0.270 OA
ATOM     31  H   UNL     1      31.441   4.480  10.785  0.00  0.00    +0.155 HD
BRANCH  14  15
ATOM     15  C   UNL     1      30.738   5.297   8.424  0.00  0.00    +0.037 A 
ATOM     16  C   UNL     1      29.569   4.872   9.198  0.00  0.00    +0.013 A 
ATOM     17  C   UNL     1      28.253   4.931   8.612  0.00  0.00    +0.005 A 
ATOM     18  C   UNL     1      28.100   5.419   7.243  0.00  0.00    -0.033 A 
ATOM     28  C   UNL     1      29.277   5.839   6.500  0.00  0.00    +0.005 A 
ATOM     29  C   UNL     1      30.568   5.782   7.071  0.00  0.00    +0.013 A 
BRANCH  18  19
ATOM     19  C   UNL     1      26.737   5.496   6.530  0.00  0.00    +0.119 C 
BRANCH  19  20
ATOM     20  N   UNL     1      26.354   4.344   5.661  0.00  0.00    -0.302 NA
ATOM     21  C   UNL     1      26.388   3.015   6.420  0.00  0.00    +0.066 C 
ATOM     22  C   UNL     1      25.962   1.824   5.501  0.00  0.00    -0.064 C 
ATOM     23  N   UNL     1      26.881   1.773   4.279  0.00  0.00    +0.379 N 
ATOM     24  C   UNL     1      26.521   0.619   3.442  0.00  0.00    -0.096 C 
ATOM     25  H   UNL     1      27.922   1.613   4.645  0.00  0.00    -0.082 HD
ATOM     26  C   UNL     1      26.856   3.092   3.520  0.00  0.00    -0.064 C 
ATOM     27  C   UNL     1      27.252   4.273   4.450  0.00  0.00    +0.066 C 
ENDBRANCH  19  20
ENDBRANCH  18  19
ENDBRANCH  14  15
ENDBRANCH  12  13
TORSDOF 6
ENDMDL
MODEL 4
REMARK VINA RESULT:      -8.2     29.864     32.081
REMARK  Name = C:\Users\Docking\Desktop\test protocol\1iep_ligandH.pdb
REMARK  8 active torsions:
REMARK  status: ('A' for Active; 'I' for Inactive)
REMARK    1  A    between atoms: _5  and  _11
REMARK    2  A    between atoms: _19  and  _21
REMARK    3  A    between atoms: _22  and  _66
REMARK    4  A    between atoms: _27  and  _30
REMARK    5  A    between atoms: _32  and  _33
REMARK    6  A    between atoms: _38  and  _43
REMARK    7  A    between atoms: _43  and  _46
REMARK    8  A    between atoms: _53  and  _55
REMARK                            x       y       z     vdW  Elec       q    Type
REMARK                         _______ _______ _______ _____ _____    ______ ____
ROOT
ATOM     10  C   UNL     1      21.658  28.478  28.764  0.00  0.00    +0.038 A 
ATOM     11  C   UNL     1      20.600  27.773  28.135  0.00  0.00    +0.047 A 
ATOM     12  C   UNL     1      20.192  28.085  26.775  0.00  0.00    +0.035 A 
ATOM     32  C   UNL     1      20.885  29.120  26.082  0.00  0.00    +0.024 A 
ATOM     33  C   UNL     1      21.962  29.848  26.706  0.00  0.00    +0.007 A 
ATOM     34  C   UNL     1      22.367  29.546  28.049  0.00  0.00    -0.029 A 
ATOM     35  C   UNL     1      23.524  30.363  28.670  0.00  0.00    +0.045 C 
ENDROOT
BRANCH  10   9
ATOM      4  C   UNL     1      24.099  25.834  31.940  0.00  0.00    +0.077 A 
ATOM      5  C   UNL     1      24.707  25.047  30.906  0.00  0.00    +0.048 A 
ATOM      6  C   UNL     1      24.360  25.350  29.570  0.00  0.00    +0.116 A 
ATOM      7  N   UNL     1      23.470  26.367  29.300  0.00  0.00    -0.223 NA
ATOM      8  C   UNL     1      22.900  27.105  30.321  0.00  0.00    +0.220 A 
ATOM      9  N   UNL     1      22.009  28.137  30.072  0.00  0.00    -0.283 N 
ATOM     36  H   UNL     1      21.604  28.654  30.853  0.00  0.00    +0.155 HD
ATOM     37  N   UNL     1      23.214  26.834  31.605  0.00  0.00    -0.214 NA
BRANCH   4   3
ATOM      1  C   UNL     1      25.806  24.866  35.324  0.00  0.00    +0.020 A 
ATOM      2  C   UNL     1      25.595  25.033  33.904  0.00  0.00    +0.013 A 
ATOM      3  C   UNL     1      24.368  25.636  33.399  0.00  0.00    +0.019 A 
ATOM     38  C   UNL     1      23.366  26.064  34.365  0.00  0.00    +0.120 A 
ATOM     39  N   UNL     1      23.596  25.888  35.726  0.00  0.00    -0.263 NA
ATOM     40  C   UNL     1      24.772  25.308  36.223  0.00  0.00    +0.111 A 
ENDBRANCH   4   3
ENDBRANCH  10   9
BRANCH  12  13
ATOM     13  N   UNL     1      19.120  27.408  26.087  0.00  0.00    -0.281 N 
ATOM     14  C   UNL     1      19.217  26.392  25.150  0.00  0.00    +0.248 C 
ATOM     30  O   UNL     1      20.255  26.056  24.600  0.00  0.00    -0.270 OA
ATOM     31  H   UNL     1      18.176  27.715  26.320  0.00  0.00    +0.155 HD
BRANCH  14  15
ATOM     15  C   UNL     1      17.979  25.653  24.757  0.00  0.00    +0.037 A 
ATOM     16  C   UNL     1      17.225  26.018  23.555  0.00  0.00    +0.013 A 
ATOM     17  C   UNL     1      16.024  25.299  23.208  0.00  0.00    +0.005 A 
ATOM     18  C   UNL     1      15.572  24.205  24.065  0.00  0.00    -0.033 A 
ATOM     28  C   UNL     1      16.342  23.861  25.248  0.00  0.00    +0.005 A 
ATOM     29  C   UNL     1      17.518  24.564  25.592  0.00  0.00    +0.013 A 
BRANCH  18  19
ATOM     19  C   UNL     1      14.291  23.398  23.783  0.00  0.00    +0.119 C 
BRANCH  19  20
ATOM     20  N   UNL     1      14.425  21.913  23.692  0.00  0.00    -0.302 NA
ATOM     21  C   UNL     1      14.883  21.462  22.302  0.00  0.00    +0.066 C 
ATOM     22  C   UNL     1      15.040  19.908  22.231  0.00  0.00    -0.064 C 
ATOM     23  N   UNL     1      13.713  19.247  22.605  0.00  0.00    +0.379 N 
ATOM     24  C   UNL     1      13.840  17.787  22.483  0.00  0.00    -0.096 C 
ATOM     25  H   UNL     1      12.948  19.582  21.866  0.00  0.00    -0.082 HD
ATOM     26  C   UNL     1      13.248  19.692  23.984  0.00  0.00    -0.064 C 
ATOM     27  C   UNL     1      13.124  21.240  24.053  0.00  0.00    +0.066 C 
ENDBRANCH  19  20
ENDBRANCH  18  19
ENDBRANCH  14  15
ENDBRANCH  12  13
TORSDOF 6
ENDMDL
MODEL 5
REMARK VINA RESULT:      -8.0      6.113      7.351
REMARK  Name = C:\Users\Docking\Desktop\test protocol\1iep_ligandH.pdb
REMARK  8 active torsions:
REMARK  status: ('A' for Active; 'I' for Inactive)
REMARK    1  A    between atoms: _5  and  _11
REMARK    2  A    between atoms: _19  and  _21
REMARK    3  A    between atoms: _22  and  _66
REMARK    4  A    between atoms: _27  and  _30
REMARK    5  A    between atoms: _32  and  _33
REMARK    6  A    between atoms: _38  and  _43
REMARK    7  A    between atoms: _43  and  _46
REMARK    8  A    between atoms: _53  and  _55
REMARK                            x       y       z     vdW  Elec       q    Type
REMARK                         _______ _______ _______ _____ _____    ______ ____
ROOT
ATOM     10  C   UNL     1      35.685   4.532  12.046  0.00  0.00    +0.038 A 
ATOM     11  C   UNL     1      34.387   4.798  11.540  0.00  0.00    +0.047 A 
ATOM     12  C   UNL     1      33.521   3.720  11.088  0.00  0.00    +0.035 A 
ATOM     32  C   UNL     1      34.008   2.383  11.167  0.00  0.00    +0.024 A 
ATOM     33  C   UNL     1      35.326   2.095  11.677  0.00  0.00    +0.007 A 
ATOM     34  C   UNL     1      36.186   3.154  12.123  0.00  0.00    -0.029 A 
ATOM     35  C   UNL     1      37.591   2.788  12.655  0.00  0.00    +0.045 C 
ENDROOT
BRANCH  10   9
ATOM      4  C   UNL     1      37.087   7.714  15.355  0.00  0.00    +0.077 A 
ATOM      5  C   UNL     1      36.148   7.214  16.318  0.00  0.00    +0.048 A 
ATOM      6  C   UNL     1      35.318   6.142  15.920  0.00  0.00    +0.116 A 
ATOM      7  N   UNL     1      35.428   5.617  14.651  0.00  0.00    -0.223 NA
ATOM      8  C   UNL     1      36.342   6.123  13.746  0.00  0.00    +0.220 A 
ATOM      9  N   UNL     1      36.474   5.605  12.467  0.00  0.00    -0.283 N 
ATOM     36  H   UNL     1      37.156   6.011  11.826  0.00  0.00    +0.155 HD
ATOM     37  N   UNL     1      37.145   7.148  14.101  0.00  0.00    -0.214 NA
BRANCH   4   3
ATOM      1  C   UNL     1      38.805  10.844  16.953  0.00  0.00    +0.020 A 
ATOM      2  C   UNL     1      37.860   9.773  16.734  0.00  0.00    +0.013 A 
ATOM      3  C   UNL     1      38.034   8.841  15.627  0.00  0.00    +0.019 A 
ATOM     38  C   UNL     1      39.184   9.021  14.753  0.00  0.00    +0.120 A 
ATOM     39  N   UNL     1      40.076  10.063  14.988  0.00  0.00    -0.263 NA
ATOM     40  C   UNL     1      39.918  10.967  16.049  0.00  0.00    +0.111 A 
ENDBRANCH   4   3
ENDBRANCH  10   9
BRANCH  12  13
ATOM     13  N   UNL     1      32.196   3.929  10.558  0.00  0.00    -0.281 N 
ATOM     14  C   UNL     1      31.845   4.358   9.288  0.00  0.00    +0.248 C 
ATOM     30  O   UNL     1      32.627   4.833   8.478  0.00  0.00    -0.270 OA
ATOM     31  H   UNL     1      31.424   3.739  11.196  0.00  0.00    +0.155 HD
BRANCH  14  15
ATOM     15  C   UNL     1      30.416   4.257   8.861  0.00  0.00    +0.037 A 
ATOM     16  C   UNL     1      29.798   5.289   8.025  0.00  0.00    +0.013 A 
ATOM     17  C   UNL     1      28.413   5.175   7.641  0.00  0.00    +0.005 A 
ATOM     18  C   UNL     1      27.637   4.023   8.094  0.00  0.00    -0.033 A 
ATOM     28  C   UNL     1      28.277   3.012   8.919  0.00  0.00    +0.005 A 
ATOM     29  C   UNL     1      29.634   3.120   9.297  0.00  0.00    +0.013 A 
BRANCH  18  19
ATOM     19  C   UNL     1      26.148   3.832   7.751  0.00  0.00    +0.119 C 
BRANCH  19  20
ATOM     20  N   UNL     1      25.203   3.636   8.890  0.00  0.00    -0.302 NA
ATOM     21  C   UNL     1      23.782   3.325   8.412  0.00  0.00    +0.066 C 
ATOM     22  C   UNL     1      22.812   3.101   9.617  0.00  0.00    -0.064 C 
ATOM     23  N   UNL     1      22.822   4.341  10.514  0.00  0.00    +0.379 N 
ATOM     24  C   UNL     1      21.868   4.157  11.616  0.00  0.00    -0.096 C 
ATOM     25  H   UNL     1      22.470   5.204   9.901  0.00  0.00    -0.082 HD
ATOM     26  C   UNL     1      24.232   4.659  10.992  0.00  0.00    -0.064 C 
ATOM     27  C   UNL     1      25.194   4.851   9.786  0.00  0.00    +0.066 C 
ENDBRANCH  19  20
ENDBRANCH  18  19
ENDBRANCH  14  15
ENDBRANCH  12  13
TORSDOF 6
ENDMDL
