MODEL 1
REMARK VINA RESULT:     -10.6      0.000      0.000
REMARK  Name = C:\Users\Docking\Desktop\test protocol\1iep_ligandH.pdb
REMARK  8 active torsions:
REMARK  status: ('A' for Active; 'I' for Inactive)
REMARK    1  A    between atoms: _5  and  _11
REMARK    2  A    between atoms: _19  and  _21
REMARK    3  A    between atoms: _22  and  _66
REMARK    4  A    between atoms: _27  and  _30
REMARK    5  A    between atoms: _32  and  _33
REMARK    6  A    between atoms: _38  and  _43
REMARK    7  A    between atoms: _43  and  _46
REMARK    8  A    between atoms: _53  and  _55
REMARK                            x       y       z     vdW  Elec       q    Type
REMARK                         _______ _______ _______ _____ _____    ______ ____
ROOT
ATOM     10  C   UNL     1      20.173  25.152  14.934  0.00  0.00    +0.038 A 
ATOM     11  C   UNL     1      21.554  25.307  15.219  0.00  0.00    +0.047 A 
ATOM     12  C   UNL     1      22.174  26.623  15.243  0.00  0.00    +0.035 A 
ATOM     32  C   UNL     1      21.356  27.760  14.975  0.00  0.00    +0.024 A 
ATOM     33  C   UNL     1      19.952  27.620  14.682  0.00  0.00    +0.007 A 
ATOM     34  C   UNL     1      19.335  26.324  14.655  0.00  0.00    -0.029 A 
ATOM     35  C   UNL     1      17.826  26.233  14.329  0.00  0.00    +0.045 C 
ENDROOT
BRANCH  10   9
ATOM      4  C   UNL     1      18.518  21.273  12.641  0.00  0.00    +0.077 A 
ATOM      5  C   UNL     1      18.728  21.872  11.354  0.00  0.00    +0.048 A 
ATOM      6  C   UNL     1      19.257  23.182  11.326  0.00  0.00    +0.116 A 
ATOM      7  N   UNL     1      19.551  23.835  12.503  0.00  0.00    -0.223 NA
ATOM      8  C   UNL     1      19.335  23.230  13.728  0.00  0.00    +0.220 A 
ATOM      9  N   UNL     1      19.630  23.865  14.924  0.00  0.00    -0.283 N 
ATOM     36  H   UNL     1      19.449  23.387  15.807  0.00  0.00    +0.155 HD
ATOM     37  N   UNL     1      18.829  21.980  13.781  0.00  0.00    -0.214 NA
BRANCH   4   3
ATOM      1  C   UNL     1      16.230  18.280  13.692  0.00  0.00    +0.020 A 
ATOM      2  C   UNL     1      16.716  19.631  13.532  0.00  0.00    +0.013 A 
ATOM      3  C   UNL     1      17.969  19.894  12.835  0.00  0.00    +0.019 A 
ATOM     38  C   UNL     1      18.711  18.759  12.307  0.00  0.00    +0.120 A 
ATOM     39  N   UNL     1      18.218  17.469  12.477  0.00  0.00    -0.263 NA
ATOM     40  C   UNL     1      17.015  17.204  13.148  0.00  0.00    +0.111 A 
ENDBRANCH   4   3
ENDBRANCH  10   9
BRANCH  12  13
ATOM     13  N   UNL     1      23.572  26.842  15.518  0.00  0.00    -0.281 N 
ATOM     14  C   UNL     1      24.250  26.629  16.707  0.00  0.00    +0.248 C 
ATOM     30  O   UNL     1      23.709  26.417  17.783  0.00  0.00    -0.270 OA
ATOM     31  H   UNL     1      24.130  27.198  14.742  0.00  0.00    +0.155 HD
BRANCH  14  15
ATOM     15  C   UNL     1      25.744  26.670  16.705  0.00  0.00    +0.037 A 
ATOM     16  C   UNL     1      26.471  27.871  17.122  0.00  0.00    +0.013 A 
ATOM     17  C   UNL     1      27.912  27.890  17.093  0.00  0.00    +0.005 A 
ATOM     18  C   UNL     1      28.636  26.702  16.647  0.00  0.00    -0.033 A 
ATOM     28  C   UNL     1      27.889  25.522  16.244  0.00  0.00    +0.005 A 
ATOM     29  C   UNL     1      26.476  25.500  16.269  0.00  0.00    +0.013 A 
BRANCH  18  19
ATOM     19  C   UNL     1      30.172  26.640  16.564  0.00  0.00    +0.119 C 
BRANCH  19  20
ATOM     20  N   UNL     1      30.794  26.853  15.223  0.00  0.00    -0.302 NA
ATOM     21  C   UNL     1      29.987  27.831  14.365  0.00  0.00    +0.066 C 
ATOM     22  C   UNL     1      30.664  28.059  12.974  0.00  0.00    -0.064 C 
ATOM     23  N   UNL     1      30.823  26.716  12.260  0.00  0.00    +0.379 N 
ATOM     24  C   UNL     1      31.406  26.934  10.928  0.00  0.00    -0.096 C 
ATOM     25  H   UNL     1      29.804  26.286  12.118  0.00  0.00    -0.082 HD
ATOM     26  C   UNL     1      31.622  25.736  13.108  0.00  0.00    -0.064 C 
ATOM     27  C   UNL     1      30.957  25.539  14.499  0.00  0.00    +0.066 C 
ENDBRANCH  19  20
ENDBRANCH  18  19
ENDBRANCH  14  15
ENDBRANCH  12  13
TORSDOF 6
ENDMDL
MODEL 2
REMARK VINA RESULT:     -10.4      0.803      1.064
REMARK  Name = C:\Users\Docking\Desktop\test protocol\1iep_ligandH.pdb
REMARK  8 active torsions:
REMARK  status: ('A' for Active; 'I' for Inactive)
REMARK    1  A    between atoms: _5  and  _11
REMARK    2  A    between atoms: _19  and  _21
REMARK    3  A    between atoms: _22  and  _66
REMARK    4  A    between atoms: _27  and  _30
REMARK    5  A    between atoms: _32  and  _33
REMARK    6  A    between atoms: _38  and  _43
REMARK    7  A    between atoms: _43  and  _46
REMARK    8  A    between atoms: _53  and  _55
REMARK                            x       y       z     vdW  Elec       q    Type
REMARK                         _______ _______ _______ _____ _____    ______ ____
ROOT
ATOM     10  C   UNL     1      20.024  25.015  14.877  0.00  0.00    +0.038 A 
ATOM     11  C   UNL     1      21.396  25.026  15.235  0.00  0.00    +0.047 A 
ATOM     12  C   UNL     1      22.168  26.259  15.216  0.00  0.00    +0.035 A 
ATOM     32  C   UNL     1      21.509  27.463  14.830  0.00  0.00    +0.024 A 
ATOM     33  C   UNL     1      20.116  27.469  14.462  0.00  0.00    +0.007 A 
ATOM     34  C   UNL     1      19.350  26.256  14.476  0.00  0.00    -0.029 A 
ATOM     35  C   UNL     1      17.860  26.320  14.065  0.00  0.00    +0.045 C 
ENDROOT
BRANCH  10   9
ATOM      4  C   UNL     1      18.366  21.024  12.787  0.00  0.00    +0.077 A 
ATOM      5  C   UNL     1      18.903  21.398  11.511  0.00  0.00    +0.048 A 
ATOM      6  C   UNL     1      19.593  22.629  11.433  0.00  0.00    +0.116 A 
ATOM      7  N   UNL     1      19.730  23.418  12.554  0.00  0.00    -0.223 NA
ATOM      8  C   UNL     1      19.198  23.028  13.770  0.00  0.00    +0.220 A 
ATOM      9  N   UNL     1      19.330  23.803  14.912  0.00  0.00    -0.283 N 
ATOM     36  H   UNL     1      18.917  23.484  15.788  0.00  0.00    +0.155 HD
ATOM     37  N   UNL     1      18.533  21.858  13.870  0.00  0.00    -0.214 NA
BRANCH   4   3
ATOM      1  C   UNL     1      15.620  18.461  13.879  0.00  0.00    +0.020 A 
ATOM      2  C   UNL     1      16.303  19.716  13.667  0.00  0.00    +0.013 A 
ATOM      3  C   UNL     1      17.614  19.752  13.031  0.00  0.00    +0.019 A 
ATOM     38  C   UNL     1      18.209  18.491  12.615  0.00  0.00    +0.120 A 
ATOM     39  N   UNL     1      17.528  17.298  12.833  0.00  0.00    -0.263 NA
ATOM     40  C   UNL     1      16.267  17.250  13.446  0.00  0.00    +0.111 A 
ENDBRANCH   4   3
ENDBRANCH  10   9
BRANCH  12  13
ATOM     13  N   UNL     1      23.566  26.331  15.562  0.00  0.00    -0.281 N 
ATOM     14  C   UNL     1      24.141  26.195  16.815  0.00  0.00    +0.248 C 
ATOM     30  O   UNL     1      23.518  26.203  17.866  0.00  0.00    -0.270 OA
ATOM     31  H   UNL     1      24.209  26.503  14.790  0.00  0.00    +0.155 HD
BRANCH  14  15
ATOM     15  C   UNL     1      25.625  26.042  16.915  0.00  0.00    +0.037 A 
ATOM     16  C   UNL     1      26.227  24.867  17.551  0.00  0.00    +0.013 A 
ATOM     17  C   UNL     1      27.660  24.753  17.650  0.00  0.00    +0.005 A 
ATOM     18  C   UNL     1      28.502  25.817  17.109  0.00  0.00    -0.033 A 
ATOM     28  C   UNL     1      27.879  26.969  16.479  0.00  0.00    +0.005 A 
ATOM     29  C   UNL     1      26.474  27.085  16.382  0.00  0.00    +0.013 A 
BRANCH  18  19
ATOM     19  C   UNL     1      30.040  25.789  17.190  0.00  0.00    +0.119 C 
BRANCH  19  20
ATOM     20  N   UNL     1      30.793  25.834  15.901  0.00  0.00    -0.302 NA
ATOM     21  C   UNL     1      30.728  27.217  15.246  0.00  0.00    +0.066 C 
ATOM     22  C   UNL     1      31.539  27.253  13.910  0.00  0.00    -0.064 C 
ATOM     23  N   UNL     1      31.003  26.179  12.962  0.00  0.00    +0.379 N 
ATOM     24  C   UNL     1      31.726  26.248  11.683  0.00  0.00    -0.096 C 
ATOM     25  H   UNL     1      29.932  26.411  12.759  0.00  0.00    -0.082 HD
ATOM     26  C   UNL     1      31.062  24.801  13.606  0.00  0.00    -0.064 C 
ATOM     27  C   UNL     1      30.277  24.784  14.948  0.00  0.00    +0.066 C 
ENDBRANCH  19  20
ENDBRANCH  18  19
ENDBRANCH  14  15
ENDBRANCH  12  13
TORSDOF 6
ENDMDL
MODEL 3
REMARK VINA RESULT:     -10.4      3.022      4.060
REMARK  Name = C:\Users\Docking\Desktop\test protocol\1iep_ligandH.pdb
REMARK  8 active torsions:
REMARK  status: ('A' for Active; 'I' for Inactive)
REMARK    1  A    between atoms: _5  and  _11
REMARK    2  A    between atoms: _19  and  _21
REMARK    3  A    between atoms: _22  and  _66
REMARK    4  A    between atoms: _27  and  _30
REMARK    5  A    between atoms: _32  and  _33
REMARK    6  A    between atoms: _38  and  _43
REMARK    7  A    between atoms: _43  and  _46
REMARK    8  A    between atoms: _53  and  _55
REMARK                            x       y       z     vdW  Elec       q    Type
REMARK                         _______ _______ _______ _____ _____    ______ ____
ROOT
ATOM     10  C   UNL     1      19.920  25.235  14.913  0.00  0.00    +0.038 A 
ATOM     11  C   UNL     1      21.253  24.987  15.329  0.00  0.00    +0.047 A 
ATOM     12  C   UNL     1      22.260  26.036  15.296  0.00  0.00    +0.035 A 
ATOM     32  C   UNL     1      21.873  27.329  14.835  0.00  0.00    +0.024 A 
ATOM     33  C   UNL     1      20.523  27.598  14.408  0.00  0.00    +0.007 A 
ATOM     34  C   UNL     1      19.527  26.566  14.436  0.00  0.00    -0.029 A 
ATOM     35  C   UNL     1      18.096  26.910  13.960  0.00  0.00    +0.045 C 
ENDROOT
BRANCH  10   9
ATOM      4  C   UNL     1      17.801  21.359  13.038  0.00  0.00    +0.077 A 
ATOM      5  C   UNL     1      18.585  21.437  11.839  0.00  0.00    +0.048 A 
ATOM      6  C   UNL     1      19.518  22.494  11.742  0.00  0.00    +0.116 A 
ATOM      7  N   UNL     1      19.648  23.399  12.772  0.00  0.00    -0.223 NA
ATOM      8  C   UNL     1      18.875  23.296  13.914  0.00  0.00    +0.220 A 
ATOM      9  N   UNL     1      18.995  24.191  14.966  0.00  0.00    -0.283 N 
ATOM     36  H   UNL     1      18.400  24.085  15.788  0.00  0.00    +0.155 HD
ATOM     37  N   UNL     1      17.976  22.297  14.031  0.00  0.00    -0.214 NA
BRANCH   4   3
ATOM      1  C   UNL     1      14.419  19.533  13.767  0.00  0.00    +0.020 A 
ATOM      2  C   UNL     1      15.369  20.596  13.528  0.00  0.00    +0.013 A 
ATOM      3  C   UNL     1      16.775  20.298  13.290  0.00  0.00    +0.019 A 
ATOM     38  C   UNL     1      17.192  18.903  13.300  0.00  0.00    +0.120 A 
ATOM     39  N   UNL     1      16.255  17.902  13.534  0.00  0.00    -0.263 NA
ATOM     40  C   UNL     1      14.899  18.176  13.766  0.00  0.00    +0.111 A 
ENDBRANCH   4   3
ENDBRANCH  10   9
BRANCH  12  13
ATOM     13  N   UNL     1      23.631  25.841  15.698  0.00  0.00    -0.281 N 
ATOM     14  C   UNL     1      24.215  26.157  16.914  0.00  0.00    +0.248 C 
ATOM     30  O   UNL     1      23.693  26.855  17.771  0.00  0.00    -0.270 OA
ATOM     31  H   UNL     1      24.245  25.419  15.002  0.00  0.00    +0.155 HD
BRANCH  14  15
ATOM     15  C   UNL     1      25.582  25.633  17.216  0.00  0.00    +0.037 A 
ATOM     16  C   UNL     1      25.812  24.705  18.327  0.00  0.00    +0.013 A 
ATOM     17  C   UNL     1      27.143  24.229  18.607  0.00  0.00    +0.005 A 
ATOM     18  C   UNL     1      28.255  24.679  17.773  0.00  0.00    -0.033 A 
ATOM     28  C   UNL     1      27.998  25.595  16.675  0.00  0.00    +0.005 A 
ATOM     29  C   UNL     1      26.694  26.065  16.398  0.00  0.00    +0.013 A 
BRANCH  18  19
ATOM     19  C   UNL     1      29.711  24.238  18.012  0.00  0.00    +0.119 C 
BRANCH  19  20
ATOM     20  N   UNL     1      29.935  23.100  18.952  0.00  0.00    -0.302 NA
ATOM     21  C   UNL     1      30.291  23.580  20.362  0.00  0.00    +0.066 C 
ATOM     22  C   UNL     1      30.500  22.376  21.338  0.00  0.00    -0.064 C 
ATOM     23  N   UNL     1      31.593  21.460  20.787  0.00  0.00    +0.379 N 
ATOM     24  C   UNL     1      31.833  20.359  21.730  0.00  0.00    -0.096 C 
ATOM     25  H   UNL     1      32.532  22.058  20.719  0.00  0.00    -0.082 HD
ATOM     26  C   UNL     1      31.250  20.980  19.384  0.00  0.00    -0.064 C 
ATOM     27  C   UNL     1      31.015  22.184  18.429  0.00  0.00    +0.066 C 
ENDBRANCH  19  20
ENDBRANCH  18  19
ENDBRANCH  14  15
ENDBRANCH  12  13
TORSDOF 6
ENDMDL
MODEL 4
REMARK VINA RESULT:     -10.4      5.501      8.254
REMARK  Name = C:\Users\Docking\Desktop\test protocol\1iep_ligandH.pdb
REMARK  8 active torsions:
REMARK  status: ('A' for Active; 'I' for Inactive)
REMARK    1  A    between atoms: _5  and  _11
REMARK    2  A    between atoms: _19  and  _21
REMARK    3  A    between atoms: _22  and  _66
REMARK    4  A    between atoms: _27  and  _30
REMARK    5  A    between atoms: _32  and  _33
REMARK    6  A    between atoms: _38  and  _43
REMARK    7  A    between atoms: _43  and  _46
REMARK    8  A    between atoms: _53  and  _55
REMARK                            x       y       z     vdW  Elec       q    Type
REMARK                         _______ _______ _______ _____ _____    ______ ____
ROOT
ATOM     10  C   UNL     1      14.543  21.790  14.630  0.00  0.00    +0.038 A 
ATOM     11  C   UNL     1      15.633  22.669  14.859  0.00  0.00    +0.047 A 
ATOM     12  C   UNL     1      16.958  22.378  14.334  0.00  0.00    +0.035 A 
ATOM     32  C   UNL     1      17.136  21.184  13.576  0.00  0.00    +0.024 A 
ATOM     33  C   UNL     1      16.040  20.279  13.333  0.00  0.00    +0.007 A 
ATOM     34  C   UNL     1      14.731  20.560  13.852  0.00  0.00    -0.029 A 
ATOM     35  C   UNL     1      13.594  19.551  13.566  0.00  0.00    +0.045 C 
ENDROOT
BRANCH  10   9
ATOM      4  C   UNL     1      11.374  21.933  18.232  0.00  0.00    +0.077 A 
ATOM      5  C   UNL     1      12.277  21.272  19.130  0.00  0.00    +0.048 A 
ATOM      6  C   UNL     1      13.544  20.906  18.624  0.00  0.00    +0.116 A 
ATOM      7  N   UNL     1      13.874  21.185  17.315  0.00  0.00    -0.223 NA
ATOM      8  C   UNL     1      12.979  21.822  16.475  0.00  0.00    +0.220 A 
ATOM      9  N   UNL     1      13.293  22.119  15.158  0.00  0.00    -0.283 N 
ATOM     36  H   UNL     1      12.602  22.583  14.568  0.00  0.00    +0.155 HD
ATOM     37  N   UNL     1      11.762  22.180  16.934  0.00  0.00    -0.214 NA
BRANCH   4   3
ATOM      1  C   UNL     1       7.984  23.879  18.366  0.00  0.00    +0.020 A 
ATOM      2  C   UNL     1       9.310  23.482  17.953  0.00  0.00    +0.013 A 
ATOM      3  C   UNL     1      10.001  22.385  18.619  0.00  0.00    +0.019 A 
ATOM     38  C   UNL     1       9.315  21.704  19.707  0.00  0.00    +0.120 A 
ATOM     39  N   UNL     1       8.038  22.109  20.084  0.00  0.00    -0.263 NA
ATOM     40  C   UNL     1       7.365  23.164  19.451  0.00  0.00    +0.111 A 
ENDBRANCH   4   3
ENDBRANCH  10   9
BRANCH  12  13
ATOM     13  N   UNL     1      18.103  23.228  14.541  0.00  0.00    -0.281 N 
ATOM     14  C   UNL     1      18.681  24.113  13.646  0.00  0.00    +0.248 C 
ATOM     30  O   UNL     1      18.426  24.151  12.451  0.00  0.00    -0.270 OA
ATOM     31  H   UNL     1      18.543  23.170  15.460  0.00  0.00    +0.155 HD
BRANCH  14  15
ATOM     15  C   UNL     1      19.698  25.087  14.147  0.00  0.00    +0.037 A 
ATOM     16  C   UNL     1      21.026  24.644  14.579  0.00  0.00    +0.013 A 
ATOM     17  C   UNL     1      21.982  25.602  15.074  0.00  0.00    +0.005 A 
ATOM     18  C   UNL     1      21.614  27.014  15.138  0.00  0.00    -0.033 A 
ATOM     28  C   UNL     1      20.291  27.427  14.698  0.00  0.00    +0.005 A 
ATOM     29  C   UNL     1      19.351  26.490  14.213  0.00  0.00    +0.013 A 
BRANCH  18  19
ATOM     19  C   UNL     1      22.563  28.103  15.672  0.00  0.00    +0.119 C 
BRANCH  19  20
ATOM     20  N   UNL     1      24.012  27.755  15.777  0.00  0.00    -0.302 NA
ATOM     21  C   UNL     1      24.384  27.261  17.178  0.00  0.00    +0.066 C 
ATOM     22  C   UNL     1      25.898  26.880  17.264  0.00  0.00    -0.064 C 
ATOM     23  N   UNL     1      26.748  28.090  16.873  0.00  0.00    +0.379 N 
ATOM     24  C   UNL     1      28.173  27.753  17.008  0.00  0.00    -0.096 C 
ATOM     25  H   UNL     1      26.524  28.909  17.595  0.00  0.00    -0.082 HD
ATOM     26  C   UNL     1      26.383  28.590  15.482  0.00  0.00    -0.064 C 
ATOM     27  C   UNL     1      24.870  28.937  15.399  0.00  0.00    +0.066 C 
ENDBRANCH  19  20
ENDBRANCH  18  19
ENDBRANCH  14  15
ENDBRANCH  12  13
TORSDOF 6
ENDMDL
MODEL 5
REMARK VINA RESULT:     -10.4      7.017     14.505
REMARK  Name = C:\Users\Docking\Desktop\test protocol\1iep_ligandH.pdb
REMARK  8 active torsions:
REMARK  status: ('A' for Active; 'I' for Inactive)
REMARK    1  A    between atoms: _5  and  _11
REMARK    2  A    between atoms: _19  and  _21
REMARK    3  A    between atoms: _22  and  _66
REMARK    4  A    between atoms: _27  and  _30
REMARK    5  A    between atoms: _32  and  _33
REMARK    6  A    between atoms: _38  and  _43
REMARK    7  A    between atoms: _43  and  _46
REMARK    8  A    between atoms: _53  and  _55
REMARK                            x       y       z     vdW  Elec       q    Type
REMARK                         _______ _______ _______ _____ _____    ______ ____
ROOT
ATOM     10  C   UNL     1      17.396  22.396  14.788  0.00  0.00    +0.038 A 
ATOM     11  C   UNL     1      16.173  22.733  15.424  0.00  0.00    +0.047 A 
ATOM     12  C   UNL     1      14.897  22.290  14.883  0.00  0.00    +0.035 A 
ATOM     32  C   UNL     1      14.903  21.503  13.695  0.00  0.00    +0.024 A 
ATOM     33  C   UNL     1      16.137  21.152  13.036  0.00  0.00    +0.007 A 
ATOM     34  C   UNL     1      17.398  21.588  13.563  0.00  0.00    -0.029 A 
ATOM     35  C   UNL     1      18.689  21.188  12.810  0.00  0.00    +0.045 C 
ENDROOT
BRANCH  10   9
ATOM      4  C   UNL     1      20.710  25.788  15.525  0.00  0.00    +0.077 A 
ATOM      5  C   UNL     1      20.014  26.732  14.698  0.00  0.00    +0.048 A 
ATOM      6  C   UNL     1      18.810  26.302  14.096  0.00  0.00    +0.116 A 
ATOM      7  N   UNL     1      18.347  25.023  14.312  0.00  0.00    -0.223 NA
ATOM      8  C   UNL     1      19.043  24.137  15.113  0.00  0.00    +0.220 A 
ATOM      9  N   UNL     1      18.592  22.848  15.350  0.00  0.00    -0.283 N 
ATOM     36  H   UNL     1      19.139  22.223  15.942  0.00  0.00    +0.155 HD
ATOM     37  N   UNL     1      20.196  24.523  15.699  0.00  0.00    -0.214 NA
BRANCH   4   3
ATOM      1  C   UNL     1      24.467  26.592  16.262  0.00  0.00    +0.020 A 
ATOM      2  C   UNL     1      23.255  26.299  15.532  0.00  0.00    +0.013 A 
ATOM      3  C   UNL     1      21.994  26.094  16.232  0.00  0.00    +0.019 A 
ATOM     38  C   UNL     1      21.992  26.194  17.684  0.00  0.00    +0.120 A 
ATOM     39  N   UNL     1      23.175  26.476  18.361  0.00  0.00    -0.263 NA
ATOM     40  C   UNL     1      24.395  26.674  17.698  0.00  0.00    +0.111 A 
ENDBRANCH   4   3
ENDBRANCH  10   9
BRANCH  12  13
ATOM     13  N   UNL     1      13.624  22.608  15.481  0.00  0.00    -0.281 N 
ATOM     14  C   UNL     1      12.861  21.822  16.328  0.00  0.00    +0.248 C 
ATOM     30  O   UNL     1      13.058  20.633  16.532  0.00  0.00    -0.270 OA
ATOM     31  H   UNL     1      13.238  23.524  15.251  0.00  0.00    +0.155 HD
BRANCH  14  15
ATOM     15  C   UNL     1      11.702  22.442  17.040  0.00  0.00    +0.037 A 
ATOM     16  C   UNL     1      10.347  21.902  16.901  0.00  0.00    +0.013 A 
ATOM     17  C   UNL     1       9.245  22.530  17.586  0.00  0.00    +0.005 A 
ATOM     18  C   UNL     1       9.494  23.704  18.418  0.00  0.00    -0.033 A 
ATOM     28  C   UNL     1      10.849  24.215  18.543  0.00  0.00    +0.005 A 
ATOM     29  C   UNL     1      11.932  23.604  17.873  0.00  0.00    +0.013 A 
BRANCH  18  19
ATOM     19  C   UNL     1       8.375  24.451  19.169  0.00  0.00    +0.119 C 
BRANCH  19  20
ATOM     20  N   UNL     1       8.789  25.414  20.232  0.00  0.00    -0.302 NA
ATOM     21  C   UNL     1       7.754  25.508  21.357  0.00  0.00    +0.066 C 
ATOM     22  C   UNL     1       8.214  26.503  22.471  0.00  0.00    -0.064 C 
ATOM     23  N   UNL     1       8.466  27.879  21.851  0.00  0.00    +0.379 N 
ATOM     24  C   UNL     1       8.843  28.831  22.906  0.00  0.00    -0.096 C 
ATOM     25  H   UNL     1       7.507  28.229  21.405  0.00  0.00    -0.082 HD
ATOM     26  C   UNL     1       9.492  27.794  20.730  0.00  0.00    -0.064 C 
ATOM     27  C   UNL     1       9.040  26.780  19.642  0.00  0.00    +0.066 C 
ENDBRANCH  19  20
ENDBRANCH  18  19
ENDBRANCH  14  15
ENDBRANCH  12  13
TORSDOF 6
ENDMDL
