MODEL 1
REMARK VINA RESULT:      -9.6      0.000      0.000
REMARK  Name = C:\Users\Docking\Desktop\test protocol\1iep_ligandH.pdb
REMARK  8 active torsions:
REMARK  status: ('A' for Active; 'I' for Inactive)
REMARK    1  A    between atoms: _5  and  _11
REMARK    2  A    between atoms: _19  and  _21
REMARK    3  A    between atoms: _22  and  _66
REMARK    4  A    between atoms: _27  and  _30
REMARK    5  A    between atoms: _32  and  _33
REMARK    6  A    between atoms: _38  and  _43
REMARK    7  A    between atoms: _43  and  _46
REMARK    8  A    between atoms: _53  and  _55
REMARK                            x       y       z     vdW  Elec       q    Type
REMARK                         _______ _______ _______ _____ _____    ______ ____
ROOT
ATOM     10  C   UNL     1       9.999  27.598  20.860  0.00  0.00    +0.038 A 
ATOM     11  C   UNL     1       9.439  28.703  20.170  0.00  0.00    +0.047 A 
ATOM     12  C   UNL     1       8.652  29.706  20.870  0.00  0.00    +0.035 A 
ATOM     32  C   UNL     1       8.459  29.554  22.274  0.00  0.00    +0.024 A 
ATOM     33  C   UNL     1       9.020  28.437  22.991  0.00  0.00    +0.007 A 
ATOM     34  C   UNL     1       9.795  27.442  22.305  0.00  0.00    -0.029 A 
ATOM     35  C   UNL     1      10.368  26.261  23.123  0.00  0.00    +0.045 C 
ENDROOT
BRANCH  10   9
ATOM      4  C   UNL     1      10.351  23.750  18.013  0.00  0.00    +0.077 A 
ATOM      5  C   UNL     1       8.929  23.568  17.983  0.00  0.00    +0.048 A 
ATOM      6  C   UNL     1       8.142  24.482  18.719  0.00  0.00    +0.116 A 
ATOM      7  N   UNL     1       8.744  25.499  19.429  0.00  0.00    -0.223 NA
ATOM      8  C   UNL     1      10.120  25.644  19.438  0.00  0.00    +0.220 A 
ATOM      9  N   UNL     1      10.746  26.664  20.138  0.00  0.00    -0.283 N 
ATOM     36  H   UNL     1      11.763  26.733  20.125  0.00  0.00    +0.155 HD
ATOM     37  N   UNL     1      10.893  24.783  18.744  0.00  0.00    -0.214 NA
BRANCH   4   3
ATOM      1  C   UNL     1      11.863  20.979  15.701  0.00  0.00    +0.020 A 
ATOM      2  C   UNL     1      10.891  21.803  16.382  0.00  0.00    +0.013 A 
ATOM      3  C   UNL     1      11.316  22.867  17.283  0.00  0.00    +0.019 A 
ATOM     38  C   UNL     1      12.744  23.075  17.472  0.00  0.00    +0.120 A 
ATOM     39  N   UNL     1      13.657  22.265  16.804  0.00  0.00    -0.263 NA
ATOM     40  C   UNL     1      13.259  21.236  15.937  0.00  0.00    +0.111 A 
ENDBRANCH   4   3
ENDBRANCH  10   9
BRANCH  12  13
ATOM     13  N   UNL     1       8.052  30.846  20.221  0.00  0.00    -0.281 N 
ATOM     14  C   UNL     1       7.074  31.691  20.719  0.00  0.00    +0.248 C 
ATOM     30  O   UNL     1       6.410  31.467  21.720  0.00  0.00    -0.270 OA
ATOM     31  H   UNL     1       8.389  31.054  19.281  0.00  0.00    +0.155 HD
BRANCH  14  15
ATOM     15  C   UNL     1       6.780  32.963  19.990  0.00  0.00    +0.037 A 
ATOM     16  C   UNL     1       7.853  33.760  19.390  0.00  0.00    +0.013 A 
ATOM     17  C   UNL     1       7.543  34.991  18.707  0.00  0.00    +0.005 A 
ATOM     18  C   UNL     1       6.153  35.433  18.621  0.00  0.00    -0.033 A 
ATOM     28  C   UNL     1       5.108  34.620  19.222  0.00  0.00    +0.005 A 
ATOM     29  C   UNL     1       5.408  33.413  19.892  0.00  0.00    +0.013 A 
BRANCH  18  19
ATOM     19  C   UNL     1       5.734  36.744  17.931  0.00  0.00    +0.119 C 
BRANCH  19  20
ATOM     20  N   UNL     1       5.232  37.846  18.804  0.00  0.00    -0.302 NA
ATOM     21  C   UNL     1       5.694  39.222  18.316  0.00  0.00    +0.066 C 
ATOM     22  C   UNL     1       5.142  40.365  19.228  0.00  0.00    -0.064 C 
ATOM     23  N   UNL     1       5.589  40.124  20.671  0.00  0.00    +0.379 N 
ATOM     24  C   UNL     1       5.120  41.228  21.521  0.00  0.00    -0.096 C 
ATOM     25  H   UNL     1       6.704  40.136  20.685  0.00  0.00    -0.082 HD
ATOM     26  C   UNL     1       5.135  38.757  21.163  0.00  0.00    -0.064 C 
ATOM     27  C   UNL     1       5.666  37.630  20.233  0.00  0.00    +0.066 C 
ENDBRANCH  19  20
ENDBRANCH  18  19
ENDBRANCH  14  15
ENDBRANCH  12  13
TORSDOF 6
ENDMDL
MODEL 2
REMARK VINA RESULT:      -9.0      6.371     11.942
REMARK  Name = C:\Users\Docking\Desktop\test protocol\1iep_ligandH.pdb
REMARK  8 active torsions:
REMARK  status: ('A' for Active; 'I' for Inactive)
REMARK    1  A    between atoms: _5  and  _11
REMARK    2  A    between atoms: _19  and  _21
REMARK    3  A    between atoms: _22  and  _66
REMARK    4  A    between atoms: _27  and  _30
REMARK    5  A    between atoms: _32  and  _33
REMARK    6  A    between atoms: _38  and  _43
REMARK    7  A    between atoms: _43  and  _46
REMARK    8  A    between atoms: _53  and  _55
REMARK                            x       y       z     vdW  Elec       q    Type
REMARK                         _______ _______ _______ _____ _____    ______ ____
ROOT
ATOM     10  C   UNL     1      17.258  22.675  14.758  0.00  0.00    +0.038 A 
ATOM     11  C   UNL     1      16.027  23.027  15.368  0.00  0.00    +0.047 A 
ATOM     12  C   UNL     1      14.764  22.509  14.867  0.00  0.00    +0.035 A 
ATOM     32  C   UNL     1      14.791  21.631  13.744  0.00  0.00    +0.024 A 
ATOM     33  C   UNL     1      16.034  21.263  13.112  0.00  0.00    +0.007 A 
ATOM     34  C   UNL     1      17.283  21.773  13.600  0.00  0.00    -0.029 A 
ATOM     35  C   UNL     1      18.584  21.350  12.879  0.00  0.00    +0.045 C 
ENDROOT
BRANCH  10   9
ATOM      4  C   UNL     1      20.422  26.241  15.310  0.00  0.00    +0.077 A 
ATOM      5  C   UNL     1      19.668  27.121  14.465  0.00  0.00    +0.048 A 
ATOM      6  C   UNL     1      18.475  26.615  13.901  0.00  0.00    +0.116 A 
ATOM      7  N   UNL     1      18.076  25.323  14.171  0.00  0.00    -0.223 NA
ATOM      8  C   UNL     1      18.828  24.501  14.989  0.00  0.00    +0.220 A 
ATOM      9  N   UNL     1      18.442  23.201  15.280  0.00  0.00    -0.283 N 
ATOM     36  H   UNL     1      19.028  22.624  15.883  0.00  0.00    +0.155 HD
ATOM     37  N   UNL     1      19.972  24.960  15.538  0.00  0.00    -0.214 NA
BRANCH   4   3
ATOM      1  C   UNL     1      24.006  27.660  15.977  0.00  0.00    +0.020 A 
ATOM      2  C   UNL     1      22.790  27.304  15.282  0.00  0.00    +0.013 A 
ATOM      3  C   UNL     1      21.703  26.632  15.981  0.00  0.00    +0.019 A 
ATOM     38  C   UNL     1      21.878  26.331  17.394  0.00  0.00    +0.120 A 
ATOM     39  N   UNL     1      23.060  26.685  18.036  0.00  0.00    -0.263 NA
ATOM     40  C   UNL     1      24.115  27.331  17.374  0.00  0.00    +0.111 A 
ENDBRANCH   4   3
ENDBRANCH  10   9
BRANCH  12  13
ATOM     13  N   UNL     1      13.482  22.839  15.439  0.00  0.00    -0.281 N 
ATOM     14  C   UNL     1      12.688  22.053  16.259  0.00  0.00    +0.248 C 
ATOM     30  O   UNL     1      12.863  20.859  16.452  0.00  0.00    -0.270 OA
ATOM     31  H   UNL     1      13.116  23.763  15.213  0.00  0.00    +0.155 HD
BRANCH  14  15
ATOM     15  C   UNL     1      11.524  22.682  16.954  0.00  0.00    +0.037 A 
ATOM     16  C   UNL     1      10.174  22.125  16.830  0.00  0.00    +0.013 A 
ATOM     17  C   UNL     1       9.066  22.760  17.497  0.00  0.00    +0.005 A 
ATOM     18  C   UNL     1       9.303  23.961  18.295  0.00  0.00    -0.033 A 
ATOM     28  C   UNL     1      10.653  24.489  18.405  0.00  0.00    +0.005 A 
ATOM     29  C   UNL     1      11.741  23.869  17.752  0.00  0.00    +0.013 A 
BRANCH  18  19
ATOM     19  C   UNL     1       8.176  24.717  19.024  0.00  0.00    +0.119 C 
BRANCH  19  20
ATOM     20  N   UNL     1       8.578  25.678  20.094  0.00  0.00    -0.302 NA
ATOM     21  C   UNL     1       7.504  25.814  21.177  0.00  0.00    +0.066 C 
ATOM     22  C   UNL     1       7.951  26.806  22.300  0.00  0.00    -0.064 C 
ATOM     23  N   UNL     1       8.269  28.167  21.678  0.00  0.00    +0.379 N 
ATOM     24  C   UNL     1       8.633  29.118  22.738  0.00  0.00    -0.096 C 
ATOM     25  H   UNL     1       7.338  28.542  21.192  0.00  0.00    -0.082 HD
ATOM     26  C   UNL     1       9.334  28.040  20.598  0.00  0.00    -0.064 C 
ATOM     27  C   UNL     1       8.893  27.030  19.502  0.00  0.00    +0.066 C 
ENDBRANCH  19  20
ENDBRANCH  18  19
ENDBRANCH  14  15
ENDBRANCH  12  13
TORSDOF 6
ENDMDL
MODEL 3
REMARK VINA RESULT:      -8.9      8.042     12.369
REMARK  Name = C:\Users\Docking\Desktop\test protocol\1iep_ligandH.pdb
REMARK  8 active torsions:
REMARK  status: ('A' for Active; 'I' for Inactive)
REMARK    1  A    between atoms: _5  and  _11
REMARK    2  A    between atoms: _19  and  _21
REMARK    3  A    between atoms: _22  and  _66
REMARK    4  A    between atoms: _27  and  _30
REMARK    5  A    between atoms: _32  and  _33
REMARK    6  A    between atoms: _38  and  _43
REMARK    7  A    between atoms: _43  and  _46
REMARK    8  A    between atoms: _53  and  _55
REMARK                            x       y       z     vdW  Elec       q    Type
REMARK                         _______ _______ _______ _____ _____    ______ ____
ROOT
ATOM     10  C   UNL     1      17.034  22.681  14.834  0.00  0.00    +0.038 A 
ATOM     11  C   UNL     1      15.794  22.989  15.448  0.00  0.00    +0.047 A 
ATOM     12  C   UNL     1      14.540  22.497  14.899  0.00  0.00    +0.035 A 
ATOM     32  C   UNL     1      14.587  21.691  13.724  0.00  0.00    +0.024 A 
ATOM     33  C   UNL     1      15.839  21.369  13.086  0.00  0.00    +0.007 A 
ATOM     34  C   UNL     1      17.079  21.854  13.622  0.00  0.00    -0.029 A 
ATOM     35  C   UNL     1      18.392  21.483  12.894  0.00  0.00    +0.045 C 
ENDROOT
BRANCH  10   9
ATOM      4  C   UNL     1      20.331  26.122  15.407  0.00  0.00    +0.077 A 
ATOM      5  C   UNL     1      19.675  26.989  14.471  0.00  0.00    +0.048 A 
ATOM      6  C   UNL     1      18.495  26.509  13.859  0.00  0.00    +0.116 A 
ATOM      7  N   UNL     1      18.017  25.254  14.167  0.00  0.00    -0.223 NA
ATOM      8  C   UNL     1      18.675  24.443  15.073  0.00  0.00    +0.220 A 
ATOM      9  N   UNL     1      18.208  23.180  15.404  0.00  0.00    -0.283 N 
ATOM     36  H   UNL     1      18.726  22.609  16.071  0.00  0.00    +0.155 HD
ATOM     37  N   UNL     1      19.804  24.877  15.670  0.00  0.00    -0.214 NA
BRANCH   4   3
ATOM      1  C   UNL     1      23.978  27.283  16.214  0.00  0.00    +0.020 A 
ATOM      2  C   UNL     1      22.794  26.941  15.461  0.00  0.00    +0.013 A 
ATOM      3  C   UNL     1      21.585  26.488  16.138  0.00  0.00    +0.019 A 
ATOM     38  C   UNL     1      21.608  26.392  17.590  0.00  0.00    +0.120 A 
ATOM     39  N   UNL     1      22.764  26.727  18.289  0.00  0.00    -0.263 NA
ATOM     40  C   UNL     1      23.934  27.162  17.648  0.00  0.00    +0.111 A 
ENDBRANCH   4   3
ENDBRANCH  10   9
BRANCH  12  13
ATOM     13  N   UNL     1      13.249  22.784  15.474  0.00  0.00    -0.281 N 
ATOM     14  C   UNL     1      12.654  22.186  16.572  0.00  0.00    +0.248 C 
ATOM     30  O   UNL     1      13.055  21.160  17.102  0.00  0.00    -0.270 OA
ATOM     31  H   UNL     1      12.708  23.517  15.015  0.00  0.00    +0.155 HD
BRANCH  14  15
ATOM     15  C   UNL     1      11.429  22.810  17.159  0.00  0.00    +0.037 A 
ATOM     16  C   UNL     1      10.112  22.185  17.010  0.00  0.00    +0.013 A 
ATOM     17  C   UNL     1       8.944  22.816  17.571  0.00  0.00    +0.005 A 
ATOM     18  C   UNL     1       9.089  24.081  18.289  0.00  0.00    -0.033 A 
ATOM     28  C   UNL     1      10.408  24.676  18.426  0.00  0.00    +0.005 A 
ATOM     29  C   UNL     1      11.555  24.061  17.877  0.00  0.00    +0.013 A 
BRANCH  18  19
ATOM     19  C   UNL     1       7.895  24.836  18.902  0.00  0.00    +0.119 C 
BRANCH  19  20
ATOM     20  N   UNL     1       7.532  24.511  20.314  0.00  0.00    -0.302 NA
ATOM     21  C   UNL     1       6.435  23.446  20.395  0.00  0.00    +0.066 C 
ATOM     22  C   UNL     1       6.084  23.102  21.879  0.00  0.00    -0.064 C 
ATOM     23  N   UNL     1       5.656  24.377  22.607  0.00  0.00    +0.379 N 
ATOM     24  C   UNL     1       5.270  24.048  23.987  0.00  0.00    -0.096 C 
ATOM     25  H   UNL     1       4.753  24.776  22.089  0.00  0.00    -0.082 HD
ATOM     26  C   UNL     1       6.740  25.443  22.529  0.00  0.00    -0.064 C 
ATOM     27  C   UNL     1       7.102  25.756  21.051  0.00  0.00    +0.066 C 
ENDBRANCH  19  20
ENDBRANCH  18  19
ENDBRANCH  14  15
ENDBRANCH  12  13
TORSDOF 6
ENDMDL
MODEL 4
REMARK VINA RESULT:      -8.8      4.523     13.130
REMARK  Name = C:\Users\Docking\Desktop\test protocol\1iep_ligandH.pdb
REMARK  8 active torsions:
REMARK  status: ('A' for Active; 'I' for Inactive)
REMARK    1  A    between atoms: _5  and  _11
REMARK    2  A    between atoms: _19  and  _21
REMARK    3  A    between atoms: _22  and  _66
REMARK    4  A    between atoms: _27  and  _30
REMARK    5  A    between atoms: _32  and  _33
REMARK    6  A    between atoms: _38  and  _43
REMARK    7  A    between atoms: _43  and  _46
REMARK    8  A    between atoms: _53  and  _55
REMARK                            x       y       z     vdW  Elec       q    Type
REMARK                         _______ _______ _______ _____ _____    ______ ____
ROOT
ATOM     10  C   UNL     1       9.071  25.677  19.355  0.00  0.00    +0.038 A 
ATOM     11  C   UNL     1      10.390  25.428  18.898  0.00  0.00    +0.047 A 
ATOM     12  C   UNL     1      10.965  24.092  18.950  0.00  0.00    +0.035 A 
ATOM     32  C   UNL     1      10.167  23.034  19.473  0.00  0.00    +0.024 A 
ATOM     33  C   UNL     1       8.824  23.270  19.944  0.00  0.00    +0.007 A 
ATOM     34  C   UNL     1       8.253  24.586  19.897  0.00  0.00    -0.029 A 
ATOM     35  C   UNL     1       6.812  24.782  20.421  0.00  0.00    +0.045 C 
ENDROOT
BRANCH  10   9
ATOM      4  C   UNL     1       8.085  29.951  21.305  0.00  0.00    +0.077 A 
ATOM      5  C   UNL     1       8.586  29.548  22.587  0.00  0.00    +0.048 A 
ATOM      6  C   UNL     1       9.083  28.230  22.705  0.00  0.00    +0.116 A 
ATOM      7  N   UNL     1       9.074  27.387  21.615  0.00  0.00    -0.223 NA
ATOM      8  C   UNL     1       8.581  27.807  20.393  0.00  0.00    +0.220 A 
ATOM      9  N   UNL     1       8.570  26.979  19.281  0.00  0.00    -0.283 N 
ATOM     36  H   UNL     1       8.191  27.324  18.399  0.00  0.00    +0.155 HD
ATOM     37  N   UNL     1       8.100  29.060  20.255  0.00  0.00    -0.214 NA
BRANCH   4   3
ATOM      1  C   UNL     1       5.957  33.228  21.491  0.00  0.00    +0.020 A 
ATOM      2  C   UNL     1       6.457  31.909  21.807  0.00  0.00    +0.013 A 
ATOM      3  C   UNL     1       7.530  31.312  21.022  0.00  0.00    +0.019 A 
ATOM     38  C   UNL     1       8.081  32.082  19.917  0.00  0.00    +0.120 A 
ATOM     39  N   UNL     1       7.579  33.349  19.636  0.00  0.00    -0.263 NA
ATOM     40  C   UNL     1       6.545  33.933  20.383  0.00  0.00    +0.111 A 
ENDBRANCH   4   3
ENDBRANCH  10   9
BRANCH  12  13
ATOM     13  N   UNL     1      12.301  23.780  18.508  0.00  0.00    -0.281 N 
ATOM     14  C   UNL     1      12.684  23.149  17.335  0.00  0.00    +0.248 C 
ATOM     30  O   UNL     1      11.919  22.564  16.584  0.00  0.00    -0.270 OA
ATOM     31  H   UNL     1      13.056  24.057  19.135  0.00  0.00    +0.155 HD
BRANCH  14  15
ATOM     15  C   UNL     1      14.128  23.158  16.949  0.00  0.00    +0.037 A 
ATOM     16  C   UNL     1      14.543  22.982  15.555  0.00  0.00    +0.013 A 
ATOM     17  C   UNL     1      15.943  22.977  15.212  0.00  0.00    +0.005 A 
ATOM     18  C   UNL     1      16.939  23.151  16.267  0.00  0.00    -0.033 A 
ATOM     28  C   UNL     1      16.499  23.329  17.641  0.00  0.00    +0.005 A 
ATOM     29  C   UNL     1      15.128  23.333  17.981  0.00  0.00    +0.013 A 
BRANCH  18  19
ATOM     19  C   UNL     1      18.455  23.138  15.995  0.00  0.00    +0.119 C 
BRANCH  19  20
ATOM     20  N   UNL     1      19.142  24.460  15.891  0.00  0.00    -0.302 NA
ATOM     21  C   UNL     1      20.235  24.456  14.818  0.00  0.00    +0.066 C 
ATOM     22  C   UNL     1      20.928  25.853  14.706  0.00  0.00    -0.064 C 
ATOM     23  N   UNL     1      21.507  26.242  16.068  0.00  0.00    +0.379 N 
ATOM     24  C   UNL     1      22.210  27.529  15.953  0.00  0.00    -0.096 C 
ATOM     25  H   UNL     1      22.260  25.469  16.348  0.00  0.00    -0.082 HD
ATOM     26  C   UNL     1      20.428  26.246  17.141  0.00  0.00    -0.064 C 
ATOM     27  C   UNL     1      19.725  24.862  17.223  0.00  0.00    +0.066 C 
ENDBRANCH  19  20
ENDBRANCH  18  19
ENDBRANCH  14  15
ENDBRANCH  12  13
TORSDOF 6
ENDMDL
MODEL 5
REMARK VINA RESULT:      -8.7      4.282     14.232
REMARK  Name = C:\Users\Docking\Desktop\test protocol\1iep_ligandH.pdb
REMARK  8 active torsions:
REMARK  status: ('A' for Active; 'I' for Inactive)
REMARK    1  A    between atoms: _5  and  _11
REMARK    2  A    between atoms: _19  and  _21
REMARK    3  A    between atoms: _22  and  _66
REMARK    4  A    between atoms: _27  and  _30
REMARK    5  A    between atoms: _32  and  _33
REMARK    6  A    between atoms: _38  and  _43
REMARK    7  A    between atoms: _43  and  _46
REMARK    8  A    between atoms: _53  and  _55
REMARK                            x       y       z     vdW  Elec       q    Type
REMARK                         _______ _______ _______ _____ _____    ______ ____
ROOT
ATOM     10  C   UNL     1       9.222  25.821  19.240  0.00  0.00    +0.038 A 
ATOM     11  C   UNL     1      10.551  25.641  18.779  0.00  0.00    +0.047 A 
ATOM     12  C   UNL     1      11.187  24.333  18.807  0.00  0.00    +0.035 A 
ATOM     32  C   UNL     1      10.438  23.229  19.309  0.00  0.00    +0.024 A 
ATOM     33  C   UNL     1       9.087  23.394  19.783  0.00  0.00    +0.007 A 
ATOM     34  C   UNL     1       8.455  24.683  19.760  0.00  0.00    -0.029 A 
ATOM     35  C   UNL     1       7.006  24.802  20.287  0.00  0.00    +0.045 C 
ENDROOT
BRANCH  10   9
ATOM      4  C   UNL     1       8.071  30.020  21.260  0.00  0.00    +0.077 A 
ATOM      5  C   UNL     1       8.609  29.624  22.530  0.00  0.00    +0.048 A 
ATOM      6  C   UNL     1       9.166  28.329  22.623  0.00  0.00    +0.116 A 
ATOM      7  N   UNL     1       9.180  27.501  21.522  0.00  0.00    -0.223 NA
ATOM      8  C   UNL     1       8.651  27.913  20.313  0.00  0.00    +0.220 A 
ATOM      9  N   UNL     1       8.661  27.099  19.190  0.00  0.00    -0.283 N 
ATOM     36  H   UNL     1       8.255  27.438  18.319  0.00  0.00    +0.155 HD
ATOM     37  N   UNL     1       8.112  29.145  20.198  0.00  0.00    -0.214 NA
BRANCH   4   3
ATOM      1  C   UNL     1       7.312  33.560  19.779  0.00  0.00    +0.020 A 
ATOM      2  C   UNL     1       7.947  32.279  19.988  0.00  0.00    +0.013 A 
ATOM      3  C   UNL     1       7.451  31.359  21.003  0.00  0.00    +0.019 A 
ATOM     38  C   UNL     1       6.301  31.767  21.795  0.00  0.00    +0.120 A 
ATOM     39  N   UNL     1       5.710  33.007  21.573  0.00  0.00    -0.263 NA
ATOM     40  C   UNL     1       6.180  33.902  20.600  0.00  0.00    +0.111 A 
ENDBRANCH   4   3
ENDBRANCH  10   9
BRANCH  12  13
ATOM     13  N   UNL     1      12.536  24.091  18.359  0.00  0.00    -0.281 N 
ATOM     14  C   UNL     1      12.969  23.171  17.419  0.00  0.00    +0.248 C 
ATOM     30  O   UNL     1      12.283  22.263  16.973  0.00  0.00    -0.270 OA
ATOM     31  H   UNL     1      13.260  24.669  18.787  0.00  0.00    +0.155 HD
BRANCH  14  15
ATOM     15  C   UNL     1      14.372  23.263  16.911  0.00  0.00    +0.037 A 
ATOM     16  C   UNL     1      14.684  23.042  15.497  0.00  0.00    +0.013 A 
ATOM     17  C   UNL     1      16.048  23.120  15.037  0.00  0.00    +0.005 A 
ATOM     18  C   UNL     1      17.111  23.422  15.993  0.00  0.00    -0.033 A 
ATOM     28  C   UNL     1      16.772  23.641  17.390  0.00  0.00    +0.005 A 
ATOM     29  C   UNL     1      15.436  23.565  17.844  0.00  0.00    +0.013 A 
BRANCH  18  19
ATOM     19  C   UNL     1      18.596  23.504  15.595  0.00  0.00    +0.119 C 
BRANCH  19  20
ATOM     20  N   UNL     1      19.054  22.624  14.478  0.00  0.00    -0.302 NA
ATOM     21  C   UNL     1      19.043  21.144  14.870  0.00  0.00    +0.066 C 
ATOM     22  C   UNL     1      19.503  20.237  13.683  0.00  0.00    -0.064 C 
ATOM     23  N   UNL     1      20.899  20.666  13.228  0.00  0.00    +0.379 N 
ATOM     24  C   UNL     1      21.358  19.778  12.151  0.00  0.00    -0.096 C 
ATOM     25  H   UNL     1      21.591  20.536  14.093  0.00  0.00    -0.082 HD
ATOM     26  C   UNL     1      20.920  22.137  12.839  0.00  0.00    -0.064 C 
ATOM     27  C   UNL     1      20.433  23.028  14.016  0.00  0.00    +0.066 C 
ENDBRANCH  19  20
ENDBRANCH  18  19
ENDBRANCH  14  15
ENDBRANCH  12  13
TORSDOF 6
ENDMDL
