MODEL 1
REMARK VINA RESULT:      -8.8      0.000      0.000
REMARK  Name = C:\Users\Docking\Desktop\test protocol\1iep_ligandH.pdb
REMARK  8 active torsions:
REMARK  status: ('A' for Active; 'I' for Inactive)
REMARK    1  A    between atoms: _5  and  _11
REMARK    2  A    between atoms: _19  and  _21
REMARK    3  A    between atoms: _22  and  _66
REMARK    4  A    between atoms: _27  and  _30
REMARK    5  A    between atoms: _32  and  _33
REMARK    6  A    between atoms: _38  and  _43
REMARK    7  A    between atoms: _43  and  _46
REMARK    8  A    between atoms: _53  and  _55
REMARK                            x       y       z     vdW  Elec       q    Type
REMARK                         _______ _______ _______ _____ _____    ______ ____
ROOT
ATOM     10  C   UNL     1      19.793  17.679  18.429  0.00  0.00    +0.038 A 
ATOM     11  C   UNL     1      18.504  17.855  17.865  0.00  0.00    +0.047 A 
ATOM     12  C   UNL     1      17.880  19.168  17.811  0.00  0.00    +0.035 A 
ATOM     32  C   UNL     1      18.599  20.280  18.337  0.00  0.00    +0.024 A 
ATOM     33  C   UNL     1      19.910  20.119  18.915  0.00  0.00    +0.007 A 
ATOM     34  C   UNL     1      20.530  18.826  18.974  0.00  0.00    -0.029 A 
ATOM     35  C   UNL     1      21.935  18.710  19.610  0.00  0.00    +0.045 C 
ENDROOT
BRANCH  10   9
ATOM      4  C   UNL     1      20.918  13.601  20.697  0.00  0.00    +0.077 A 
ATOM      5  C   UNL     1      20.386  14.077  21.942  0.00  0.00    +0.048 A 
ATOM      6  C   UNL     1      19.838  15.379  21.957  0.00  0.00    +0.116 A 
ATOM      7  N   UNL     1      19.828  16.140  20.808  0.00  0.00    -0.223 NA
ATOM      8  C   UNL     1      20.351  15.651  19.625  0.00  0.00    +0.220 A 
ATOM      9  N   UNL     1      20.345  16.396  18.456  0.00  0.00    -0.283 N 
ATOM     36  H   UNL     1      20.747  16.002  17.605  0.00  0.00    +0.155 HD
ATOM     37  N   UNL     1      20.881  14.411  19.585  0.00  0.00    -0.214 NA
BRANCH   4   3
ATOM      1  C   UNL     1      23.159  10.427  21.151  0.00  0.00    +0.020 A 
ATOM      2  C   UNL     1      22.605  11.745  21.364  0.00  0.00    +0.013 A 
ATOM      3  C   UNL     1      21.527  12.245  20.520  0.00  0.00    +0.019 A 
ATOM     38  C   UNL     1      21.028  11.380  19.462  0.00  0.00    +0.120 A 
ATOM     39  N   UNL     1      21.581  10.117  19.280  0.00  0.00    -0.263 NA
ATOM     40  C   UNL     1      22.620   9.625  20.085  0.00  0.00    +0.111 A 
ENDBRANCH   4   3
ENDBRANCH  10   9
BRANCH  12  13
ATOM     13  N   UNL     1      16.570  19.407  17.258  0.00  0.00    -0.281 N 
ATOM     14  C   UNL     1      16.238  20.187  16.162  0.00  0.00    +0.248 C 
ATOM     30  O   UNL     1      16.998  20.972  15.616  0.00  0.00    -0.270 OA
ATOM     31  H   UNL     1      15.794  18.946  17.732  0.00  0.00    +0.155 HD
BRANCH  14  15
ATOM     15  C   UNL     1      14.856  20.090  15.599  0.00  0.00    +0.037 A 
ATOM     16  C   UNL     1      14.628  20.002  14.155  0.00  0.00    +0.013 A 
ATOM     17  C   UNL     1      13.285  19.927  13.638  0.00  0.00    +0.005 A 
ATOM     18  C   UNL     1      12.158  19.938  14.568  0.00  0.00    -0.033 A 
ATOM     28  C   UNL     1      12.413  20.021  15.996  0.00  0.00    +0.005 A 
ATOM     29  C   UNL     1      13.728  20.095  16.506  0.00  0.00    +0.013 A 
BRANCH  18  19
ATOM     19  C   UNL     1      10.690  19.882  14.104  0.00  0.00    +0.119 C 
BRANCH  19  20
ATOM     20  N   UNL     1       9.903  18.667  14.468  0.00  0.00    -0.302 NA
ATOM     21  C   UNL     1      10.423  17.412  13.760  0.00  0.00    +0.066 C 
ATOM     22  C   UNL     1       9.603  16.146  14.170  0.00  0.00    -0.064 C 
ATOM     23  N   UNL     1       8.124  16.374  13.852  0.00  0.00    +0.379 N 
ATOM     24  C   UNL     1       7.359  15.164  14.182  0.00  0.00    -0.096 C 
ATOM     25  H   UNL     1       8.037  16.540  12.753  0.00  0.00    -0.082 HD
ATOM     26  C   UNL     1       7.600  17.621  14.549  0.00  0.00    -0.064 C 
ATOM     27  C   UNL     1       8.441  18.869  14.158  0.00  0.00    +0.066 C 
ENDBRANCH  19  20
ENDBRANCH  18  19
ENDBRANCH  14  15
ENDBRANCH  12  13
TORSDOF 6
ENDMDL
MODEL 2
REMARK VINA RESULT:      -8.8      4.627     13.038
REMARK  Name = C:\Users\Docking\Desktop\test protocol\1iep_ligandH.pdb
REMARK  8 active torsions:
REMARK  status: ('A' for Active; 'I' for Inactive)
REMARK    1  A    between atoms: _5  and  _11
REMARK    2  A    between atoms: _19  and  _21
REMARK    3  A    between atoms: _22  and  _66
REMARK    4  A    between atoms: _27  and  _30
REMARK    5  A    between atoms: _32  and  _33
REMARK    6  A    between atoms: _38  and  _43
REMARK    7  A    between atoms: _43  and  _46
REMARK    8  A    between atoms: _53  and  _55
REMARK                            x       y       z     vdW  Elec       q    Type
REMARK                         _______ _______ _______ _____ _____    ______ ____
ROOT
ATOM     10  C   UNL     1      18.898  16.123  20.207  0.00  0.00    +0.038 A 
ATOM     11  C   UNL     1      19.509  14.998  19.597  0.00  0.00    +0.047 A 
ATOM     12  C   UNL     1      20.262  14.033  20.382  0.00  0.00    +0.035 A 
ATOM     32  C   UNL     1      20.372  14.243  21.787  0.00  0.00    +0.024 A 
ATOM     33  C   UNL     1      19.758  15.382  22.424  0.00  0.00    +0.007 A 
ATOM     34  C   UNL     1      19.016  16.338  21.655  0.00  0.00    -0.029 A 
ATOM     35  C   UNL     1      18.384  17.544  22.390  0.00  0.00    +0.045 C 
ENDROOT
BRANCH  10   9
ATOM      4  C   UNL     1      18.665  19.913  17.272  0.00  0.00    +0.077 A 
ATOM      5  C   UNL     1      20.078  20.146  17.364  0.00  0.00    +0.048 A 
ATOM      6  C   UNL     1      20.827  19.272  18.183  0.00  0.00    +0.116 A 
ATOM      7  N   UNL     1      20.200  18.245  18.855  0.00  0.00    -0.223 NA
ATOM      8  C   UNL     1      18.836  18.050  18.746  0.00  0.00    +0.220 A 
ATOM      9  N   UNL     1      18.186  17.019  19.406  0.00  0.00    -0.283 N 
ATOM     36  H   UNL     1      17.177  16.912  19.306  0.00  0.00    +0.155 HD
ATOM     37  N   UNL     1      18.098  18.872  17.971  0.00  0.00    -0.214 NA
BRANCH   4   3
ATOM      1  C   UNL     1      17.268  22.594  14.790  0.00  0.00    +0.020 A 
ATOM      2  C   UNL     1      18.204  21.817  15.568  0.00  0.00    +0.013 A 
ATOM      3  C   UNL     1      17.739  20.749  16.444  0.00  0.00    +0.019 A 
ATOM     38  C   UNL     1      16.308  20.491  16.509  0.00  0.00    +0.120 A 
ATOM     39  N   UNL     1      15.430  21.257  15.749  0.00  0.00    -0.263 NA
ATOM     40  C   UNL     1      15.866  22.288  14.904  0.00  0.00    +0.111 A 
ENDBRANCH   4   3
ENDBRANCH  10   9
BRANCH  12  13
ATOM     13  N   UNL     1      20.911  12.876  19.816  0.00  0.00    -0.281 N 
ATOM     14  C   UNL     1      21.845  12.046  20.413  0.00  0.00    +0.248 C 
ATOM     30  O   UNL     1      22.427  12.299  21.458  0.00  0.00    -0.270 OA
ATOM     31  H   UNL     1      20.650  12.641  18.858  0.00  0.00    +0.155 HD
BRANCH  14  15
ATOM     15  C   UNL     1      22.194  10.754  19.747  0.00  0.00    +0.037 A 
ATOM     16  C   UNL     1      23.582  10.294  19.662  0.00  0.00    +0.013 A 
ATOM     17  C   UNL     1      23.893   9.052  18.999  0.00  0.00    +0.005 A 
ATOM     18  C   UNL     1      22.812   8.261  18.416  0.00  0.00    -0.033 A 
ATOM     28  C   UNL     1      21.443   8.739  18.520  0.00  0.00    +0.005 A 
ATOM     29  C   UNL     1      21.135   9.956  19.168  0.00  0.00    +0.013 A 
BRANCH  18  19
ATOM     19  C   UNL     1      23.054   6.935  17.672  0.00  0.00    +0.119 C 
BRANCH  19  20
ATOM     20  N   UNL     1      23.762   5.852  18.417  0.00  0.00    -0.302 NA
ATOM     21  C   UNL     1      23.554   4.479  17.771  0.00  0.00    +0.066 C 
ATOM     22  C   UNL     1      24.320   3.361  18.551  0.00  0.00    -0.064 C 
ATOM     23  N   UNL     1      23.857   3.350  20.008  0.00  0.00    +0.379 N 
ATOM     24  C   UNL     1      24.533   2.262  20.730  0.00  0.00    -0.096 C 
ATOM     25  H   UNL     1      22.764   3.131  20.014  0.00  0.00    -0.082 HD
ATOM     26  C   UNL     1      24.058   4.712  20.657  0.00  0.00    -0.064 C 
ATOM     27  C   UNL     1      23.316   5.820  19.858  0.00  0.00    +0.066 C 
ENDBRANCH  19  20
ENDBRANCH  18  19
ENDBRANCH  14  15
ENDBRANCH  12  13
TORSDOF 6
ENDMDL
MODEL 3
REMARK VINA RESULT:      -8.6      8.766     13.617
REMARK  Name = C:\Users\Docking\Desktop\test protocol\1iep_ligandH.pdb
REMARK  8 active torsions:
REMARK  status: ('A' for Active; 'I' for Inactive)
REMARK    1  A    between atoms: _5  and  _11
REMARK    2  A    between atoms: _19  and  _21
REMARK    3  A    between atoms: _22  and  _66
REMARK    4  A    between atoms: _27  and  _30
REMARK    5  A    between atoms: _32  and  _33
REMARK    6  A    between atoms: _38  and  _43
REMARK    7  A    between atoms: _43  and  _46
REMARK    8  A    between atoms: _53  and  _55
REMARK                            x       y       z     vdW  Elec       q    Type
REMARK                         _______ _______ _______ _____ _____    ______ ____
ROOT
ATOM     10  C   UNL     1      11.443  20.127  12.317  0.00  0.00    +0.038 A 
ATOM     11  C   UNL     1      10.407  19.184  12.541  0.00  0.00    +0.047 A 
ATOM     12  C   UNL     1      10.592  18.064  13.450  0.00  0.00    +0.035 A 
ATOM     32  C   UNL     1      11.845  17.936  14.117  0.00  0.00    +0.024 A 
ATOM     33  C   UNL     1      12.909  18.884  13.901  0.00  0.00    +0.007 A 
ATOM     34  C   UNL     1      12.733  19.990  13.003  0.00  0.00    -0.029 A 
ATOM     35  C   UNL     1      13.911  20.973  12.804  0.00  0.00    +0.045 C 
ENDROOT
BRANCH  10   9
ATOM      4  C   UNL     1       9.456  24.351  11.199  0.00  0.00    +0.077 A 
ATOM      5  C   UNL     1       8.805  24.449  12.474  0.00  0.00    +0.048 A 
ATOM      6  C   UNL     1       9.001  23.388  13.386  0.00  0.00    +0.116 A 
ATOM      7  N   UNL     1       9.792  22.314  13.039  0.00  0.00    -0.223 NA
ATOM      8  C   UNL     1      10.404  22.250  11.801  0.00  0.00    +0.220 A 
ATOM      9  N   UNL     1      11.210  21.183  11.433  0.00  0.00    -0.283 N 
ATOM     36  H   UNL     1      11.638  21.170  10.508  0.00  0.00    +0.155 HD
ATOM     37  N   UNL     1      10.231  23.250  10.911  0.00  0.00    -0.214 NA
BRANCH   4   3
ATOM      1  C   UNL     1      10.018  26.406   7.918  0.00  0.00    +0.020 A 
ATOM      2  C   UNL     1      10.162  25.375   8.921  0.00  0.00    +0.013 A 
ATOM      3  C   UNL     1       9.349  25.393  10.130  0.00  0.00    +0.019 A 
ATOM     38  C   UNL     1       8.392  26.477  10.296  0.00  0.00    +0.120 A 
ATOM     39  N   UNL     1       8.276  27.457   9.315  0.00  0.00    -0.263 NA
ATOM     40  C   UNL     1       9.055  27.450   8.147  0.00  0.00    +0.111 A 
ENDBRANCH   4   3
ENDBRANCH  10   9
BRANCH  12  13
ATOM     13  N   UNL     1       9.580  17.071  13.710  0.00  0.00    -0.281 N 
ATOM     14  C   UNL     1       9.000  16.744  14.925  0.00  0.00    +0.248 C 
ATOM     30  O   UNL     1       9.420  17.111  16.013  0.00  0.00    -0.270 OA
ATOM     31  H   UNL     1       9.251  16.545  12.901  0.00  0.00    +0.155 HD
BRANCH  14  15
ATOM     15  C   UNL     1       7.787  15.872  14.935  0.00  0.00    +0.037 A 
ATOM     16  C   UNL     1       7.599  14.820  13.932  0.00  0.00    +0.013 A 
ATOM     17  C   UNL     1       6.411  14.004  13.954  0.00  0.00    +0.005 A 
ATOM     18  C   UNL     1       5.401  14.236  14.984  0.00  0.00    -0.033 A 
ATOM     28  C   UNL     1       5.616  15.282  15.970  0.00  0.00    +0.005 A 
ATOM     29  C   UNL     1       6.778  16.085  15.951  0.00  0.00    +0.013 A 
BRANCH  18  19
ATOM     19  C   UNL     1       4.094  13.427  15.071  0.00  0.00    +0.119 C 
BRANCH  19  20
ATOM     20  N   UNL     1       2.952  14.049  15.806  0.00  0.00    -0.302 NA
ATOM     21  C   UNL     1       2.117  13.008  16.557  0.00  0.00    +0.066 C 
ATOM     22  C   UNL     1       0.941  13.678  17.339  0.00  0.00    -0.064 C 
ATOM     23  N   UNL     1       0.069  14.471  16.363  0.00  0.00    +0.379 N 
ATOM     24  C   UNL     1      -1.070  15.055  17.085  0.00  0.00    -0.096 C 
ATOM     25  H   UNL     1      -0.337  13.753  15.613  0.00  0.00    -0.082 HD
ATOM     26  C   UNL     1       0.893  15.506  15.610  0.00  0.00    -0.064 C 
ATOM     27  C   UNL     1       2.076  14.833  14.861  0.00  0.00    +0.066 C 
ENDBRANCH  19  20
ENDBRANCH  18  19
ENDBRANCH  14  15
ENDBRANCH  12  13
TORSDOF 6
ENDMDL
MODEL 4
REMARK VINA RESULT:      -8.5      1.803      2.997
REMARK  Name = C:\Users\Docking\Desktop\test protocol\1iep_ligandH.pdb
REMARK  8 active torsions:
REMARK  status: ('A' for Active; 'I' for Inactive)
REMARK    1  A    between atoms: _5  and  _11
REMARK    2  A    between atoms: _19  and  _21
REMARK    3  A    between atoms: _22  and  _66
REMARK    4  A    between atoms: _27  and  _30
REMARK    5  A    between atoms: _32  and  _33
REMARK    6  A    between atoms: _38  and  _43
REMARK    7  A    between atoms: _43  and  _46
REMARK    8  A    between atoms: _53  and  _55
REMARK                            x       y       z     vdW  Elec       q    Type
REMARK                         _______ _______ _______ _____ _____    ______ ____
ROOT
ATOM     10  C   UNL     1      19.783  17.672  18.418  0.00  0.00    +0.038 A 
ATOM     11  C   UNL     1      18.500  17.846  17.839  0.00  0.00    +0.047 A 
ATOM     12  C   UNL     1      17.874  19.157  17.778  0.00  0.00    +0.035 A 
ATOM     32  C   UNL     1      18.584  20.270  18.315  0.00  0.00    +0.024 A 
ATOM     33  C   UNL     1      19.888  20.111  18.908  0.00  0.00    +0.007 A 
ATOM     34  C   UNL     1      20.510  18.819  18.973  0.00  0.00    -0.029 A 
ATOM     35  C   UNL     1      21.908  18.706  19.626  0.00  0.00    +0.045 C 
ENDROOT
BRANCH  10   9
ATOM      4  C   UNL     1      20.902  13.598  20.696  0.00  0.00    +0.077 A 
ATOM      5  C   UNL     1      20.360  14.074  21.937  0.00  0.00    +0.048 A 
ATOM      6  C   UNL     1      19.810  15.375  21.948  0.00  0.00    +0.116 A 
ATOM      7  N   UNL     1      19.806  16.135  20.798  0.00  0.00    -0.223 NA
ATOM      8  C   UNL     1      20.338  15.646  19.619  0.00  0.00    +0.220 A 
ATOM      9  N   UNL     1      20.338  16.390  18.449  0.00  0.00    -0.283 N 
ATOM     36  H   UNL     1      20.746  15.997  17.601  0.00  0.00    +0.155 HD
ATOM     37  N   UNL     1      20.871  14.407  19.583  0.00  0.00    -0.214 NA
BRANCH   4   3
ATOM      1  C   UNL     1      23.169  10.442  21.147  0.00  0.00    +0.020 A 
ATOM      2  C   UNL     1      22.612  11.759  21.354  0.00  0.00    +0.013 A 
ATOM      3  C   UNL     1      21.516  12.243  20.524  0.00  0.00    +0.019 A 
ATOM     38  C   UNL     1      21.001  11.363  19.487  0.00  0.00    +0.120 A 
ATOM     39  N   UNL     1      21.558  10.100  19.309  0.00  0.00    -0.263 NA
ATOM     40  C   UNL     1      22.615   9.624  20.100  0.00  0.00    +0.111 A 
ENDBRANCH   4   3
ENDBRANCH  10   9
BRANCH  12  13
ATOM     13  N   UNL     1      16.570  19.394  17.210  0.00  0.00    -0.281 N 
ATOM     14  C   UNL     1      16.249  20.176  16.113  0.00  0.00    +0.248 C 
ATOM     30  O   UNL     1      17.013  20.965  15.579  0.00  0.00    -0.270 OA
ATOM     31  H   UNL     1      15.789  18.929  17.673  0.00  0.00    +0.155 HD
BRANCH  14  15
ATOM     15  C   UNL     1      14.875  20.077  15.533  0.00  0.00    +0.037 A 
ATOM     16  C   UNL     1      13.690  20.016  16.392  0.00  0.00    +0.013 A 
ATOM     17  C   UNL     1      12.377  19.904  15.808  0.00  0.00    +0.005 A 
ATOM     18  C   UNL     1      12.243  19.852  14.354  0.00  0.00    -0.033 A 
ATOM     28  C   UNL     1      13.434  19.919  13.525  0.00  0.00    +0.005 A 
ATOM     29  C   UNL     1      14.723  20.028  14.094  0.00  0.00    +0.013 A 
BRANCH  18  19
ATOM     19  C   UNL     1      10.883  19.711  13.644  0.00  0.00    +0.119 C 
BRANCH  19  20
ATOM     20  N   UNL     1      10.356  20.912  12.930  0.00  0.00    -0.302 NA
ATOM     21  C   UNL     1      10.742  20.915  11.449  0.00  0.00    +0.066 C 
ATOM     22  C   UNL     1      10.164  22.167  10.712  0.00  0.00    -0.064 C 
ATOM     23  N   UNL     1      10.662  23.437  11.404  0.00  0.00    +0.379 N 
ATOM     24  C   UNL     1      10.168  24.617  10.679  0.00  0.00    -0.096 C 
ATOM     25  H   UNL     1      11.775  23.443  11.340  0.00  0.00    -0.082 HD
ATOM     26  C   UNL     1      10.285  23.441  12.879  0.00  0.00    -0.064 C 
ATOM     27  C   UNL     1      10.839  22.178  13.595  0.00  0.00    +0.066 C 
ENDBRANCH  19  20
ENDBRANCH  18  19
ENDBRANCH  14  15
ENDBRANCH  12  13
TORSDOF 6
ENDMDL
MODEL 5
REMARK VINA RESULT:      -8.5      3.847     12.189
REMARK  Name = C:\Users\Docking\Desktop\test protocol\1iep_ligandH.pdb
REMARK  8 active torsions:
REMARK  status: ('A' for Active; 'I' for Inactive)
REMARK    1  A    between atoms: _5  and  _11
REMARK    2  A    between atoms: _19  and  _21
REMARK    3  A    between atoms: _22  and  _66
REMARK    4  A    between atoms: _27  and  _30
REMARK    5  A    between atoms: _32  and  _33
REMARK    6  A    between atoms: _38  and  _43
REMARK    7  A    between atoms: _43  and  _46
REMARK    8  A    between atoms: _53  and  _55
REMARK                            x       y       z     vdW  Elec       q    Type
REMARK                         _______ _______ _______ _____ _____    ______ ____
ROOT
ATOM     10  C   UNL     1      13.181  20.120  13.368  0.00  0.00    +0.038 A 
ATOM     11  C   UNL     1      14.364  19.944  14.131  0.00  0.00    +0.047 A 
ATOM     12  C   UNL     1      15.366  20.995  14.219  0.00  0.00    +0.035 A 
ATOM     32  C   UNL     1      15.130  22.214  13.519  0.00  0.00    +0.024 A 
ATOM     33  C   UNL     1      13.934  22.409  12.738  0.00  0.00    +0.007 A 
ATOM     34  C   UNL     1      12.943  21.376  12.646  0.00  0.00    -0.029 A 
ATOM     35  C   UNL     1      11.683  21.638  11.788  0.00  0.00    +0.045 C 
ENDROOT
BRANCH  10   9
ATOM      4  C   UNL     1       9.401  17.734  15.114  0.00  0.00    +0.077 A 
ATOM      5  C   UNL     1       9.282  18.622  16.234  0.00  0.00    +0.048 A 
ATOM      6  C   UNL     1      10.219  19.676  16.328  0.00  0.00    +0.116 A 
ATOM      7  N   UNL     1      11.196  19.822  15.368  0.00  0.00    -0.223 NA
ATOM      8  C   UNL     1      11.283  18.946  14.301  0.00  0.00    +0.220 A 
ATOM      9  N   UNL     1      12.252  19.078  13.319  0.00  0.00    -0.283 N 
ATOM     36  H   UNL     1      12.288  18.408  12.552  0.00  0.00    +0.155 HD
ATOM     37  N   UNL     1      10.401  17.931  14.189  0.00  0.00    -0.214 NA
BRANCH   4   3
ATOM      1  C   UNL     1       7.571  14.703  13.450  0.00  0.00    +0.020 A 
ATOM      2  C   UNL     1       8.476  15.815  13.630  0.00  0.00    +0.013 A 
ATOM      3  C   UNL     1       8.484  16.574  14.874  0.00  0.00    +0.019 A 
ATOM     38  C   UNL     1       7.558  16.179  15.925  0.00  0.00    +0.120 A 
ATOM     39  N   UNL     1       6.697  15.105  15.722  0.00  0.00    -0.263 NA
ATOM     40  C   UNL     1       6.679  14.368  14.528  0.00  0.00    +0.111 A 
ENDBRANCH   4   3
ENDBRANCH  10   9
BRANCH  12  13
ATOM     13  N   UNL     1      16.590  20.870  14.972  0.00  0.00    -0.281 N 
ATOM     14  C   UNL     1      16.735  20.674  16.335  0.00  0.00    +0.248 C 
ATOM     30  O   UNL     1      15.831  20.791  17.150  0.00  0.00    -0.270 OA
ATOM     31  H   UNL     1      17.454  20.934  14.434  0.00  0.00    +0.155 HD
BRANCH  14  15
ATOM     15  C   UNL     1      18.081  20.311  16.874  0.00  0.00    +0.037 A 
ATOM     16  C   UNL     1      18.283  19.084  17.648  0.00  0.00    +0.013 A 
ATOM     17  C   UNL     1      19.589  18.765  18.170  0.00  0.00    +0.005 A 
ATOM     18  C   UNL     1      20.703  19.676  17.918  0.00  0.00    -0.033 A 
ATOM     28  C   UNL     1      20.475  20.884  17.142  0.00  0.00    +0.005 A 
ATOM     29  C   UNL     1      19.196  21.200  16.630  0.00  0.00    +0.013 A 
BRANCH  18  19
ATOM     19  C   UNL     1      22.125  19.427  18.454  0.00  0.00    +0.119 C 
BRANCH  19  20
ATOM     20  N   UNL     1      22.329  19.542  19.929  0.00  0.00    -0.302 NA
ATOM     21  C   UNL     1      23.507  20.456  20.277  0.00  0.00    +0.066 C 
ATOM     22  C   UNL     1      23.692  20.583  21.824  0.00  0.00    -0.064 C 
ATOM     23  N   UNL     1      23.891  19.191  22.427  0.00  0.00    +0.379 N 
ATOM     24  C   UNL     1      24.123  19.311  23.873  0.00  0.00    -0.096 C 
ATOM     25  H   UNL     1      24.810  18.753  21.972  0.00  0.00    -0.082 HD
ATOM     26  C   UNL     1      22.725  18.274  22.084  0.00  0.00    -0.064 C 
ATOM     27  C   UNL     1      22.531  18.179  20.545  0.00  0.00    +0.066 C 
ENDBRANCH  19  20
ENDBRANCH  18  19
ENDBRANCH  14  15
ENDBRANCH  12  13
TORSDOF 6
ENDMDL
