MODEL 1
REMARK VINA RESULT:      -8.7      0.000      0.000
REMARK  Name = C:\Users\Docking\Desktop\test protocol\1iep_ligandH.pdb
REMARK  8 active torsions:
REMARK  status: ('A' for Active; 'I' for Inactive)
REMARK    1  A    between atoms: _5  and  _11
REMARK    2  A    between atoms: _19  and  _21
REMARK    3  A    between atoms: _22  and  _66
REMARK    4  A    between atoms: _27  and  _30
REMARK    5  A    between atoms: _32  and  _33
REMARK    6  A    between atoms: _38  and  _43
REMARK    7  A    between atoms: _43  and  _46
REMARK    8  A    between atoms: _53  and  _55
REMARK                            x       y       z     vdW  Elec       q    Type
REMARK                         _______ _______ _______ _____ _____    ______ ____
ROOT
ATOM     10  C   UNL     1       9.308  20.188  14.290  0.00  0.00    +0.038 A 
ATOM     11  C   UNL     1      10.550  20.030  14.958  0.00  0.00    +0.047 A 
ATOM     12  C   UNL     1      11.707  20.832  14.593  0.00  0.00    +0.035 A 
ATOM     32  C   UNL     1      11.564  21.787  13.544  0.00  0.00    +0.024 A 
ATOM     33  C   UNL     1      10.310  21.959  12.854  0.00  0.00    +0.007 A 
ATOM     34  C   UNL     1       9.166  21.169  13.208  0.00  0.00    -0.029 A 
ATOM     35  C   UNL     1       7.848  21.392  12.430  0.00  0.00    +0.045 C 
ENDROOT
BRANCH  10   9
ATOM      4  C   UNL     1       7.150  15.929  14.783  0.00  0.00    +0.077 A 
ATOM      5  C   UNL     1       8.254  15.234  14.186  0.00  0.00    +0.048 A 
ATOM      6  C   UNL     1       9.354  16.010  13.759  0.00  0.00    +0.116 A 
ATOM      7  N   UNL     1       9.342  17.378  13.922  0.00  0.00    -0.223 NA
ATOM      8  C   UNL     1       8.260  18.018  14.500  0.00  0.00    +0.220 A 
ATOM      9  N   UNL     1       8.229  19.392  14.681  0.00  0.00    -0.283 N 
ATOM     36  H   UNL     1       7.410  19.826  15.105  0.00  0.00    +0.155 HD
ATOM     37  N   UNL     1       7.196  17.299  14.915  0.00  0.00    -0.214 NA
BRANCH   4   3
ATOM      1  C   UNL     1       4.312  13.303  15.374  0.00  0.00    +0.020 A 
ATOM      2  C   UNL     1       5.513  13.916  14.856  0.00  0.00    +0.013 A 
ATOM      3  C   UNL     1       5.915  15.248  15.288  0.00  0.00    +0.019 A 
ATOM     38  C   UNL     1       5.074  15.939  16.253  0.00  0.00    +0.120 A 
ATOM     39  N   UNL     1       3.922  15.324  16.734  0.00  0.00    -0.263 NA
ATOM     40  C   UNL     1       3.524  14.043  16.324  0.00  0.00    +0.111 A 
ENDBRANCH   4   3
ENDBRANCH  10   9
BRANCH  12  13
ATOM     13  N   UNL     1      12.995  20.711  15.230  0.00  0.00    -0.281 N 
ATOM     14  C   UNL     1      13.332  21.026  16.536  0.00  0.00    +0.248 C 
ATOM     30  O   UNL     1      12.622  21.664  17.298  0.00  0.00    -0.270 OA
ATOM     31  H   UNL     1      13.750  20.349  14.647  0.00  0.00    +0.155 HD
BRANCH  14  15
ATOM     15  C   UNL     1      14.656  20.580  17.068  0.00  0.00    +0.037 A 
ATOM     16  C   UNL     1      14.761  19.860  18.339  0.00  0.00    +0.013 A 
ATOM     17  C   UNL     1      16.052  19.456  18.838  0.00  0.00    +0.005 A 
ATOM     18  C   UNL     1      17.249  19.770  18.062  0.00  0.00    -0.033 A 
ATOM     28  C   UNL     1      17.116  20.481  16.801  0.00  0.00    +0.005 A 
ATOM     29  C   UNL     1      15.852  20.879  16.310  0.00  0.00    +0.013 A 
BRANCH  18  19
ATOM     19  C   UNL     1      18.669  19.397  18.527  0.00  0.00    +0.119 C 
BRANCH  19  20
ATOM     20  N   UNL     1      18.789  18.338  19.574  0.00  0.00    -0.302 NA
ATOM     21  C   UNL     1      20.057  18.503  20.416  0.00  0.00    +0.066 C 
ATOM     22  C   UNL     1      20.155  17.401  21.520  0.00  0.00    -0.064 C 
ATOM     23  N   UNL     1      20.119  16.020  20.862  0.00  0.00    +0.379 N 
ATOM     24  C   UNL     1      20.269  14.982  21.892  0.00  0.00    -0.096 C 
ATOM     25  H   UNL     1      20.996  15.948  20.178  0.00  0.00    -0.082 HD
ATOM     26  C   UNL     1      18.862  15.848  20.020  0.00  0.00    -0.064 C 
ATOM     27  C   UNL     1      18.759  16.966  18.946  0.00  0.00    +0.066 C 
ENDBRANCH  19  20
ENDBRANCH  18  19
ENDBRANCH  14  15
ENDBRANCH  12  13
TORSDOF 6
ENDMDL
MODEL 2
REMARK VINA RESULT:      -8.7     16.249     18.460
REMARK  Name = C:\Users\Docking\Desktop\test protocol\1iep_ligandH.pdb
REMARK  8 active torsions:
REMARK  status: ('A' for Active; 'I' for Inactive)
REMARK    1  A    between atoms: _5  and  _11
REMARK    2  A    between atoms: _19  and  _21
REMARK    3  A    between atoms: _22  and  _66
REMARK    4  A    between atoms: _27  and  _30
REMARK    5  A    between atoms: _32  and  _33
REMARK    6  A    between atoms: _38  and  _43
REMARK    7  A    between atoms: _43  and  _46
REMARK    8  A    between atoms: _53  and  _55
REMARK                            x       y       z     vdW  Elec       q    Type
REMARK                         _______ _______ _______ _____ _____    ______ ____
ROOT
ATOM     10  C   UNL     1      26.054   6.837  22.371  0.00  0.00    +0.038 A 
ATOM     11  C   UNL     1      26.097   8.217  22.693  0.00  0.00    +0.047 A 
ATOM     12  C   UNL     1      26.178   8.666  24.074  0.00  0.00    +0.035 A 
ATOM     32  C   UNL     1      26.216   7.680  25.103  0.00  0.00    +0.024 A 
ATOM     33  C   UNL     1      26.172   6.273  24.794  0.00  0.00    +0.007 A 
ATOM     34  C   UNL     1      26.090   5.824  23.433  0.00  0.00    -0.029 A 
ATOM     35  C   UNL     1      26.039   4.303  23.161  0.00  0.00    +0.045 C 
ENDROOT
BRANCH  10   9
ATOM      4  C   UNL     1      23.877   6.846  18.093  0.00  0.00    +0.077 A 
ATOM      5  C   UNL     1      22.788   7.641  18.583  0.00  0.00    +0.048 A 
ATOM      6  C   UNL     1      22.823   8.021  19.943  0.00  0.00    +0.116 A 
ATOM      7  N   UNL     1      23.873   7.630  20.745  0.00  0.00    -0.223 NA
ATOM      8  C   UNL     1      24.907   6.861  20.242  0.00  0.00    +0.220 A 
ATOM      9  N   UNL     1      25.977   6.462  21.028  0.00  0.00    -0.283 N 
ATOM     36  H   UNL     1      26.716   5.889  20.621  0.00  0.00    +0.155 HD
ATOM     37  N   UNL     1      24.896   6.484  18.946  0.00  0.00    -0.214 NA
BRANCH   4   3
ATOM      1  C   UNL     1      23.769   6.694  14.186  0.00  0.00    +0.020 A 
ATOM      2  C   UNL     1      23.647   7.203  15.533  0.00  0.00    +0.013 A 
ATOM      3  C   UNL     1      23.985   6.368  16.678  0.00  0.00    +0.019 A 
ATOM     38  C   UNL     1      24.449   5.012  16.425  0.00  0.00    +0.120 A 
ATOM     39  N   UNL     1      24.556   4.549  15.118  0.00  0.00    -0.263 NA
ATOM     40  C   UNL     1      24.231   5.342  14.008  0.00  0.00    +0.111 A 
ENDBRANCH   4   3
ENDBRANCH  10   9
BRANCH  12  13
ATOM     13  N   UNL     1      26.217  10.054  24.462  0.00  0.00    -0.281 N 
ATOM     14  C   UNL     1      25.246  10.778  25.135  0.00  0.00    +0.248 C 
ATOM     30  O   UNL     1      24.101  10.393  25.319  0.00  0.00    -0.270 OA
ATOM     31  H   UNL     1      27.063  10.565  24.210  0.00  0.00    +0.155 HD
BRANCH  14  15
ATOM     15  C   UNL     1      25.594  12.130  25.669  0.00  0.00    +0.037 A 
ATOM     16  C   UNL     1      26.779  12.851  25.199  0.00  0.00    +0.013 A 
ATOM     17  C   UNL     1      27.101  14.146  25.743  0.00  0.00    +0.005 A 
ATOM     18  C   UNL     1      26.233  14.730  26.763  0.00  0.00    -0.033 A 
ATOM     28  C   UNL     1      25.061  13.995  27.207  0.00  0.00    +0.005 A 
ATOM     29  C   UNL     1      24.743  12.725  26.677  0.00  0.00    +0.013 A 
BRANCH  18  19
ATOM     19  C   UNL     1      26.511  16.098  27.414  0.00  0.00    +0.119 C 
BRANCH  19  20
ATOM     20  N   UNL     1      26.589  17.283  26.509  0.00  0.00    -0.302 NA
ATOM     21  C   UNL     1      27.867  18.095  26.734  0.00  0.00    +0.066 C 
ATOM     22  C   UNL     1      27.943  19.319  25.764  0.00  0.00    -0.064 C 
ATOM     23  N   UNL     1      26.704  20.195  25.954  0.00  0.00    +0.379 N 
ATOM     24  C   UNL     1      26.801  21.376  25.084  0.00  0.00    -0.096 C 
ATOM     25  H   UNL     1      26.701  20.551  27.010  0.00  0.00    -0.082 HD
ATOM     26  C   UNL     1      25.428  19.394  25.734  0.00  0.00    -0.064 C 
ATOM     27  C   UNL     1      25.377  18.164  26.683  0.00  0.00    +0.066 C 
ENDBRANCH  19  20
ENDBRANCH  18  19
ENDBRANCH  14  15
ENDBRANCH  12  13
TORSDOF 6
ENDMDL
MODEL 3
REMARK VINA RESULT:      -8.6      6.836     12.209
REMARK  Name = C:\Users\Docking\Desktop\test protocol\1iep_ligandH.pdb
REMARK  8 active torsions:
REMARK  status: ('A' for Active; 'I' for Inactive)
REMARK    1  A    between atoms: _5  and  _11
REMARK    2  A    between atoms: _19  and  _21
REMARK    3  A    between atoms: _22  and  _66
REMARK    4  A    between atoms: _27  and  _30
REMARK    5  A    between atoms: _32  and  _33
REMARK    6  A    between atoms: _38  and  _43
REMARK    7  A    between atoms: _43  and  _46
REMARK    8  A    between atoms: _53  and  _55
REMARK                            x       y       z     vdW  Elec       q    Type
REMARK                         _______ _______ _______ _____ _____    ______ ____
ROOT
ATOM     10  C   UNL     1      18.431  17.272  20.149  0.00  0.00    +0.038 A 
ATOM     11  C   UNL     1      19.145  16.101  19.789  0.00  0.00    +0.047 A 
ATOM     12  C   UNL     1      20.016  15.428  20.741  0.00  0.00    +0.035 A 
ATOM     32  C   UNL     1      20.133  15.975  22.052  0.00  0.00    +0.024 A 
ATOM     33  C   UNL     1      19.415  17.166  22.434  0.00  0.00    +0.007 A 
ATOM     34  C   UNL     1      18.557  17.835  21.499  0.00  0.00    -0.029 A 
ATOM     35  C   UNL     1      17.817  19.111  21.961  0.00  0.00    +0.045 C 
ENDROOT
BRANCH  10   9
ATOM      4  C   UNL     1      17.581  20.589  16.785  0.00  0.00    +0.077 A 
ATOM      5  C   UNL     1      18.874  21.184  16.961  0.00  0.00    +0.048 A 
ATOM      6  C   UNL     1      19.725  20.611  17.933  0.00  0.00    +0.116 A 
ATOM      7  N   UNL     1      19.304  19.524  18.667  0.00  0.00    -0.223 NA
ATOM      8  C   UNL     1      18.050  18.975  18.473  0.00  0.00    +0.220 A 
ATOM      9  N   UNL     1      17.609  17.877  19.195  0.00  0.00    -0.283 N 
ATOM     36  H   UNL     1      16.674  17.506  19.028  0.00  0.00    +0.155 HD
ATOM     37  N   UNL     1      17.218  19.505  17.553  0.00  0.00    -0.214 NA
BRANCH   4   3
ATOM      1  C   UNL     1      14.318  20.977  14.663  0.00  0.00    +0.020 A 
ATOM      2  C   UNL     1      15.258  20.465  15.633  0.00  0.00    +0.013 A 
ATOM      3  C   UNL     1      16.570  21.078  15.795  0.00  0.00    +0.019 A 
ATOM     38  C   UNL     1      16.902  22.218  14.954  0.00  0.00    +0.120 A 
ATOM     39  N   UNL     1      15.977  22.689  14.027  0.00  0.00    -0.263 NA
ATOM     40  C   UNL     1      14.712  22.105  13.861  0.00  0.00    +0.111 A 
ENDBRANCH   4   3
ENDBRANCH  10   9
BRANCH  12  13
ATOM     13  N   UNL     1      20.772  14.241  20.431  0.00  0.00    -0.281 N 
ATOM     14  C   UNL     1      21.015  13.148  21.247  0.00  0.00    +0.248 C 
ATOM     30  O   UNL     1      20.796  13.121  22.449  0.00  0.00    -0.270 OA
ATOM     31  H   UNL     1      21.178  14.200  19.496  0.00  0.00    +0.155 HD
BRANCH  14  15
ATOM     15  C   UNL     1      21.599  11.912  20.644  0.00  0.00    +0.037 A 
ATOM     16  C   UNL     1      22.677  11.985  19.654  0.00  0.00    +0.013 A 
ATOM     17  C   UNL     1      23.210  10.777  19.076  0.00  0.00    +0.005 A 
ATOM     18  C   UNL     1      22.667   9.485  19.487  0.00  0.00    -0.033 A 
ATOM     28  C   UNL     1      21.601   9.441  20.474  0.00  0.00    +0.005 A 
ATOM     29  C   UNL     1      21.075  10.623  21.043  0.00  0.00    +0.013 A 
BRANCH  18  19
ATOM     19  C   UNL     1      23.161   8.147  18.906  0.00  0.00    +0.119 C 
BRANCH  19  20
ATOM     20  N   UNL     1      23.498   7.063  19.877  0.00  0.00    -0.302 NA
ATOM     21  C   UNL     1      24.770   7.378  20.670  0.00  0.00    +0.066 C 
ATOM     22  C   UNL     1      25.096   6.245  21.697  0.00  0.00    -0.064 C 
ATOM     23  N   UNL     1      25.236   4.914  20.955  0.00  0.00    +0.379 N 
ATOM     24  C   UNL     1      25.599   3.857  21.910  0.00  0.00    -0.096 C 
ATOM     25  H   UNL     1      26.075   5.018  20.230  0.00  0.00    -0.082 HD
ATOM     26  C   UNL     1      23.977   4.595  20.162  0.00  0.00    -0.064 C 
ATOM     27  C   UNL     1      23.645   5.741  19.165  0.00  0.00    +0.066 C 
ENDBRANCH  19  20
ENDBRANCH  18  19
ENDBRANCH  14  15
ENDBRANCH  12  13
TORSDOF 6
ENDMDL
MODEL 4
REMARK VINA RESULT:      -8.5      1.696      2.262
REMARK  Name = C:\Users\Docking\Desktop\test protocol\1iep_ligandH.pdb
REMARK  8 active torsions:
REMARK  status: ('A' for Active; 'I' for Inactive)
REMARK    1  A    between atoms: _5  and  _11
REMARK    2  A    between atoms: _19  and  _21
REMARK    3  A    between atoms: _22  and  _66
REMARK    4  A    between atoms: _27  and  _30
REMARK    5  A    between atoms: _32  and  _33
REMARK    6  A    between atoms: _38  and  _43
REMARK    7  A    between atoms: _43  and  _46
REMARK    8  A    between atoms: _53  and  _55
REMARK                            x       y       z     vdW  Elec       q    Type
REMARK                         _______ _______ _______ _____ _____    ______ ____
ROOT
ATOM     10  C   UNL     1       9.117  20.735  13.854  0.00  0.00    +0.038 A 
ATOM     11  C   UNL     1      10.424  20.568  14.378  0.00  0.00    +0.047 A 
ATOM     12  C   UNL     1      11.500  21.480  14.022  0.00  0.00    +0.035 A 
ATOM     32  C   UNL     1      11.208  22.554  13.131  0.00  0.00    +0.024 A 
ATOM     33  C   UNL     1       9.886  22.738  12.588  0.00  0.00    +0.007 A 
ATOM     34  C   UNL     1       8.821  21.840  12.934  0.00  0.00    -0.029 A 
ATOM     35  C   UNL     1       7.424  22.081  12.316  0.00  0.00    +0.045 C 
ENDROOT
BRANCH  10   9
ATOM      4  C   UNL     1       7.517  16.270  14.592  0.00  0.00    +0.077 A 
ATOM      5  C   UNL     1       8.759  15.691  14.168  0.00  0.00    +0.048 A 
ATOM      6  C   UNL     1       9.782  16.577  13.762  0.00  0.00    +0.116 A 
ATOM      7  N   UNL     1       9.568  17.938  13.781  0.00  0.00    -0.223 NA
ATOM      8  C   UNL     1       8.357  18.463  14.194  0.00  0.00    +0.220 A 
ATOM      9  N   UNL     1       8.122  19.829  14.229  0.00  0.00    -0.283 N 
ATOM     36  H   UNL     1       7.213  20.177  14.532  0.00  0.00    +0.155 HD
ATOM     37  N   UNL     1       7.364  17.639  14.585  0.00  0.00    -0.214 NA
BRANCH   4   3
ATOM      1  C   UNL     1       4.914  13.386  15.047  0.00  0.00    +0.020 A 
ATOM      2  C   UNL     1       6.063  14.120  14.568  0.00  0.00    +0.013 A 
ATOM      3  C   UNL     1       6.341  15.466  15.053  0.00  0.00    +0.019 A 
ATOM     38  C   UNL     1       5.432  16.044  16.031  0.00  0.00    +0.120 A 
ATOM     39  N   UNL     1       4.333  15.314  16.472  0.00  0.00    -0.263 NA
ATOM     40  C   UNL     1       4.054  14.019  16.011  0.00  0.00    +0.111 A 
ENDBRANCH   4   3
ENDBRANCH  10   9
BRANCH  12  13
ATOM     13  N   UNL     1      12.849  21.355  14.517  0.00  0.00    -0.281 N 
ATOM     14  C   UNL     1      14.032  21.568  13.828  0.00  0.00    +0.248 C 
ATOM     30  O   UNL     1      14.112  21.691  12.614  0.00  0.00    -0.270 OA
ATOM     31  H   UNL     1      12.943  21.077  15.493  0.00  0.00    +0.155 HD
BRANCH  14  15
ATOM     15  C   UNL     1      15.312  21.640  14.595  0.00  0.00    +0.037 A 
ATOM     16  C   UNL     1      16.420  22.486  14.147  0.00  0.00    +0.013 A 
ATOM     17  C   UNL     1      17.651  22.524  14.897  0.00  0.00    +0.005 A 
ATOM     18  C   UNL     1      17.778  21.713  16.106  0.00  0.00    -0.033 A 
ATOM     28  C   UNL     1      16.661  20.886  16.530  0.00  0.00    +0.005 A 
ATOM     29  C   UNL     1      15.454  20.846  15.797  0.00  0.00    +0.013 A 
BRANCH  18  19
ATOM     19  C   UNL     1      19.061  21.675  16.956  0.00  0.00    +0.119 C 
BRANCH  19  20
ATOM     20  N   UNL     1      19.170  20.595  17.982  0.00  0.00    -0.302 NA
ATOM     21  C   UNL     1      19.364  21.160  19.392  0.00  0.00    +0.066 C 
ATOM     22  C   UNL     1      19.454  20.018  20.456  0.00  0.00    -0.064 C 
ATOM     23  N   UNL     1      20.598  19.071  20.089  0.00  0.00    +0.379 N 
ATOM     24  C   UNL     1      20.722  18.029  21.118  0.00  0.00    -0.096 C 
ATOM     25  H   UNL     1      21.542  19.665  20.093  0.00  0.00    -0.082 HD
ATOM     26  C   UNL     1      20.415  18.507  18.687  0.00  0.00    -0.064 C 
ATOM     27  C   UNL     1      20.297  19.652  17.642  0.00  0.00    +0.066 C 
ENDBRANCH  19  20
ENDBRANCH  18  19
ENDBRANCH  14  15
ENDBRANCH  12  13
TORSDOF 6
ENDMDL
MODEL 5
REMARK VINA RESULT:      -8.4      2.632     12.473
REMARK  Name = C:\Users\Docking\Desktop\test protocol\1iep_ligandH.pdb
REMARK  8 active torsions:
REMARK  status: ('A' for Active; 'I' for Inactive)
REMARK    1  A    between atoms: _5  and  _11
REMARK    2  A    between atoms: _19  and  _21
REMARK    3  A    between atoms: _22  and  _66
REMARK    4  A    between atoms: _27  and  _30
REMARK    5  A    between atoms: _32  and  _33
REMARK    6  A    between atoms: _38  and  _43
REMARK    7  A    between atoms: _43  and  _46
REMARK    8  A    between atoms: _53  and  _55
REMARK                            x       y       z     vdW  Elec       q    Type
REMARK                         _______ _______ _______ _____ _____    ______ ____
ROOT
ATOM     10  C   UNL     1      19.580  17.541  19.475  0.00  0.00    +0.038 A 
ATOM     11  C   UNL     1      18.275  17.730  18.954  0.00  0.00    +0.047 A 
ATOM     12  C   UNL     1      17.572  18.993  19.123  0.00  0.00    +0.035 A 
ATOM     32  C   UNL     1      18.231  20.043  19.827  0.00  0.00    +0.024 A 
ATOM     33  C   UNL     1      19.557  19.868  20.364  0.00  0.00    +0.007 A 
ATOM     34  C   UNL     1      20.254  18.624  20.202  0.00  0.00    -0.029 A 
ATOM     35  C   UNL     1      21.672  18.491  20.805  0.00  0.00    +0.045 C 
ENDROOT
BRANCH  10   9
ATOM      4  C   UNL     1      20.992  13.224  21.026  0.00  0.00    +0.077 A 
ATOM      5  C   UNL     1      20.457  13.455  22.337  0.00  0.00    +0.048 A 
ATOM      6  C   UNL     1      19.833  14.700  22.574  0.00  0.00    +0.116 A 
ATOM      7  N   UNL     1      19.755  15.637  21.566  0.00  0.00    -0.223 NA
ATOM      8  C   UNL     1      20.282  15.384  20.314  0.00  0.00    +0.220 A 
ATOM      9  N   UNL     1      20.208  16.309  19.284  0.00  0.00    -0.283 N 
ATOM     36  H   UNL     1      20.616  16.086  18.376  0.00  0.00    +0.155 HD
ATOM     37  N   UNL     1      20.885  14.203  20.063  0.00  0.00    -0.214 NA
BRANCH   4   3
ATOM      1  C   UNL     1      23.518  10.684  19.455  0.00  0.00    +0.020 A 
ATOM      2  C   UNL     1      22.895  11.936  19.819  0.00  0.00    +0.013 A 
ATOM      3  C   UNL     1      21.678  11.957  20.621  0.00  0.00    +0.019 A 
ATOM     38  C   UNL     1      21.115  10.684  21.044  0.00  0.00    +0.120 A 
ATOM     39  N   UNL     1      21.736   9.494  20.678  0.00  0.00    -0.263 NA
ATOM     40  C   UNL     1      22.906   9.462  19.904  0.00  0.00    +0.111 A 
ENDBRANCH   4   3
ENDBRANCH  10   9
BRANCH  12  13
ATOM     13  N   UNL     1      16.243  19.240  18.623  0.00  0.00    -0.281 N 
ATOM     14  C   UNL     1      15.863  20.087  17.594  0.00  0.00    +0.248 C 
ATOM     30  O   UNL     1      16.592  20.926  17.086  0.00  0.00    -0.270 OA
ATOM     31  H   UNL     1      15.489  18.729  19.083  0.00  0.00    +0.155 HD
BRANCH  14  15
ATOM     15  C   UNL     1      14.469  19.998  17.063  0.00  0.00    +0.037 A 
ATOM     16  C   UNL     1      13.368  19.509  17.896  0.00  0.00    +0.013 A 
ATOM     17  C   UNL     1      12.036  19.417  17.354  0.00  0.00    +0.005 A 
ATOM     18  C   UNL     1      11.797  19.818  15.969  0.00  0.00    -0.033 A 
ATOM     28  C   UNL     1      12.907  20.305  15.166  0.00  0.00    +0.005 A 
ATOM     29  C   UNL     1      14.214  20.395  15.695  0.00  0.00    +0.013 A 
BRANCH  18  19
ATOM     19  C   UNL     1      10.412  19.734  15.301  0.00  0.00    +0.119 C 
BRANCH  19  20
ATOM     20  N   UNL     1       9.759  18.392  15.248  0.00  0.00    -0.302 NA
ATOM     21  C   UNL     1      10.399  17.483  14.194  0.00  0.00    +0.066 C 
ATOM     22  C   UNL     1       9.719  16.076  14.168  0.00  0.00    -0.064 C 
ATOM     23  N   UNL     1       8.221  16.241  13.902  0.00  0.00    +0.379 N 
ATOM     24  C   UNL     1       7.588  14.917  13.819  0.00  0.00    -0.096 C 
ATOM     25  H   UNL     1       8.107  16.734  12.909  0.00  0.00    -0.082 HD
ATOM     26  C   UNL     1       7.578  17.146  14.943  0.00  0.00    -0.064 C 
ATOM     27  C   UNL     1       8.280  18.532  14.982  0.00  0.00    +0.066 C 
ENDBRANCH  19  20
ENDBRANCH  18  19
ENDBRANCH  14  15
ENDBRANCH  12  13
TORSDOF 6
ENDMDL
