MODEL 1
REMARK VINA RESULT:     -11.4      0.000      0.000
REMARK  Name = C:\Users\Docking\Desktop\test protocol\1iep_ligandH.pdb
REMARK  8 active torsions:
REMARK  status: ('A' for Active; 'I' for Inactive)
REMARK    1  A    between atoms: _5  and  _11
REMARK    2  A    between atoms: _19  and  _21
REMARK    3  A    between atoms: _22  and  _66
REMARK    4  A    between atoms: _27  and  _30
REMARK    5  A    between atoms: _32  and  _33
REMARK    6  A    between atoms: _38  and  _43
REMARK    7  A    between atoms: _43  and  _46
REMARK    8  A    between atoms: _53  and  _55
REMARK                            x       y       z     vdW  Elec       q    Type
REMARK                         _______ _______ _______ _____ _____    ______ ____
ROOT
ATOM     10  C   UNL     1      -4.281  -5.766  -6.328  0.00  0.00    +0.038 A 
ATOM     11  C   UNL     1      -5.627  -6.199  -6.436  0.00  0.00    +0.047 A 
ATOM     12  C   UNL     1      -6.090  -6.931  -7.605  0.00  0.00    +0.035 A 
ATOM     32  C   UNL     1      -5.154  -7.207  -8.644  0.00  0.00    +0.024 A 
ATOM     33  C   UNL     1      -3.782  -6.773  -8.550  0.00  0.00    +0.007 A 
ATOM     34  C   UNL     1      -3.320  -6.049  -7.401  0.00  0.00    -0.029 A 
ATOM     35  C   UNL     1      -1.840  -5.603  -7.357  0.00  0.00    +0.045 C 
ENDROOT
BRANCH  10   9
ATOM      4  C   UNL     1      -2.391  -5.583  -1.919  0.00  0.00    +0.077 A 
ATOM      5  C   UNL     1      -2.189  -7.003  -1.883  0.00  0.00    +0.048 A 
ATOM      6  C   UNL     1      -2.591  -7.745  -3.016  0.00  0.00    +0.116 A 
ATOM      7  N   UNL     1      -3.153  -7.104  -4.099  0.00  0.00    -0.223 NA
ATOM      8  C   UNL     1      -3.335  -5.733  -4.101  0.00  0.00    +0.220 A 
ATOM      9  N   UNL     1      -3.890  -5.068  -5.183  0.00  0.00    -0.283 N 
ATOM     36  H   UNL     1      -4.015  -4.056  -5.143  0.00  0.00    +0.155 HD
ATOM     37  N   UNL     1      -2.960  -5.003  -3.031  0.00  0.00    -0.214 NA
BRANCH   4   3
ATOM      1  C   UNL     1      -2.540  -2.862   0.887  0.00  0.00    +0.020 A 
ATOM      2  C   UNL     1      -2.954  -3.730  -0.191  0.00  0.00    +0.013 A 
ATOM      3  C   UNL     1      -2.014  -4.662  -0.801  0.00  0.00    +0.019 A 
ATOM     38  C   UNL     1      -0.652  -4.693  -0.291  0.00  0.00    +0.120 A 
ATOM     39  N   UNL     1      -0.281  -3.844   0.748  0.00  0.00    -0.263 NA
ATOM     40  C   UNL     1      -1.176  -2.942   1.341  0.00  0.00    +0.111 A 
ENDBRANCH   4   3
ENDBRANCH  10   9
BRANCH  12  13
ATOM     13  N   UNL     1      -7.447  -7.389  -7.775  0.00  0.00    -0.281 N 
ATOM     14  C   UNL     1      -8.202  -7.402  -8.936  0.00  0.00    +0.248 C 
ATOM     30  O   UNL     1      -7.896  -6.820  -9.967  0.00  0.00    -0.270 OA
ATOM     31  H   UNL     1      -7.906  -7.746  -6.938  0.00  0.00    +0.155 HD
BRANCH  14  15
ATOM     15  C   UNL     1      -9.491  -8.158  -8.951  0.00  0.00    +0.037 A 
ATOM     16  C   UNL     1     -10.025  -8.726 -10.191  0.00  0.00    +0.013 A 
ATOM     17  C   UNL     1     -11.279  -9.437 -10.180  0.00  0.00    +0.005 A 
ATOM     18  C   UNL     1     -12.007  -9.584  -8.922  0.00  0.00    -0.033 A 
ATOM     28  C   UNL     1     -11.452  -9.015  -7.705  0.00  0.00    +0.005 A 
ATOM     29  C   UNL     1     -10.224  -8.317  -7.713  0.00  0.00    +0.013 A 
BRANCH  18  19
ATOM     19  C   UNL     1     -13.363 -10.308  -8.821  0.00  0.00    +0.119 C 
BRANCH  19  20
ATOM     20  N   UNL     1     -14.131 -10.503 -10.087  0.00  0.00    -0.302 NA
ATOM     21  C   UNL     1     -14.440  -9.174 -10.782  0.00  0.00    +0.066 C 
ATOM     22  C   UNL     1     -15.224  -9.398 -12.116  0.00  0.00    -0.064 C 
ATOM     23  N   UNL     1     -16.512 -10.169 -11.824  0.00  0.00    +0.379 N 
ATOM     24  C   UNL     1     -17.279 -10.331 -13.068  0.00  0.00    -0.096 C 
ATOM     25  H   UNL     1     -17.124  -9.552 -11.126  0.00  0.00    -0.082 HD
ATOM     26  C   UNL     1     -16.214 -11.491 -11.131  0.00  0.00    -0.064 C 
ATOM     27  C   UNL     1     -15.409 -11.259  -9.822  0.00  0.00    +0.066 C 
ENDBRANCH  19  20
ENDBRANCH  18  19
ENDBRANCH  14  15
ENDBRANCH  12  13
TORSDOF 6
ENDMDL
MODEL 2
REMARK VINA RESULT:     -11.4      5.665     13.363
REMARK  Name = C:\Users\Docking\Desktop\test protocol\1iep_ligandH.pdb
REMARK  8 active torsions:
REMARK  status: ('A' for Active; 'I' for Inactive)
REMARK    1  A    between atoms: _5  and  _11
REMARK    2  A    between atoms: _19  and  _21
REMARK    3  A    between atoms: _22  and  _66
REMARK    4  A    between atoms: _27  and  _30
REMARK    5  A    between atoms: _32  and  _33
REMARK    6  A    between atoms: _38  and  _43
REMARK    7  A    between atoms: _43  and  _46
REMARK    8  A    between atoms: _53  and  _55
REMARK                            x       y       z     vdW  Elec       q    Type
REMARK                         _______ _______ _______ _____ _____    ______ ____
ROOT
ATOM     10  C   UNL     1      -3.550  -5.923  -4.582  0.00  0.00    +0.038 A 
ATOM     11  C   UNL     1      -3.459  -4.544  -4.267  0.00  0.00    +0.047 A 
ATOM     12  C   UNL     1      -2.263  -3.990  -3.650  0.00  0.00    +0.035 A 
ATOM     32  C   UNL     1      -1.177  -4.871  -3.372  0.00  0.00    +0.024 A 
ATOM     33  C   UNL     1      -1.253  -6.276  -3.685  0.00  0.00    +0.007 A 
ATOM     34  C   UNL     1      -2.432  -6.828  -4.291  0.00  0.00    -0.029 A 
ATOM     35  C   UNL     1      -2.460  -8.343  -4.599  0.00  0.00    +0.045 C 
ENDROOT
BRANCH  10   9
ATOM      4  C   UNL     1      -6.267  -6.887  -8.420  0.00  0.00    +0.077 A 
ATOM      5  C   UNL     1      -5.279  -6.370  -9.323  0.00  0.00    +0.048 A 
ATOM      6  C   UNL     1      -4.088  -5.859  -8.759  0.00  0.00    +0.116 A 
ATOM      7  N   UNL     1      -3.910  -5.869  -7.392  0.00  0.00    -0.223 NA
ATOM      8  C   UNL     1      -4.884  -6.373  -6.550  0.00  0.00    +0.220 A 
ATOM      9  N   UNL     1      -4.722  -6.401  -5.173  0.00  0.00    -0.283 N 
ATOM     36  H   UNL     1      -5.467  -6.774  -4.586  0.00  0.00    +0.155 HD
ATOM     37  N   UNL     1      -6.030  -6.866  -7.064  0.00  0.00    -0.214 NA
BRANCH   4   3
ATOM      1  C   UNL     1      -9.103  -8.461 -10.606  0.00  0.00    +0.020 A 
ATOM      2  C   UNL     1      -7.821  -7.910 -10.229  0.00  0.00    +0.013 A 
ATOM      3  C   UNL     1      -7.575  -7.464  -8.864  0.00  0.00    +0.019 A 
ATOM     38  C   UNL     1      -8.654  -7.590  -7.896  0.00  0.00    +0.120 A 
ATOM     39  N   UNL     1      -9.878  -8.123  -8.288  0.00  0.00    -0.263 NA
ATOM     40  C   UNL     1     -10.128  -8.554  -9.600  0.00  0.00    +0.111 A 
ENDBRANCH   4   3
ENDBRANCH  10   9
BRANCH  12  13
ATOM     13  N   UNL     1      -2.116  -2.600  -3.300  0.00  0.00    -0.281 N 
ATOM     14  C   UNL     1      -0.955  -1.844  -3.281  0.00  0.00    +0.248 C 
ATOM     30  O   UNL     1       0.173  -2.309  -3.357  0.00  0.00    -0.270 OA
ATOM     31  H   UNL     1      -2.972  -2.113  -3.034  0.00  0.00    +0.155 HD
BRANCH  14  15
ATOM     15  C   UNL     1      -1.061  -0.360  -3.142  0.00  0.00    +0.037 A 
ATOM     16  C   UNL     1      -0.697   0.315  -1.894  0.00  0.00    +0.013 A 
ATOM     17  C   UNL     1      -0.825   1.746  -1.781  0.00  0.00    +0.005 A 
ATOM     18  C   UNL     1      -1.319   2.513  -2.923  0.00  0.00    -0.033 A 
ATOM     28  C   UNL     1      -1.667   1.819  -4.151  0.00  0.00    +0.005 A 
ATOM     29  C   UNL     1      -1.544   0.416  -4.265  0.00  0.00    +0.013 A 
BRANCH  18  19
ATOM     19  C   UNL     1      -1.507   4.041  -2.885  0.00  0.00    +0.119 C 
BRANCH  19  20
ATOM     20  N   UNL     1      -2.814   4.581  -3.366  0.00  0.00    -0.302 NA
ATOM     21  C   UNL     1      -2.727   6.069  -3.717  0.00  0.00    +0.066 C 
ATOM     22  C   UNL     1      -4.098   6.611  -4.239  0.00  0.00    -0.064 C 
ATOM     23  N   UNL     1      -5.176   6.366  -3.182  0.00  0.00    +0.379 N 
ATOM     24  C   UNL     1      -6.454   6.927  -3.646  0.00  0.00    -0.096 C 
ATOM     25  H   UNL     1      -4.878   6.919  -2.261  0.00  0.00    -0.082 HD
ATOM     26  C   UNL     1      -5.267   4.889  -2.825  0.00  0.00    -0.064 C 
ATOM     27  C   UNL     1      -3.893   4.353  -2.335  0.00  0.00    +0.066 C 
ENDBRANCH  19  20
ENDBRANCH  18  19
ENDBRANCH  14  15
ENDBRANCH  12  13
TORSDOF 6
ENDMDL
MODEL 3
REMARK VINA RESULT:     -11.3      1.286      1.646
REMARK  Name = C:\Users\Docking\Desktop\test protocol\1iep_ligandH.pdb
REMARK  8 active torsions:
REMARK  status: ('A' for Active; 'I' for Inactive)
REMARK    1  A    between atoms: _5  and  _11
REMARK    2  A    between atoms: _19  and  _21
REMARK    3  A    between atoms: _22  and  _66
REMARK    4  A    between atoms: _27  and  _30
REMARK    5  A    between atoms: _32  and  _33
REMARK    6  A    between atoms: _38  and  _43
REMARK    7  A    between atoms: _43  and  _46
REMARK    8  A    between atoms: _53  and  _55
REMARK                            x       y       z     vdW  Elec       q    Type
REMARK                         _______ _______ _______ _____ _____    ______ ____
ROOT
ATOM     10  C   UNL     1      -4.306  -6.045  -6.218  0.00  0.00    +0.038 A 
ATOM     11  C   UNL     1      -5.654  -6.435  -6.422  0.00  0.00    +0.047 A 
ATOM     12  C   UNL     1      -6.182  -6.647  -7.761  0.00  0.00    +0.035 A 
ATOM     32  C   UNL     1      -5.307  -6.457  -8.870  0.00  0.00    +0.024 A 
ATOM     33  C   UNL     1      -3.934  -6.060  -8.681  0.00  0.00    +0.007 A 
ATOM     34  C   UNL     1      -3.408  -5.846  -7.363  0.00  0.00    -0.029 A 
ATOM     35  C   UNL     1      -1.930  -5.416  -7.220  0.00  0.00    +0.045 C 
ENDROOT
BRANCH  10   9
ATOM      4  C   UNL     1      -1.955  -7.510  -2.299  0.00  0.00    +0.077 A 
ATOM      5  C   UNL     1      -1.625  -8.772  -2.896  0.00  0.00    +0.048 A 
ATOM      6  C   UNL     1      -2.086  -9.008  -4.211  0.00  0.00    +0.116 A 
ATOM      7  N   UNL     1      -2.820  -8.046  -4.870  0.00  0.00    -0.223 NA
ATOM      8  C   UNL     1      -3.122  -6.840  -4.264  0.00  0.00    +0.220 A 
ATOM      9  N   UNL     1      -3.852  -5.855  -4.911  0.00  0.00    -0.283 N 
ATOM     36  H   UNL     1      -4.060  -4.981  -4.428  0.00  0.00    +0.155 HD
ATOM     37  N   UNL     1      -2.695  -6.591  -3.009  0.00  0.00    -0.214 NA
BRANCH   4   3
ATOM      1  C   UNL     1       0.036  -7.190   1.053  0.00  0.00    +0.020 A 
ATOM      2  C   UNL     1      -0.322  -7.607  -0.283  0.00  0.00    +0.013 A 
ATOM      3  C   UNL     1      -1.537  -7.111  -0.917  0.00  0.00    +0.019 A 
ATOM     38  C   UNL     1      -2.374  -6.187  -0.167  0.00  0.00    +0.120 A 
ATOM     39  N   UNL     1      -2.004  -5.805   1.119  0.00  0.00    -0.263 NA
ATOM     40  C   UNL     1      -0.838  -6.277   1.740  0.00  0.00    +0.111 A 
ENDBRANCH   4   3
ENDBRANCH  10   9
BRANCH  12  13
ATOM     13  N   UNL     1      -7.544  -7.035  -8.030  0.00  0.00    -0.281 N 
ATOM     14  C   UNL     1      -8.082  -7.484  -9.226  0.00  0.00    +0.248 C 
ATOM     30  O   UNL     1      -7.516  -7.416 -10.307  0.00  0.00    -0.270 OA
ATOM     31  H   UNL     1      -8.191  -6.972  -7.244  0.00  0.00    +0.155 HD
BRANCH  14  15
ATOM     15  C   UNL     1      -9.452  -8.081  -9.222  0.00  0.00    +0.037 A 
ATOM     16  C   UNL     1     -10.089  -8.529 -10.463  0.00  0.00    +0.013 A 
ATOM     17  C   UNL     1     -11.418  -9.086 -10.434  0.00  0.00    +0.005 A 
ATOM     18  C   UNL     1     -12.119  -9.198  -9.158  0.00  0.00    -0.033 A 
ATOM     28  C   UNL     1     -11.462  -8.751  -7.941  0.00  0.00    +0.005 A 
ATOM     29  C   UNL     1     -10.160  -8.203  -7.966  0.00  0.00    +0.013 A 
BRANCH  18  19
ATOM     19  C   UNL     1     -13.548  -9.760  -9.035  0.00  0.00    +0.119 C 
BRANCH  19  20
ATOM     20  N   UNL     1     -14.202 -10.245 -10.287  0.00  0.00    -0.302 NA
ATOM     21  C   UNL     1     -14.675  -9.088 -11.173  0.00  0.00    +0.066 C 
ATOM     22  C   UNL     1     -15.337  -9.613 -12.489  0.00  0.00    -0.064 C 
ATOM     23  N   UNL     1     -16.503 -10.538 -12.137  0.00  0.00    +0.379 N 
ATOM     24  C   UNL     1     -17.163 -10.986 -13.371  0.00  0.00    -0.096 C 
ATOM     25  H   UNL     1     -17.243  -9.941 -11.554  0.00  0.00    -0.082 HD
ATOM     26  C   UNL     1     -16.042 -11.689 -11.254  0.00  0.00    -0.064 C 
ATOM     27  C   UNL     1     -15.360 -11.157  -9.963  0.00  0.00    +0.066 C 
ENDBRANCH  19  20
ENDBRANCH  18  19
ENDBRANCH  14  15
ENDBRANCH  12  13
TORSDOF 6
ENDMDL
MODEL 4
REMARK VINA RESULT:     -11.2      2.254      3.038
REMARK  Name = C:\Users\Docking\Desktop\test protocol\1iep_ligandH.pdb
REMARK  8 active torsions:
REMARK  status: ('A' for Active; 'I' for Inactive)
REMARK    1  A    between atoms: _5  and  _11
REMARK    2  A    between atoms: _19  and  _21
REMARK    3  A    between atoms: _22  and  _66
REMARK    4  A    between atoms: _27  and  _30
REMARK    5  A    between atoms: _32  and  _33
REMARK    6  A    between atoms: _38  and  _43
REMARK    7  A    between atoms: _43  and  _46
REMARK    8  A    between atoms: _53  and  _55
REMARK                            x       y       z     vdW  Elec       q    Type
REMARK                         _______ _______ _______ _____ _____    ______ ____
ROOT
ATOM     10  C   UNL     1      -3.799  -6.106  -5.765  0.00  0.00    +0.038 A 
ATOM     11  C   UNL     1      -5.116  -6.444  -6.168  0.00  0.00    +0.047 A 
ATOM     12  C   UNL     1      -5.510  -6.393  -7.567  0.00  0.00    +0.035 A 
ATOM     32  C   UNL     1      -4.537  -5.996  -8.530  0.00  0.00    +0.024 A 
ATOM     33  C   UNL     1      -3.194  -5.649  -8.137  0.00  0.00    +0.007 A 
ATOM     34  C   UNL     1      -2.800  -5.694  -6.758  0.00  0.00    -0.029 A 
ATOM     35  C   UNL     1      -1.348  -5.305  -6.394  0.00  0.00    +0.045 C 
ENDROOT
BRANCH  10   9
ATOM      4  C   UNL     1      -1.920  -8.362  -1.967  0.00  0.00    +0.077 A 
ATOM      5  C   UNL     1      -1.580  -9.517  -2.747  0.00  0.00    +0.048 A 
ATOM      6  C   UNL     1      -1.913  -9.494  -4.120  0.00  0.00    +0.116 A 
ATOM      7  N   UNL     1      -2.538  -8.392  -4.663  0.00  0.00    -0.223 NA
ATOM      8  C   UNL     1      -2.853  -7.295  -3.882  0.00  0.00    +0.220 A 
ATOM      9  N   UNL     1      -3.474  -6.172  -4.408  0.00  0.00    -0.283 N 
ATOM     36  H   UNL     1      -3.697  -5.386  -3.797  0.00  0.00    +0.155 HD
ATOM     37  N   UNL     1      -2.547  -7.293  -2.568  0.00  0.00    -0.214 NA
BRANCH   4   3
ATOM      1  C   UNL     1      -1.735  -7.006   1.697  0.00  0.00    +0.020 A 
ATOM      2  C   UNL     1      -2.039  -7.080   0.287  0.00  0.00    +0.013 A 
ATOM      3  C   UNL     1      -1.631  -8.234  -0.504  0.00  0.00    +0.019 A 
ATOM     38  C   UNL     1      -0.912  -9.306   0.169  0.00  0.00    +0.120 A 
ATOM     39  N   UNL     1      -0.632  -9.207   1.528  0.00  0.00    -0.263 NA
ATOM     40  C   UNL     1      -1.018  -8.100   2.299  0.00  0.00    +0.111 A 
ENDBRANCH   4   3
ENDBRANCH  10   9
BRANCH  12  13
ATOM     13  N   UNL     1      -6.835  -6.717  -8.036  0.00  0.00    -0.281 N 
ATOM     14  C   UNL     1      -7.190  -7.359  -9.211  0.00  0.00    +0.248 C 
ATOM     30  O   UNL     1      -6.428  -7.562 -10.144  0.00  0.00    -0.270 OA
ATOM     31  H   UNL     1      -7.605  -6.439  -7.427  0.00  0.00    +0.155 HD
BRANCH  14  15
ATOM     15  C   UNL     1      -8.598  -7.829  -9.380  0.00  0.00    +0.037 A 
ATOM     16  C   UNL     1      -9.539  -7.830  -8.257  0.00  0.00    +0.013 A 
ATOM     17  C   UNL     1     -10.887  -8.305  -8.444  0.00  0.00    +0.005 A 
ATOM     18  C   UNL     1     -11.303  -8.782  -9.761  0.00  0.00    -0.033 A 
ATOM     28  C   UNL     1     -10.351  -8.765 -10.859  0.00  0.00    +0.005 A 
ATOM     29  C   UNL     1      -9.028  -8.301 -10.679  0.00  0.00    +0.013 A 
BRANCH  18  19
ATOM     19  C   UNL     1     -12.715  -9.326 -10.046  0.00  0.00    +0.119 C 
BRANCH  19  20
ATOM     20  N   UNL     1     -13.391 -10.082  -8.949  0.00  0.00    -0.302 NA
ATOM     21  C   UNL     1     -12.552 -11.270  -8.468  0.00  0.00    +0.066 C 
ATOM     22  C   UNL     1     -13.264 -12.036  -7.306  0.00  0.00    -0.064 C 
ATOM     23  N   UNL     1     -14.644 -12.501  -7.775  0.00  0.00    +0.379 N 
ATOM     24  C   UNL     1     -15.292 -13.272  -6.704  0.00  0.00    -0.096 C 
ATOM     25  H   UNL     1     -14.493 -13.187  -8.641  0.00  0.00    -0.082 HD
ATOM     26  C   UNL     1     -15.483 -11.327  -8.257  0.00  0.00    -0.064 C 
ATOM     27  C   UNL     1     -14.754 -10.555  -9.392  0.00  0.00    +0.066 C 
ENDBRANCH  19  20
ENDBRANCH  18  19
ENDBRANCH  14  15
ENDBRANCH  12  13
TORSDOF 6
ENDMDL
MODEL 5
REMARK VINA RESULT:     -11.2      2.566     14.446
REMARK  Name = C:\Users\Docking\Desktop\test protocol\1iep_ligandH.pdb
REMARK  8 active torsions:
REMARK  status: ('A' for Active; 'I' for Inactive)
REMARK    1  A    between atoms: _5  and  _11
REMARK    2  A    between atoms: _19  and  _21
REMARK    3  A    between atoms: _22  and  _66
REMARK    4  A    between atoms: _27  and  _30
REMARK    5  A    between atoms: _32  and  _33
REMARK    6  A    between atoms: _38  and  _43
REMARK    7  A    between atoms: _43  and  _46
REMARK    8  A    between atoms: _53  and  _55
REMARK                            x       y       z     vdW  Elec       q    Type
REMARK                         _______ _______ _______ _____ _____    ______ ____
ROOT
ATOM     10  C   UNL     1     -14.525 -10.566  -8.767  0.00  0.00    +0.038 A 
ATOM     11  C   UNL     1     -13.274  -9.965  -9.058  0.00  0.00    +0.047 A 
ATOM     12  C   UNL     1     -12.035 -10.512  -8.529  0.00  0.00    +0.035 A 
ATOM     32  C   UNL     1     -12.106 -11.675  -7.708  0.00  0.00    +0.024 A 
ATOM     33  C   UNL     1     -13.370 -12.298  -7.401  0.00  0.00    +0.007 A 
ATOM     34  C   UNL     1     -14.596 -11.761  -7.918  0.00  0.00    -0.029 A 
ATOM     35  C   UNL     1     -15.922 -12.467  -7.551  0.00  0.00    +0.045 C 
ENDROOT
BRANCH  10   9
ATOM      4  C   UNL     1     -17.746 -10.043 -12.287  0.00  0.00    +0.077 A 
ATOM      5  C   UNL     1     -17.047 -10.958 -13.142  0.00  0.00    +0.048 A 
ATOM      6  C   UNL     1     -15.859 -11.536 -12.642  0.00  0.00    +0.116 A 
ATOM      7  N   UNL     1     -15.413 -11.216 -11.378  0.00  0.00    -0.223 NA
ATOM      8  C   UNL     1     -16.110 -10.329 -10.579  0.00  0.00    +0.220 A 
ATOM      9  N   UNL     1     -15.684  -9.998  -9.302  0.00  0.00    -0.283 N 
ATOM     36  H   UNL     1     -16.222  -9.334  -8.747  0.00  0.00    +0.155 HD
ATOM     37  N   UNL     1     -17.247  -9.762 -11.035  0.00  0.00    -0.214 NA
BRANCH   4   3
ATOM      1  C   UNL     1     -21.157  -9.185 -13.999  0.00  0.00    +0.020 A 
ATOM      2  C   UNL     1     -19.941  -9.891 -13.664  0.00  0.00    +0.013 A 
ATOM      3  C   UNL     1     -19.018  -9.354 -12.672  0.00  0.00    +0.019 A 
ATOM     38  C   UNL     1     -19.357  -8.092 -12.032  0.00  0.00    +0.120 A 
ATOM     39  N   UNL     1     -20.534  -7.434 -12.376  0.00  0.00    -0.263 NA
ATOM     40  C   UNL     1     -21.429  -7.940 -13.331  0.00  0.00    +0.111 A 
ENDBRANCH   4   3
ENDBRANCH  10   9
BRANCH  12  13
ATOM     13  N   UNL     1     -10.736  -9.940  -8.784  0.00  0.00    -0.281 N 
ATOM     14  C   UNL     1     -10.442  -8.740  -9.409  0.00  0.00    +0.248 C 
ATOM     30  O   UNL     1     -11.249  -8.072 -10.038  0.00  0.00    -0.270 OA
ATOM     31  H   UNL     1      -9.936 -10.487  -8.464  0.00  0.00    +0.155 HD
BRANCH  14  15
ATOM     15  C   UNL     1      -9.046  -8.211  -9.338  0.00  0.00    +0.037 A 
ATOM     16  C   UNL     1      -8.089  -8.443 -10.423  0.00  0.00    +0.013 A 
ATOM     17  C   UNL     1      -6.743  -7.937 -10.321  0.00  0.00    +0.005 A 
ATOM     18  C   UNL     1      -6.347  -7.192  -9.128  0.00  0.00    -0.033 A 
ATOM     28  C   UNL     1      -7.317  -6.972  -8.069  0.00  0.00    +0.005 A 
ATOM     29  C   UNL     1      -8.637  -7.467  -8.165  0.00  0.00    +0.013 A 
BRANCH  18  19
ATOM     19  C   UNL     1      -4.926  -6.633  -8.925  0.00  0.00    +0.119 C 
BRANCH  19  20
ATOM     20  N   UNL     1      -4.595  -6.080  -7.578  0.00  0.00    -0.302 NA
ATOM     21  C   UNL     1      -3.369  -5.162  -7.619  0.00  0.00    +0.066 C 
ATOM     22  C   UNL     1      -3.051  -4.574  -6.206  0.00  0.00    -0.064 C 
ATOM     23  N   UNL     1      -2.836  -5.721  -5.216  0.00  0.00    +0.379 N 
ATOM     24  C   UNL     1      -2.479  -5.172  -3.900  0.00  0.00    -0.096 C 
ATOM     25  H   UNL     1      -1.970  -6.322  -5.579  0.00  0.00    -0.082 HD
ATOM     26  C   UNL     1      -4.049  -6.640  -5.171  0.00  0.00    -0.064 C 
ATOM     27  C   UNL     1      -4.374  -7.195  -6.586  0.00  0.00    +0.066 C 
ENDBRANCH  19  20
ENDBRANCH  18  19
ENDBRANCH  14  15
ENDBRANCH  12  13
TORSDOF 6
ENDMDL
