MODEL 1
REMARK VINA RESULT:      -8.7      0.000      0.000
REMARK  Name = C:\Users\Docking\Desktop\test protocol\1iep_ligandH.pdb
REMARK  8 active torsions:
REMARK  status: ('A' for Active; 'I' for Inactive)
REMARK    1  A    between atoms: _5  and  _11
REMARK    2  A    between atoms: _19  and  _21
REMARK    3  A    between atoms: _22  and  _66
REMARK    4  A    between atoms: _27  and  _30
REMARK    5  A    between atoms: _32  and  _33
REMARK    6  A    between atoms: _38  and  _43
REMARK    7  A    between atoms: _43  and  _46
REMARK    8  A    between atoms: _53  and  _55
REMARK                            x       y       z     vdW  Elec       q    Type
REMARK                         _______ _______ _______ _____ _____    ______ ____
ROOT
ATOM     10  C   UNL     1      20.093  29.962  22.341  0.00  0.00    +0.038 A 
ATOM     11  C   UNL     1      20.586  30.069  21.016  0.00  0.00    +0.047 A 
ATOM     12  C   UNL     1      19.953  30.949  20.046  0.00  0.00    +0.035 A 
ATOM     32  C   UNL     1      18.820  31.708  20.461  0.00  0.00    +0.024 A 
ATOM     33  C   UNL     1      18.305  31.611  21.804  0.00  0.00    +0.007 A 
ATOM     34  C   UNL     1      18.924  30.742  22.764  0.00  0.00    -0.029 A 
ATOM     35  C   UNL     1      18.325  30.673  24.189  0.00  0.00    +0.045 C 
ENDROOT
BRANCH  10   9
ATOM      4  C   UNL     1      20.314  25.911  24.907  0.00  0.00    +0.077 A 
ATOM      5  C   UNL     1      19.020  25.486  24.457  0.00  0.00    +0.048 A 
ATOM      6  C   UNL     1      18.327  26.342  23.572  0.00  0.00    +0.116 A 
ATOM      7  N   UNL     1      18.895  27.532  23.172  0.00  0.00    -0.223 NA
ATOM      8  C   UNL     1      20.145  27.913  23.626  0.00  0.00    +0.220 A 
ATOM      9  N   UNL     1      20.740  29.101  23.231  0.00  0.00    -0.283 N 
ATOM     36  H   UNL     1      21.659  29.350  23.594  0.00  0.00    +0.155 HD
ATOM     37  N   UNL     1      20.826  27.114  24.473  0.00  0.00    -0.214 NA
BRANCH   4   3
ATOM      1  C   UNL     1      23.401  24.250  26.642  0.00  0.00    +0.020 A 
ATOM      2  C   UNL     1      22.620  25.033  25.712  0.00  0.00    +0.013 A 
ATOM      3  C   UNL     1      21.171  25.115  25.841  0.00  0.00    +0.019 A 
ATOM     38  C   UNL     1      20.537  24.388  26.931  0.00  0.00    +0.120 A 
ATOM     39  N   UNL     1      21.315  23.640  27.810  0.00  0.00    -0.263 NA
ATOM     40  C   UNL     1      22.711  23.553  27.695  0.00  0.00    +0.111 A 
ENDBRANCH   4   3
ENDBRANCH  10   9
BRANCH  12  13
ATOM     13  N   UNL     1      20.404  31.093  18.684  0.00  0.00    -0.281 N 
ATOM     14  C   UNL     1      20.917  32.225  18.072  0.00  0.00    +0.248 C 
ATOM     30  O   UNL     1      20.868  33.350  18.547  0.00  0.00    -0.270 OA
ATOM     31  H   UNL     1      20.336  30.259  18.100  0.00  0.00    +0.155 HD
BRANCH  14  15
ATOM     15  C   UNL     1      21.567  32.089  16.733  0.00  0.00    +0.037 A 
ATOM     16  C   UNL     1      21.095  31.107  15.754  0.00  0.00    +0.013 A 
ATOM     17  C   UNL     1      21.750  30.985  14.477  0.00  0.00    +0.005 A 
ATOM     18  C   UNL     1      22.886  31.851  14.170  0.00  0.00    -0.033 A 
ATOM     28  C   UNL     1      23.332  32.821  15.157  0.00  0.00    +0.005 A 
ATOM     29  C   UNL     1      22.692  32.942  16.411  0.00  0.00    +0.013 A 
BRANCH  18  19
ATOM     19  C   UNL     1      23.660  31.776  12.840  0.00  0.00    +0.119 C 
BRANCH  19  20
ATOM     20  N   UNL     1      23.337  32.801  11.803  0.00  0.00    -0.302 NA
ATOM     21  C   UNL     1      21.964  32.564  11.167  0.00  0.00    +0.066 C 
ATOM     22  C   UNL     1      21.633  33.658  10.101  0.00  0.00    -0.064 C 
ATOM     23  N   UNL     1      22.728  33.673   9.033  0.00  0.00    +0.379 N 
ATOM     24  C   UNL     1      22.391  34.661   7.998  0.00  0.00    -0.096 C 
ATOM     25  H   UNL     1      22.744  32.669   8.550  0.00  0.00    -0.082 HD
ATOM     26  C   UNL     1      24.097  33.907   9.657  0.00  0.00    -0.064 C 
ATOM     27  C   UNL     1      24.404  32.831  10.736  0.00  0.00    +0.066 C 
ENDBRANCH  19  20
ENDBRANCH  18  19
ENDBRANCH  14  15
ENDBRANCH  12  13
TORSDOF 6
ENDMDL
MODEL 2
REMARK VINA RESULT:      -8.7      7.265     11.344
REMARK  Name = C:\Users\Docking\Desktop\test protocol\1iep_ligandH.pdb
REMARK  8 active torsions:
REMARK  status: ('A' for Active; 'I' for Inactive)
REMARK    1  A    between atoms: _5  and  _11
REMARK    2  A    between atoms: _19  and  _21
REMARK    3  A    between atoms: _22  and  _66
REMARK    4  A    between atoms: _27  and  _30
REMARK    5  A    between atoms: _32  and  _33
REMARK    6  A    between atoms: _38  and  _43
REMARK    7  A    between atoms: _43  and  _46
REMARK    8  A    between atoms: _53  and  _55
REMARK                            x       y       z     vdW  Elec       q    Type
REMARK                         _______ _______ _______ _____ _____    ______ ____
ROOT
ATOM     10  C   UNL     1      20.805  32.511  16.176  0.00  0.00    +0.038 A 
ATOM     11  C   UNL     1      21.672  33.261  17.010  0.00  0.00    +0.047 A 
ATOM     12  C   UNL     1      21.240  34.513  17.613  0.00  0.00    +0.035 A 
ATOM     32  C   UNL     1      19.916  34.970  17.347  0.00  0.00    +0.024 A 
ATOM     33  C   UNL     1      19.022  34.220  16.500  0.00  0.00    +0.007 A 
ATOM     34  C   UNL     1      19.443  32.986  15.901  0.00  0.00    -0.029 A 
ATOM     35  C   UNL     1      18.444  32.228  14.997  0.00  0.00    +0.045 C 
ENDROOT
BRANCH  10   9
ATOM      4  C   UNL     1      22.798  29.991  12.610  0.00  0.00    +0.077 A 
ATOM      5  C   UNL     1      22.892  31.147  11.767  0.00  0.00    +0.048 A 
ATOM      6  C   UNL     1      22.410  32.370  12.285  0.00  0.00    +0.116 A 
ATOM      7  N   UNL     1      21.876  32.421  13.554  0.00  0.00    -0.223 NA
ATOM      8  C   UNL     1      21.798  31.287  14.341  0.00  0.00    +0.220 A 
ATOM      9  N   UNL     1      21.271  31.316  15.624  0.00  0.00    -0.283 N 
ATOM     36  H   UNL     1      21.225  30.456  16.169  0.00  0.00    +0.155 HD
ATOM     37  N   UNL     1      22.250  30.106  13.869  0.00  0.00    -0.214 NA
BRANCH   4   3
ATOM      1  C   UNL     1      25.003  27.039  11.296  0.00  0.00    +0.020 A 
ATOM      2  C   UNL     1      24.599  28.375  11.672  0.00  0.00    +0.013 A 
ATOM      3  C   UNL     1      23.267  28.628  12.206  0.00  0.00    +0.019 A 
ATOM     38  C   UNL     1      22.360  27.499  12.350  0.00  0.00    +0.120 A 
ATOM     39  N   UNL     1      22.776  26.224  11.979  0.00  0.00    -0.263 NA
ATOM     40  C   UNL     1      24.055  25.969  11.462  0.00  0.00    +0.111 A 
ENDBRANCH   4   3
ENDBRANCH  10   9
BRANCH  12  13
ATOM     13  N   UNL     1      22.079  35.322  18.462  0.00  0.00    -0.281 N 
ATOM     14  C   UNL     1      22.033  35.440  19.841  0.00  0.00    +0.248 C 
ATOM     30  O   UNL     1      21.118  35.030  20.540  0.00  0.00    -0.270 OA
ATOM     31  H   UNL     1      22.794  35.874  17.989  0.00  0.00    +0.155 HD
BRANCH  14  15
ATOM     15  C   UNL     1      23.158  36.127  20.545  0.00  0.00    +0.037 A 
ATOM     16  C   UNL     1      23.841  35.499  21.680  0.00  0.00    +0.013 A 
ATOM     17  C   UNL     1      24.912  36.191  22.352  0.00  0.00    +0.005 A 
ATOM     18  C   UNL     1      25.309  37.519  21.889  0.00  0.00    -0.033 A 
ATOM     28  C   UNL     1      24.618  38.116  20.758  0.00  0.00    +0.005 A 
ATOM     29  C   UNL     1      23.567  37.441  20.098  0.00  0.00    +0.013 A 
BRANCH  18  19
ATOM     19  C   UNL     1      26.427  38.338  22.560  0.00  0.00    +0.119 C 
BRANCH  19  20
ATOM     20  N   UNL     1      27.778  38.300  21.924  0.00  0.00    -0.302 NA
ATOM     21  C   UNL     1      28.735  37.362  22.665  0.00  0.00    +0.066 C 
ATOM     22  C   UNL     1      30.137  37.317  21.974  0.00  0.00    -0.064 C 
ATOM     23  N   UNL     1      30.713  38.732  21.902  0.00  0.00    +0.379 N 
ATOM     24  C   UNL     1      32.055  38.686  21.305  0.00  0.00    -0.096 C 
ATOM     25  H   UNL     1      30.819  39.107  22.946  0.00  0.00    -0.082 HD
ATOM     26  C   UNL     1      29.766  39.672  21.169  0.00  0.00    -0.064 C 
ATOM     27  C   UNL     1      28.367  39.687  21.847  0.00  0.00    +0.066 C 
ENDBRANCH  19  20
ENDBRANCH  18  19
ENDBRANCH  14  15
ENDBRANCH  12  13
TORSDOF 6
ENDMDL
MODEL 3
REMARK VINA RESULT:      -8.6      2.224      3.057
REMARK  Name = C:\Users\Docking\Desktop\test protocol\1iep_ligandH.pdb
REMARK  8 active torsions:
REMARK  status: ('A' for Active; 'I' for Inactive)
REMARK    1  A    between atoms: _5  and  _11
REMARK    2  A    between atoms: _19  and  _21
REMARK    3  A    between atoms: _22  and  _66
REMARK    4  A    between atoms: _27  and  _30
REMARK    5  A    between atoms: _32  and  _33
REMARK    6  A    between atoms: _38  and  _43
REMARK    7  A    between atoms: _43  and  _46
REMARK    8  A    between atoms: _53  and  _55
REMARK                            x       y       z     vdW  Elec       q    Type
REMARK                         _______ _______ _______ _____ _____    ______ ____
ROOT
ATOM     10  C   UNL     1      20.190  29.963  22.407  0.00  0.00    +0.038 A 
ATOM     11  C   UNL     1      20.569  29.943  21.041  0.00  0.00    +0.047 A 
ATOM     12  C   UNL     1      19.973  30.860  20.081  0.00  0.00    +0.035 A 
ATOM     32  C   UNL     1      18.997  31.787  20.548  0.00  0.00    +0.024 A 
ATOM     33  C   UNL     1      18.599  31.821  21.934  0.00  0.00    +0.007 A 
ATOM     34  C   UNL     1      19.181  30.917  22.884  0.00  0.00    -0.029 A 
ATOM     35  C   UNL     1      18.712  30.994  24.356  0.00  0.00    +0.045 C 
ENDROOT
BRANCH  10   9
ATOM      4  C   UNL     1      20.213  25.873  24.918  0.00  0.00    +0.077 A 
ATOM      5  C   UNL     1      18.900  25.518  24.464  0.00  0.00    +0.048 A 
ATOM      6  C   UNL     1      18.249  26.418  23.590  0.00  0.00    +0.116 A 
ATOM      7  N   UNL     1      18.876  27.584  23.206  0.00  0.00    -0.223 NA
ATOM      8  C   UNL     1      20.142  27.897  23.665  0.00  0.00    +0.220 A 
ATOM      9  N   UNL     1      20.794  29.061  23.285  0.00  0.00    -0.283 N 
ATOM     36  H   UNL     1      21.725  29.259  23.651  0.00  0.00    +0.155 HD
ATOM     37  N   UNL     1      20.783  27.055  24.501  0.00  0.00    -0.214 NA
BRANCH   4   3
ATOM      1  C   UNL     1      21.298  23.539  27.864  0.00  0.00    +0.020 A 
ATOM      2  C   UNL     1      20.466  24.349  27.004  0.00  0.00    +0.013 A 
ATOM      3  C   UNL     1      21.030  25.024  25.842  0.00  0.00    +0.019 A 
ATOM     38  C   UNL     1      22.450  24.857  25.575  0.00  0.00    +0.120 A 
ATOM     39  N   UNL     1      23.227  24.072  26.421  0.00  0.00    -0.263 NA
ATOM     40  C   UNL     1      22.696  23.420  27.544  0.00  0.00    +0.111 A 
ENDBRANCH   4   3
ENDBRANCH  10   9
BRANCH  12  13
ATOM     13  N   UNL     1      20.313  30.880  18.680  0.00  0.00    -0.281 N 
ATOM     14  C   UNL     1      20.934  31.893  17.968  0.00  0.00    +0.248 C 
ATOM     30  O   UNL     1      21.102  33.029  18.387  0.00  0.00    -0.270 OA
ATOM     31  H   UNL     1      20.064  30.046  18.147  0.00  0.00    +0.155 HD
BRANCH  14  15
ATOM     15  C   UNL     1      21.428  31.608  16.587  0.00  0.00    +0.037 A 
ATOM     16  C   UNL     1      22.611  32.284  16.048  0.00  0.00    +0.013 A 
ATOM     17  C   UNL     1      23.056  32.003  14.706  0.00  0.00    +0.005 A 
ATOM     18  C   UNL     1      22.318  31.038  13.894  0.00  0.00    -0.033 A 
ATOM     28  C   UNL     1      21.152  30.377  14.456  0.00  0.00    +0.005 A 
ATOM     29  C   UNL     1      20.712  30.651  15.770  0.00  0.00    +0.013 A 
BRANCH  18  19
ATOM     19  C   UNL     1      22.709  30.692  12.445  0.00  0.00    +0.119 C 
BRANCH  19  20
ATOM     20  N   UNL     1      22.988  29.258  12.136  0.00  0.00    -0.302 NA
ATOM     21  C   UNL     1      24.224  29.091  11.248  0.00  0.00    +0.066 C 
ATOM     22  C   UNL     1      24.514  27.583  10.953  0.00  0.00    -0.064 C 
ATOM     23  N   UNL     1      23.286  26.950  10.296  0.00  0.00    +0.379 N 
ATOM     24  C   UNL     1      23.576  25.547   9.965  0.00  0.00    -0.096 C 
ATOM     25  H   UNL     1      23.097  27.491   9.340  0.00  0.00    -0.082 HD
ATOM     26  C   UNL     1      22.052  27.113  11.171  0.00  0.00    -0.064 C 
ATOM     27  C   UNL     1      21.790  28.613  11.483  0.00  0.00    +0.066 C 
ENDBRANCH  19  20
ENDBRANCH  18  19
ENDBRANCH  14  15
ENDBRANCH  12  13
TORSDOF 6
ENDMDL
MODEL 4
REMARK VINA RESULT:      -8.2      1.925     13.057
REMARK  Name = C:\Users\Docking\Desktop\test protocol\1iep_ligandH.pdb
REMARK  8 active torsions:
REMARK  status: ('A' for Active; 'I' for Inactive)
REMARK    1  A    between atoms: _5  and  _11
REMARK    2  A    between atoms: _19  and  _21
REMARK    3  A    between atoms: _22  and  _66
REMARK    4  A    between atoms: _27  and  _30
REMARK    5  A    between atoms: _32  and  _33
REMARK    6  A    between atoms: _38  and  _43
REMARK    7  A    between atoms: _43  and  _46
REMARK    8  A    between atoms: _53  and  _55
REMARK                            x       y       z     vdW  Elec       q    Type
REMARK                         _______ _______ _______ _____ _____    ______ ____
ROOT
ATOM     10  C   UNL     1      20.372  32.326  17.253  0.00  0.00    +0.038 A 
ATOM     11  C   UNL     1      20.614  31.322  18.225  0.00  0.00    +0.047 A 
ATOM     12  C   UNL     1      19.656  31.055  19.287  0.00  0.00    +0.035 A 
ATOM     32  C   UNL     1      18.459  31.828  19.326  0.00  0.00    +0.024 A 
ATOM     33  C   UNL     1      18.197  32.854  18.347  0.00  0.00    +0.007 A 
ATOM     34  C   UNL     1      19.140  33.123  17.299  0.00  0.00    -0.029 A 
ATOM     35  C   UNL     1      18.810  34.238  16.280  0.00  0.00    +0.045 C 
ENDROOT
BRANCH  10   9
ATOM      4  C   UNL     1      22.552  31.117  13.152  0.00  0.00    +0.077 A 
ATOM      5  C   UNL     1      21.739  29.945  12.996  0.00  0.00    +0.048 A 
ATOM      6  C   UNL     1      20.776  29.686  13.997  0.00  0.00    +0.116 A 
ATOM      7  N   UNL     1      20.645  30.541  15.069  0.00  0.00    -0.223 NA
ATOM      8  C   UNL     1      21.446  31.661  15.190  0.00  0.00    +0.220 A 
ATOM      9  N   UNL     1      21.326  32.540  16.256  0.00  0.00    -0.283 N 
ATOM     36  H   UNL     1      21.942  33.351  16.313  0.00  0.00    +0.155 HD
ATOM     37  N   UNL     1      22.374  31.930  14.248  0.00  0.00    -0.214 NA
BRANCH   4   3
ATOM      1  C   UNL     1      25.793  31.169  10.962  0.00  0.00    +0.020 A 
ATOM      2  C   UNL     1      24.801  30.727  11.915  0.00  0.00    +0.013 A 
ATOM      3  C   UNL     1      23.611  31.528  12.176  0.00  0.00    +0.019 A 
ATOM     38  C   UNL     1      23.454  32.779  11.451  0.00  0.00    +0.120 A 
ATOM     39  N   UNL     1      24.427  33.180  10.540  0.00  0.00    -0.263 NA
ATOM     40  C   UNL     1      25.576  32.419  10.282  0.00  0.00    +0.111 A 
ENDBRANCH   4   3
ENDBRANCH  10   9
BRANCH  12  13
ATOM     13  N   UNL     1      19.851  30.054  20.306  0.00  0.00    -0.281 N 
ATOM     14  C   UNL     1      20.045  30.248  21.664  0.00  0.00    +0.248 C 
ATOM     30  O   UNL     1      20.294  31.328  22.179  0.00  0.00    -0.270 OA
ATOM     31  H   UNL     1      19.846  29.085  19.988  0.00  0.00    +0.155 HD
BRANCH  14  15
ATOM     15  C   UNL     1      19.965  29.070  22.580  0.00  0.00    +0.037 A 
ATOM     16  C   UNL     1      19.517  29.215  23.967  0.00  0.00    +0.013 A 
ATOM     17  C   UNL     1      19.465  28.065  24.835  0.00  0.00    +0.005 A 
ATOM     18  C   UNL     1      19.862  26.758  24.316  0.00  0.00    -0.033 A 
ATOM     28  C   UNL     1      20.298  26.642  22.935  0.00  0.00    +0.005 A 
ATOM     29  C   UNL     1      20.351  27.767  22.082  0.00  0.00    +0.013 A 
BRANCH  18  19
ATOM     19  C   UNL     1      19.858  25.481  25.177  0.00  0.00    +0.119 C 
BRANCH  19  20
ATOM     20  N   UNL     1      20.952  25.331  26.183  0.00  0.00    -0.302 NA
ATOM     21  C   UNL     1      22.294  24.995  25.527  0.00  0.00    +0.066 C 
ATOM     22  C   UNL     1      23.431  24.864  26.592  0.00  0.00    -0.064 C 
ATOM     23  N   UNL     1      23.046  23.795  27.616  0.00  0.00    +0.379 N 
ATOM     24  C   UNL     1      24.139  23.629  28.586  0.00  0.00    -0.096 C 
ATOM     25  H   UNL     1      22.929  22.831  27.069  0.00  0.00    -0.082 HD
ATOM     26  C   UNL     1      21.711  24.120  28.271  0.00  0.00    -0.064 C 
ATOM     27  C   UNL     1      20.594  24.277  27.202  0.00  0.00    +0.066 C 
ENDBRANCH  19  20
ENDBRANCH  18  19
ENDBRANCH  14  15
ENDBRANCH  12  13
TORSDOF 6
ENDMDL
MODEL 5
REMARK VINA RESULT:      -8.1      4.590     12.611
REMARK  Name = C:\Users\Docking\Desktop\test protocol\1iep_ligandH.pdb
REMARK  8 active torsions:
REMARK  status: ('A' for Active; 'I' for Inactive)
REMARK    1  A    between atoms: _5  and  _11
REMARK    2  A    between atoms: _19  and  _21
REMARK    3  A    between atoms: _22  and  _66
REMARK    4  A    between atoms: _27  and  _30
REMARK    5  A    between atoms: _32  and  _33
REMARK    6  A    between atoms: _38  and  _43
REMARK    7  A    between atoms: _43  and  _46
REMARK    8  A    between atoms: _53  and  _55
REMARK                            x       y       z     vdW  Elec       q    Type
REMARK                         _______ _______ _______ _____ _____    ______ ____
ROOT
ATOM     10  C   UNL     1      22.513  30.139  12.379  0.00  0.00    +0.038 A 
ATOM     11  C   UNL     1      21.908  30.140  13.662  0.00  0.00    +0.047 A 
ATOM     12  C   UNL     1      22.231  31.162  14.645  0.00  0.00    +0.035 A 
ATOM     32  C   UNL     1      23.172  32.171  14.287  0.00  0.00    +0.024 A 
ATOM     33  C   UNL     1      23.797  32.185  12.988  0.00  0.00    +0.007 A 
ATOM     34  C   UNL     1      23.484  31.178  12.015  0.00  0.00    -0.029 A 
ATOM     35  C   UNL     1      24.190  31.238  10.640  0.00  0.00    +0.045 C 
ENDROOT
BRANCH  10   9
ATOM      4  C   UNL     1      23.178  25.822  10.390  0.00  0.00    +0.077 A 
ATOM      5  C   UNL     1      24.329  25.559  11.204  0.00  0.00    +0.048 A 
ATOM      6  C   UNL     1      24.722  26.563  12.117  0.00  0.00    +0.116 A 
ATOM      7  N   UNL     1      24.008  27.739  12.202  0.00  0.00    -0.223 NA
ATOM      8  C   UNL     1      22.903  27.962  11.400  0.00  0.00    +0.220 A 
ATOM      9  N   UNL     1      22.166  29.134  11.474  0.00  0.00    -0.283 N 
ATOM     36  H   UNL     1      21.362  29.263  10.860  0.00  0.00    +0.155 HD
ATOM     37  N   UNL     1      22.509  27.019  10.519  0.00  0.00    -0.214 NA
BRANCH   4   3
ATOM      1  C   UNL     1      22.913  23.225   7.477  0.00  0.00    +0.020 A 
ATOM      2  C   UNL     1      23.485  24.146   8.431  0.00  0.00    +0.013 A 
ATOM      3  C   UNL     1      22.638  24.858   9.380  0.00  0.00    +0.019 A 
ATOM     38  C   UNL     1      21.204  24.612   9.336  0.00  0.00    +0.120 A 
ATOM     39  N   UNL     1      20.681  23.720   8.405  0.00  0.00    -0.263 NA
ATOM     40  C   UNL     1      21.487  23.031   7.486  0.00  0.00    +0.111 A 
ENDBRANCH   4   3
ENDBRANCH  10   9
BRANCH  12  13
ATOM     13  N   UNL     1      21.655  31.209  15.966  0.00  0.00    -0.281 N 
ATOM     14  C   UNL     1      20.337  31.457  16.313  0.00  0.00    +0.248 C 
ATOM     30  O   UNL     1      19.490  31.890  15.545  0.00  0.00    -0.270 OA
ATOM     31  H   UNL     1      22.297  31.039  16.740  0.00  0.00    +0.155 HD
BRANCH  14  15
ATOM     15  C   UNL     1      19.899  31.202  17.719  0.00  0.00    +0.037 A 
ATOM     16  C   UNL     1      18.832  30.244  18.020  0.00  0.00    +0.013 A 
ATOM     17  C   UNL     1      18.417  30.029  19.384  0.00  0.00    +0.005 A 
ATOM     18  C   UNL     1      19.072  30.773  20.457  0.00  0.00    -0.033 A 
ATOM     28  C   UNL     1      20.131  31.713  20.130  0.00  0.00    +0.005 A 
ATOM     29  C   UNL     1      20.539  31.927  18.795  0.00  0.00    +0.013 A 
BRANCH  18  19
ATOM     19  C   UNL     1      18.679  30.622  21.939  0.00  0.00    +0.119 C 
BRANCH  19  20
ATOM     20  N   UNL     1      18.879  29.282  22.566  0.00  0.00    -0.302 NA
ATOM     21  C   UNL     1      19.091  29.382  24.080  0.00  0.00    +0.066 C 
ATOM     22  C   UNL     1      19.276  27.969  24.723  0.00  0.00    -0.064 C 
ATOM     23  N   UNL     1      20.456  27.259  24.057  0.00  0.00    +0.379 N 
ATOM     24  C   UNL     1      20.669  25.954  24.699  0.00  0.00    -0.096 C 
ATOM     25  H   UNL     1      21.366  27.877  24.235  0.00  0.00    -0.082 HD
ATOM     26  C   UNL     1      20.254  27.158  22.552  0.00  0.00    -0.064 C 
ATOM     27  C   UNL     1      20.042  28.565  21.926  0.00  0.00    +0.066 C 
ENDBRANCH  19  20
ENDBRANCH  18  19
ENDBRANCH  14  15
ENDBRANCH  12  13
TORSDOF 6
ENDMDL
