MODEL 1
REMARK VINA RESULT:      -8.6      0.000      0.000
REMARK  Name = C:\Users\Docking\Desktop\test protocol\1iep_ligandH.pdb
REMARK  8 active torsions:
REMARK  status: ('A' for Active; 'I' for Inactive)
REMARK    1  A    between atoms: _5  and  _11
REMARK    2  A    between atoms: _19  and  _21
REMARK    3  A    between atoms: _22  and  _66
REMARK    4  A    between atoms: _27  and  _30
REMARK    5  A    between atoms: _32  and  _33
REMARK    6  A    between atoms: _38  and  _43
REMARK    7  A    between atoms: _43  and  _46
REMARK    8  A    between atoms: _53  and  _55
REMARK                            x       y       z     vdW  Elec       q    Type
REMARK                         _______ _______ _______ _____ _____    ______ ____
ROOT
ATOM     10  C   UNL     1      19.982  29.904  22.189  0.00  0.00    +0.038 A 
ATOM     11  C   UNL     1      20.501  30.036  20.876  0.00  0.00    +0.047 A 
ATOM     12  C   UNL     1      19.890  30.940  19.913  0.00  0.00    +0.035 A 
ATOM     32  C   UNL     1      18.754  31.697  20.323  0.00  0.00    +0.024 A 
ATOM     33  C   UNL     1      18.214  31.575  21.654  0.00  0.00    +0.007 A 
ATOM     34  C   UNL     1      18.810  30.683  22.607  0.00  0.00    -0.029 A 
ATOM     35  C   UNL     1      18.184  30.587  24.018  0.00  0.00    +0.045 C 
ENDROOT
BRANCH  10   9
ATOM      4  C   UNL     1      20.096  25.839  24.737  0.00  0.00    +0.077 A 
ATOM      5  C   UNL     1      18.788  25.453  24.292  0.00  0.00    +0.048 A 
ATOM      6  C   UNL     1      18.117  26.333  23.413  0.00  0.00    +0.116 A 
ATOM      7  N   UNL     1      18.718  27.507  23.016  0.00  0.00    -0.223 NA
ATOM      8  C   UNL     1      19.980  27.849  23.465  0.00  0.00    +0.220 A 
ATOM      9  N   UNL     1      20.608  29.022  23.073  0.00  0.00    -0.283 N 
ATOM     36  H   UNL     1      21.536  29.242  23.432  0.00  0.00    +0.155 HD
ATOM     37  N   UNL     1      20.642  27.027  24.306  0.00  0.00    -0.214 NA
BRANCH   4   3
ATOM      1  C   UNL     1      21.229  23.497  27.659  0.00  0.00    +0.020 A 
ATOM      2  C   UNL     1      20.376  24.279  26.794  0.00  0.00    +0.013 A 
ATOM      3  C   UNL     1      20.934  25.013  25.665  0.00  0.00    +0.019 A 
ATOM     38  C   UNL     1      22.369  24.933  25.436  0.00  0.00    +0.120 A 
ATOM     39  N   UNL     1      23.165  24.173  26.287  0.00  0.00    -0.263 NA
ATOM     40  C   UNL     1      22.640  23.464  27.377  0.00  0.00    +0.111 A 
ENDBRANCH   4   3
ENDBRANCH  10   9
BRANCH  12  13
ATOM     13  N   UNL     1      20.368  31.110  18.563  0.00  0.00    -0.281 N 
ATOM     14  C   UNL     1      20.982  32.222  18.010  0.00  0.00    +0.248 C 
ATOM     30  O   UNL     1      21.022  33.324  18.538  0.00  0.00    -0.270 OA
ATOM     31  H   UNL     1      20.237  30.314  17.939  0.00  0.00    +0.155 HD
BRANCH  14  15
ATOM     15  C   UNL     1      21.633  32.096  16.671  0.00  0.00    +0.037 A 
ATOM     16  C   UNL     1      22.748  32.965  16.284  0.00  0.00    +0.013 A 
ATOM     17  C   UNL     1      23.347  32.834  14.979  0.00  0.00    +0.005 A 
ATOM     18  C   UNL     1      22.833  31.828  14.053  0.00  0.00    -0.033 A 
ATOM     28  C   UNL     1      21.730  30.976  14.465  0.00  0.00    +0.005 A 
ATOM     29  C   UNL     1      21.140  31.102  15.743  0.00  0.00    +0.013 A 
BRANCH  18  19
ATOM     19  C   UNL     1      23.398  31.632  12.634  0.00  0.00    +0.119 C 
BRANCH  19  20
ATOM     20  N   UNL     1      23.065  32.672  11.615  0.00  0.00    -0.302 NA
ATOM     21  C   UNL     1      21.595  32.611  11.191  0.00  0.00    +0.066 C 
ATOM     22  C   UNL     1      21.258  33.721  10.143  0.00  0.00    -0.064 C 
ATOM     23  N   UNL     1      22.178  33.569   8.930  0.00  0.00    +0.379 N 
ATOM     24  C   UNL     1      21.826  34.575   7.918  0.00  0.00    -0.096 C 
ATOM     25  H   UNL     1      21.991  32.563   8.488  0.00  0.00    -0.082 HD
ATOM     26  C   UNL     1      23.642  33.626   9.344  0.00  0.00    -0.064 C 
ATOM     27  C   UNL     1      23.959  32.538  10.407  0.00  0.00    +0.066 C 
ENDBRANCH  19  20
ENDBRANCH  18  19
ENDBRANCH  14  15
ENDBRANCH  12  13
TORSDOF 6
ENDMDL
MODEL 2
REMARK VINA RESULT:      -8.3      2.216      2.924
REMARK  Name = C:\Users\Docking\Desktop\test protocol\1iep_ligandH.pdb
REMARK  8 active torsions:
REMARK  status: ('A' for Active; 'I' for Inactive)
REMARK    1  A    between atoms: _5  and  _11
REMARK    2  A    between atoms: _19  and  _21
REMARK    3  A    between atoms: _22  and  _66
REMARK    4  A    between atoms: _27  and  _30
REMARK    5  A    between atoms: _32  and  _33
REMARK    6  A    between atoms: _38  and  _43
REMARK    7  A    between atoms: _43  and  _46
REMARK    8  A    between atoms: _53  and  _55
REMARK                            x       y       z     vdW  Elec       q    Type
REMARK                         _______ _______ _______ _____ _____    ______ ____
ROOT
ATOM     10  C   UNL     1      19.800  29.907  22.310  0.00  0.00    +0.038 A 
ATOM     11  C   UNL     1      20.132  29.893  20.931  0.00  0.00    +0.047 A 
ATOM     12  C   UNL     1      19.465  30.777  19.988  0.00  0.00    +0.035 A 
ATOM     32  C   UNL     1      18.467  31.665  20.484  0.00  0.00    +0.024 A 
ATOM     33  C   UNL     1      18.116  31.692  21.882  0.00  0.00    +0.007 A 
ATOM     34  C   UNL     1      18.769  30.821  22.817  0.00  0.00    -0.029 A 
ATOM     35  C   UNL     1      18.349  30.888  24.304  0.00  0.00    +0.045 C 
ENDROOT
BRANCH  10   9
ATOM      4  C   UNL     1      20.111  25.811  24.792  0.00  0.00    +0.077 A 
ATOM      5  C   UNL     1      18.814  25.380  24.357  0.00  0.00    +0.048 A 
ATOM      6  C   UNL     1      18.096  26.245  23.501  0.00  0.00    +0.116 A 
ATOM      7  N   UNL     1      18.645  27.449  23.115  0.00  0.00    -0.223 NA
ATOM      8  C   UNL     1      19.898  27.835  23.554  0.00  0.00    +0.220 A 
ATOM      9  N   UNL     1      20.472  29.037  23.171  0.00  0.00    -0.283 N 
ATOM     36  H   UNL     1      21.396  29.289  23.523  0.00  0.00    +0.155 HD
ATOM     37  N   UNL     1      20.603  27.027  24.373  0.00  0.00    -0.214 NA
BRANCH   4   3
ATOM      1  C   UNL     1      21.383  23.517  27.694  0.00  0.00    +0.020 A 
ATOM      2  C   UNL     1      20.489  24.279  26.854  0.00  0.00    +0.013 A 
ATOM      3  C   UNL     1      20.993  25.006  25.696  0.00  0.00    +0.019 A 
ATOM     38  C   UNL     1      22.419  24.940  25.413  0.00  0.00    +0.120 A 
ATOM     39  N   UNL     1      23.256  24.199  26.241  0.00  0.00    -0.263 NA
ATOM     40  C   UNL     1      22.782  23.496  27.359  0.00  0.00    +0.111 A 
ENDBRANCH   4   3
ENDBRANCH  10   9
BRANCH  12  13
ATOM     13  N   UNL     1      19.754  30.802  18.575  0.00  0.00    -0.281 N 
ATOM     14  C   UNL     1      20.589  31.671  17.892  0.00  0.00    +0.248 C 
ATOM     30  O   UNL     1      21.052  32.699  18.363  0.00  0.00    -0.270 OA
ATOM     31  H   UNL     1      19.286  30.093  18.011  0.00  0.00    +0.155 HD
BRANCH  14  15
ATOM     15  C   UNL     1      20.951  31.360  16.476  0.00  0.00    +0.037 A 
ATOM     16  C   UNL     1      22.173  31.894  15.869  0.00  0.00    +0.013 A 
ATOM     17  C   UNL     1      22.490  31.592  14.495  0.00  0.00    +0.005 A 
ATOM     18  C   UNL     1      21.583  30.750  13.719  0.00  0.00    -0.033 A 
ATOM     28  C   UNL     1      20.380  30.229  14.348  0.00  0.00    +0.005 A 
ATOM     29  C   UNL     1      20.066  30.524  15.693  0.00  0.00    +0.013 A 
BRANCH  18  19
ATOM     19  C   UNL     1      21.831  30.394  12.241  0.00  0.00    +0.119 C 
BRANCH  19  20
ATOM     20  N   UNL     1      22.544  29.114  11.957  0.00  0.00    -0.302 NA
ATOM     21  C   UNL     1      23.355  29.184  10.660  0.00  0.00    +0.066 C 
ATOM     22  C   UNL     1      24.113  27.843  10.389  0.00  0.00    -0.064 C 
ATOM     23  N   UNL     1      23.106  26.693  10.337  0.00  0.00    +0.379 N 
ATOM     24  C   UNL     1      23.809  25.440  10.025  0.00  0.00    -0.096 C 
ATOM     25  H   UNL     1      22.399  26.901   9.501  0.00  0.00    -0.082 HD
ATOM     26  C   UNL     1      22.294  26.618  11.622  0.00  0.00    -0.064 C 
ATOM     27  C   UNL     1      21.568  27.965  11.897  0.00  0.00    +0.066 C 
ENDBRANCH  19  20
ENDBRANCH  18  19
ENDBRANCH  14  15
ENDBRANCH  12  13
TORSDOF 6
ENDMDL
MODEL 3
REMARK VINA RESULT:      -8.1      4.316     12.462
REMARK  Name = C:\Users\Docking\Desktop\test protocol\1iep_ligandH.pdb
REMARK  8 active torsions:
REMARK  status: ('A' for Active; 'I' for Inactive)
REMARK    1  A    between atoms: _5  and  _11
REMARK    2  A    between atoms: _19  and  _21
REMARK    3  A    between atoms: _22  and  _66
REMARK    4  A    between atoms: _27  and  _30
REMARK    5  A    between atoms: _32  and  _33
REMARK    6  A    between atoms: _38  and  _43
REMARK    7  A    between atoms: _43  and  _46
REMARK    8  A    between atoms: _53  and  _55
REMARK                            x       y       z     vdW  Elec       q    Type
REMARK                         _______ _______ _______ _____ _____    ______ ____
ROOT
ATOM     10  C   UNL     1      22.429  30.298  12.651  0.00  0.00    +0.038 A 
ATOM     11  C   UNL     1      21.953  30.283  13.987  0.00  0.00    +0.047 A 
ATOM     12  C   UNL     1      22.328  31.323  14.932  0.00  0.00    +0.035 A 
ATOM     32  C   UNL     1      23.188  32.366  14.481  0.00  0.00    +0.024 A 
ATOM     33  C   UNL     1      23.683  32.397  13.127  0.00  0.00    +0.007 A 
ATOM     34  C   UNL     1      23.318  31.372  12.191  0.00  0.00    -0.029 A 
ATOM     35  C   UNL     1      23.884  31.452  10.754  0.00  0.00    +0.045 C 
ENDROOT
BRANCH  10   9
ATOM      4  C   UNL     1      23.080  26.006  10.604  0.00  0.00    +0.077 A 
ATOM      5  C   UNL     1      24.319  25.798  11.296  0.00  0.00    +0.048 A 
ATOM      6  C   UNL     1      24.758  26.823  12.164  0.00  0.00    +0.116 A 
ATOM      7  N   UNL     1      24.005  27.966  12.321  0.00  0.00    -0.223 NA
ATOM      8  C   UNL     1      22.815  28.136  11.638  0.00  0.00    +0.220 A 
ATOM      9  N   UNL     1      22.037  29.274  11.786  0.00  0.00    -0.283 N 
ATOM     36  H   UNL     1      21.169  29.364  11.258  0.00  0.00    +0.155 HD
ATOM     37  N   UNL     1      22.375  27.172  10.802  0.00  0.00    -0.214 NA
BRANCH   4   3
ATOM      1  C   UNL     1      22.627  23.409   7.714  0.00  0.00    +0.020 A 
ATOM      2  C   UNL     1      23.252  24.360   8.604  0.00  0.00    +0.013 A 
ATOM      3  C   UNL     1      22.483  25.013   9.656  0.00  0.00    +0.019 A 
ATOM     38  C   UNL     1      21.072  24.678   9.782  0.00  0.00    +0.120 A 
ATOM     39  N   UNL     1      20.497  23.759   8.909  0.00  0.00    -0.263 NA
ATOM     40  C   UNL     1      21.227  23.126   7.892  0.00  0.00    +0.111 A 
ENDBRANCH   4   3
ENDBRANCH  10   9
BRANCH  12  13
ATOM     13  N   UNL     1      21.882  31.356  16.302  0.00  0.00    -0.281 N 
ATOM     14  C   UNL     1      20.987  32.238  16.886  0.00  0.00    +0.248 C 
ATOM     30  O   UNL     1      20.596  33.272  16.364  0.00  0.00    -0.270 OA
ATOM     31  H   UNL     1      22.272  30.642  16.917  0.00  0.00    +0.155 HD
BRANCH  14  15
ATOM     15  C   UNL     1      20.463  31.936  18.253  0.00  0.00    +0.037 A 
ATOM     16  C   UNL     1      20.326  32.988  19.264  0.00  0.00    +0.013 A 
ATOM     17  C   UNL     1      19.834  32.667  20.580  0.00  0.00    +0.005 A 
ATOM     18  C   UNL     1      19.473  31.286  20.892  0.00  0.00    -0.033 A 
ATOM     28  C   UNL     1      19.614  30.263  19.869  0.00  0.00    +0.005 A 
ATOM     29  C   UNL     1      20.097  30.574  18.578  0.00  0.00    +0.013 A 
BRANCH  18  19
ATOM     19  C   UNL     1      18.959  30.848  22.276  0.00  0.00    +0.119 C 
BRANCH  19  20
ATOM     20  N   UNL     1      18.845  29.381  22.531  0.00  0.00    -0.302 NA
ATOM     21  C   UNL     1      17.629  29.041  23.397  0.00  0.00    +0.066 C 
ATOM     22  C   UNL     1      17.512  27.501  23.635  0.00  0.00    -0.064 C 
ATOM     23  N   UNL     1      18.800  26.988  24.283  0.00  0.00    +0.379 N 
ATOM     24  C   UNL     1      18.670  25.550  24.561  0.00  0.00    -0.096 C 
ATOM     25  H   UNL     1      18.918  27.512  25.260  0.00  0.00    -0.082 HD
ATOM     26  C   UNL     1      20.014  27.324  23.429  0.00  0.00    -0.064 C 
ATOM     27  C   UNL     1      20.104  28.855  23.174  0.00  0.00    +0.066 C 
ENDBRANCH  19  20
ENDBRANCH  18  19
ENDBRANCH  14  15
ENDBRANCH  12  13
TORSDOF 6
ENDMDL
MODEL 4
REMARK VINA RESULT:      -8.0      9.715     12.684
REMARK  Name = C:\Users\Docking\Desktop\test protocol\1iep_ligandH.pdb
REMARK  8 active torsions:
REMARK  status: ('A' for Active; 'I' for Inactive)
REMARK    1  A    between atoms: _5  and  _11
REMARK    2  A    between atoms: _19  and  _21
REMARK    3  A    between atoms: _22  and  _66
REMARK    4  A    between atoms: _27  and  _30
REMARK    5  A    between atoms: _32  and  _33
REMARK    6  A    between atoms: _38  and  _43
REMARK    7  A    between atoms: _43  and  _46
REMARK    8  A    between atoms: _53  and  _55
REMARK                            x       y       z     vdW  Elec       q    Type
REMARK                         _______ _______ _______ _____ _____    ______ ____
ROOT
ATOM     10  C   UNL     1      21.508  33.978  10.754  0.00  0.00    +0.038 A 
ATOM     11  C   UNL     1      22.089  34.597   9.618  0.00  0.00    +0.047 A 
ATOM     12  C   UNL     1      22.067  36.042   9.454  0.00  0.00    +0.035 A 
ATOM     32  C   UNL     1      21.446  36.828  10.469  0.00  0.00    +0.024 A 
ATOM     33  C   UNL     1      20.849  36.215  11.630  0.00  0.00    +0.007 A 
ATOM     34  C   UNL     1      20.867  34.790  11.796  0.00  0.00    -0.029 A 
ATOM     35  C   UNL     1      20.206  34.187  13.058  0.00  0.00    +0.045 C 
ENDROOT
BRANCH  10   9
ATOM      4  C   UNL     1      23.917  29.855  11.237  0.00  0.00    +0.077 A 
ATOM      5  C   UNL     1      25.184  30.528  11.252  0.00  0.00    +0.048 A 
ATOM      6  C   UNL     1      25.172  31.935  11.126  0.00  0.00    +0.116 A 
ATOM      7  N   UNL     1      23.977  32.609  10.995  0.00  0.00    -0.223 NA
ATOM      8  C   UNL     1      22.773  31.929  10.983  0.00  0.00    +0.220 A 
ATOM      9  N   UNL     1      21.559  32.587  10.861  0.00  0.00    -0.283 N 
ATOM     36  H   UNL     1      20.693  32.048  10.849  0.00  0.00    +0.155 HD
ATOM     37  N   UNL     1      22.758  30.585  11.101  0.00  0.00    -0.214 NA
BRANCH   4   3
ATOM      1  C   UNL     1      24.684  26.054  11.749  0.00  0.00    +0.020 A 
ATOM      2  C   UNL     1      24.886  27.480  11.635  0.00  0.00    +0.013 A 
ATOM      3  C   UNL     1      23.765  28.371  11.365  0.00  0.00    +0.019 A 
ATOM     38  C   UNL     1      22.442  27.783  11.214  0.00  0.00    +0.120 A 
ATOM     39  N   UNL     1      22.279  26.406  11.327  0.00  0.00    -0.263 NA
ATOM     40  C   UNL     1      23.350  25.538  11.586  0.00  0.00    +0.111 A 
ENDBRANCH   4   3
ENDBRANCH  10   9
BRANCH  12  13
ATOM     13  N   UNL     1      22.633  36.726   8.318  0.00  0.00    -0.281 N 
ATOM     14  C   UNL     1      23.804  37.465   8.265  0.00  0.00    +0.248 C 
ATOM     30  O   UNL     1      24.436  37.829   9.246  0.00  0.00    -0.270 OA
ATOM     31  H   UNL     1      22.107  36.657   7.447  0.00  0.00    +0.155 HD
BRANCH  14  15
ATOM     15  C   UNL     1      24.343  37.869   6.931  0.00  0.00    +0.037 A 
ATOM     16  C   UNL     1      25.751  38.236   6.761  0.00  0.00    +0.013 A 
ATOM     17  C   UNL     1      26.242  38.639   5.466  0.00  0.00    +0.005 A 
ATOM     18  C   UNL     1      25.323  38.675   4.332  0.00  0.00    -0.033 A 
ATOM     28  C   UNL     1      23.932  38.300   4.528  0.00  0.00    +0.005 A 
ATOM     29  C   UNL     1      23.447  37.906   5.795  0.00  0.00    +0.013 A 
BRANCH  18  19
ATOM     19  C   UNL     1      25.754  39.112   2.919  0.00  0.00    +0.119 C 
BRANCH  19  20
ATOM     20  N   UNL     1      26.128  38.035   1.954  0.00  0.00    -0.302 NA
ATOM     21  C   UNL     1      24.899  37.401   1.297  0.00  0.00    +0.066 C 
ATOM     22  C   UNL     1      25.310  36.292   0.274  0.00  0.00    -0.064 C 
ATOM     23  N   UNL     1      26.151  35.232   0.986  0.00  0.00    +0.379 N 
ATOM     24  C   UNL     1      26.490  34.158   0.040  0.00  0.00    -0.096 C 
ATOM     25  H   UNL     1      25.522  34.787   1.792  0.00  0.00    -0.082 HD
ATOM     26  C   UNL     1      27.374  35.854   1.645  0.00  0.00    -0.064 C 
ATOM     27  C   UNL     1      26.956  36.975   2.638  0.00  0.00    +0.066 C 
ENDBRANCH  19  20
ENDBRANCH  18  19
ENDBRANCH  14  15
ENDBRANCH  12  13
TORSDOF 6
ENDMDL
MODEL 5
REMARK VINA RESULT:      -8.0      1.963     13.037
REMARK  Name = C:\Users\Docking\Desktop\test protocol\1iep_ligandH.pdb
REMARK  8 active torsions:
REMARK  status: ('A' for Active; 'I' for Inactive)
REMARK    1  A    between atoms: _5  and  _11
REMARK    2  A    between atoms: _19  and  _21
REMARK    3  A    between atoms: _22  and  _66
REMARK    4  A    between atoms: _27  and  _30
REMARK    5  A    between atoms: _32  and  _33
REMARK    6  A    between atoms: _38  and  _43
REMARK    7  A    between atoms: _43  and  _46
REMARK    8  A    between atoms: _53  and  _55
REMARK                            x       y       z     vdW  Elec       q    Type
REMARK                         _______ _______ _______ _____ _____    ______ ____
ROOT
ATOM     10  C   UNL     1      20.573  32.455  17.244  0.00  0.00    +0.038 A 
ATOM     11  C   UNL     1      20.781  31.429  18.200  0.00  0.00    +0.047 A 
ATOM     12  C   UNL     1      19.834  31.204  19.281  0.00  0.00    +0.035 A 
ATOM     32  C   UNL     1      18.683  32.042  19.356  0.00  0.00    +0.024 A 
ATOM     33  C   UNL     1      18.456  33.091  18.392  0.00  0.00    +0.007 A 
ATOM     34  C   UNL     1      19.389  33.319  17.326  0.00  0.00    -0.029 A 
ATOM     35  C   UNL     1      19.098  34.462  16.325  0.00  0.00    +0.045 C 
ENDROOT
BRANCH  10   9
ATOM      4  C   UNL     1      22.594  31.168  13.085  0.00  0.00    +0.077 A 
ATOM      5  C   UNL     1      21.716  30.042  12.939  0.00  0.00    +0.048 A 
ATOM      6  C   UNL     1      20.763  29.826  13.959  0.00  0.00    +0.116 A 
ATOM      7  N   UNL     1      20.702  30.678  15.041  0.00  0.00    -0.223 NA
ATOM      8  C   UNL     1      21.564  31.753  15.152  0.00  0.00    +0.220 A 
ATOM      9  N   UNL     1      21.515  32.627  16.227  0.00  0.00    -0.283 N 
ATOM     36  H   UNL     1      22.174  33.404  16.275  0.00  0.00    +0.155 HD
ATOM     37  N   UNL     1      22.484  31.980  14.191  0.00  0.00    -0.214 NA
BRANCH   4   3
ATOM      1  C   UNL     1      25.804  31.085  10.851  0.00  0.00    +0.020 A 
ATOM      2  C   UNL     1      24.812  30.689  11.824  0.00  0.00    +0.013 A 
ATOM      3  C   UNL     1      23.651  31.530  12.089  0.00  0.00    +0.019 A 
ATOM     38  C   UNL     1      23.522  32.774  11.345  0.00  0.00    +0.120 A 
ATOM     39  N   UNL     1      24.494  33.130  10.415  0.00  0.00    -0.263 NA
ATOM     40  C   UNL     1      25.616  32.330  10.154  0.00  0.00    +0.111 A 
ENDBRANCH   4   3
ENDBRANCH  10   9
BRANCH  12  13
ATOM     13  N   UNL     1      19.996  30.183  20.286  0.00  0.00    -0.281 N 
ATOM     14  C   UNL     1      20.005  30.336  21.662  0.00  0.00    +0.248 C 
ATOM     30  O   UNL     1      20.088  31.412  22.237  0.00  0.00    -0.270 OA
ATOM     31  H   UNL     1      20.120  29.231  19.940  0.00  0.00    +0.155 HD
BRANCH  14  15
ATOM     15  C   UNL     1      19.924  29.119  22.525  0.00  0.00    +0.037 A 
ATOM     16  C   UNL     1      19.423  29.193  23.900  0.00  0.00    +0.013 A 
ATOM     17  C   UNL     1      19.371  28.007  24.716  0.00  0.00    +0.005 A 
ATOM     18  C   UNL     1      19.821  26.734  24.159  0.00  0.00    -0.033 A 
ATOM     28  C   UNL     1      20.309  26.687  22.790  0.00  0.00    +0.005 A 
ATOM     29  C   UNL     1      20.362  27.848  21.987  0.00  0.00    +0.013 A 
BRANCH  18  19
ATOM     19  C   UNL     1      19.822  25.421  24.964  0.00  0.00    +0.119 C 
BRANCH  19  20
ATOM     20  N   UNL     1      20.890  25.251  25.994  0.00  0.00    -0.302 NA
ATOM     21  C   UNL     1      22.214  24.792  25.378  0.00  0.00    +0.066 C 
ATOM     22  C   UNL     1      23.326  24.641  26.466  0.00  0.00    -0.064 C 
ATOM     23  N   UNL     1      22.857  23.655  27.537  0.00  0.00    +0.379 N 
ATOM     24  C   UNL     1      23.924  23.467  28.532  0.00  0.00    -0.096 C 
ATOM     25  H   UNL     1      22.681  22.673  27.040  0.00  0.00    -0.082 HD
ATOM     26  C   UNL     1      21.539  24.103  28.154  0.00  0.00    -0.064 C 
ATOM     27  C   UNL     1      20.449  24.278  27.060  0.00  0.00    +0.066 C 
ENDBRANCH  19  20
ENDBRANCH  18  19
ENDBRANCH  14  15
ENDBRANCH  12  13
TORSDOF 6
ENDMDL
