MODEL 1
REMARK VINA RESULT:      -8.6      0.000      0.000
REMARK  Name = C:\Users\Docking\Desktop\test protocol\1iep_ligandH.pdb
REMARK  8 active torsions:
REMARK  status: ('A' for Active; 'I' for Inactive)
REMARK    1  A    between atoms: _5  and  _11
REMARK    2  A    between atoms: _19  and  _21
REMARK    3  A    between atoms: _22  and  _66
REMARK    4  A    between atoms: _27  and  _30
REMARK    5  A    between atoms: _32  and  _33
REMARK    6  A    between atoms: _38  and  _43
REMARK    7  A    between atoms: _43  and  _46
REMARK    8  A    between atoms: _53  and  _55
REMARK                            x       y       z     vdW  Elec       q    Type
REMARK                         _______ _______ _______ _____ _____    ______ ____
ROOT
ATOM     10  C   UNL     1      20.248  30.078  22.086  0.00  0.00    +0.038 A 
ATOM     11  C   UNL     1      20.642  30.069  20.723  0.00  0.00    +0.047 A 
ATOM     12  C   UNL     1      20.067  31.001  19.767  0.00  0.00    +0.035 A 
ATOM     32  C   UNL     1      19.094  31.933  20.232  0.00  0.00    +0.024 A 
ATOM     33  C   UNL     1      18.681  31.956  21.613  0.00  0.00    +0.007 A 
ATOM     34  C   UNL     1      19.243  31.037  22.561  0.00  0.00    -0.029 A 
ATOM     35  C   UNL     1      18.757  31.103  24.028  0.00  0.00    +0.045 C 
ENDROOT
BRANCH  10   9
ATOM      4  C   UNL     1      20.172  25.996  24.609  0.00  0.00    +0.077 A 
ATOM      5  C   UNL     1      18.844  25.679  24.167  0.00  0.00    +0.048 A 
ATOM      6  C   UNL     1      18.213  26.596  23.297  0.00  0.00    +0.116 A 
ATOM      7  N   UNL     1      18.871  27.741  22.904  0.00  0.00    -0.223 NA
ATOM      8  C   UNL     1      20.150  28.018  23.350  0.00  0.00    +0.220 A 
ATOM      9  N   UNL     1      20.832  29.161  22.961  0.00  0.00    -0.283 N 
ATOM     36  H   UNL     1      21.772  29.333  23.318  0.00  0.00    +0.155 HD
ATOM     37  N   UNL     1      20.773  27.159  24.183  0.00  0.00    -0.214 NA
BRANCH   4   3
ATOM      1  C   UNL     1      21.210  23.627  27.543  0.00  0.00    +0.020 A 
ATOM      2  C   UNL     1      20.394  24.458  26.688  0.00  0.00    +0.013 A 
ATOM      3  C   UNL     1      20.971  25.126  25.528  0.00  0.00    +0.019 A 
ATOM     38  C   UNL     1      22.388  24.930  25.259  0.00  0.00    +0.120 A 
ATOM     39  N   UNL     1      23.149  24.125  26.101  0.00  0.00    -0.263 NA
ATOM     40  C   UNL     1      22.605  23.479  27.221  0.00  0.00    +0.111 A 
ENDBRANCH   4   3
ENDBRANCH  10   9
BRANCH  12  13
ATOM     13  N   UNL     1      20.423  31.033  18.370  0.00  0.00    -0.281 N 
ATOM     14  C   UNL     1      21.026  32.063  17.667  0.00  0.00    +0.248 C 
ATOM     30  O   UNL     1      21.158  33.202  18.089  0.00  0.00    -0.270 OA
ATOM     31  H   UNL     1      20.204  30.193  17.833  0.00  0.00    +0.155 HD
BRANCH  14  15
ATOM     15  C   UNL     1      21.545  31.793  16.292  0.00  0.00    +0.037 A 
ATOM     16  C   UNL     1      20.836  30.897  15.375  0.00  0.00    +0.013 A 
ATOM     17  C   UNL     1      21.367  30.640  14.059  0.00  0.00    +0.005 A 
ATOM     18  C   UNL     1      22.614  31.283  13.653  0.00  0.00    -0.033 A 
ATOM     28  C   UNL     1      23.294  32.171  14.581  0.00  0.00    +0.005 A 
ATOM     29  C   UNL     1      22.778  32.424  15.871  0.00  0.00    +0.013 A 
BRANCH  18  19
ATOM     19  C   UNL     1      23.265  31.050  12.277  0.00  0.00    +0.119 C 
BRANCH  19  20
ATOM     20  N   UNL     1      23.221  32.178  11.300  0.00  0.00    -0.302 NA
ATOM     21  C   UNL     1      21.806  32.742  11.137  0.00  0.00    +0.066 C 
ATOM     22  C   UNL     1      21.782  33.936  10.128  0.00  0.00    -0.064 C 
ATOM     23  N   UNL     1      22.339  33.474   8.781  0.00  0.00    +0.379 N 
ATOM     24  C   UNL     1      22.264  34.578   7.813  0.00  0.00    -0.096 C 
ATOM     25  H   UNL     1      21.684  32.652   8.408  0.00  0.00    -0.082 HD
ATOM     26  C   UNL     1      23.744  32.910   8.934  0.00  0.00    -0.064 C 
ATOM     27  C   UNL     1      23.763  31.743   9.960  0.00  0.00    +0.066 C 
ENDBRANCH  19  20
ENDBRANCH  18  19
ENDBRANCH  14  15
ENDBRANCH  12  13
TORSDOF 6
ENDMDL
MODEL 2
REMARK VINA RESULT:      -8.3      2.106      3.071
REMARK  Name = C:\Users\Docking\Desktop\test protocol\1iep_ligandH.pdb
REMARK  8 active torsions:
REMARK  status: ('A' for Active; 'I' for Inactive)
REMARK    1  A    between atoms: _5  and  _11
REMARK    2  A    between atoms: _19  and  _21
REMARK    3  A    between atoms: _22  and  _66
REMARK    4  A    between atoms: _27  and  _30
REMARK    5  A    between atoms: _32  and  _33
REMARK    6  A    between atoms: _38  and  _43
REMARK    7  A    between atoms: _43  and  _46
REMARK    8  A    between atoms: _53  and  _55
REMARK                            x       y       z     vdW  Elec       q    Type
REMARK                         _______ _______ _______ _____ _____    ______ ____
ROOT
ATOM     10  C   UNL     1      20.291  30.185  22.030  0.00  0.00    +0.038 A 
ATOM     11  C   UNL     1      20.579  30.085  20.645  0.00  0.00    +0.047 A 
ATOM     12  C   UNL     1      19.999  31.014  19.687  0.00  0.00    +0.035 A 
ATOM     32  C   UNL     1      19.131  32.034  20.176  0.00  0.00    +0.024 A 
ATOM     33  C   UNL     1      18.827  32.149  21.580  0.00  0.00    +0.007 A 
ATOM     34  C   UNL     1      19.394  31.235  22.529  0.00  0.00    -0.029 A 
ATOM     35  C   UNL     1      19.028  31.401  24.022  0.00  0.00    +0.045 C 
ENDROOT
BRANCH  10   9
ATOM      4  C   UNL     1      20.203  26.116  24.575  0.00  0.00    +0.077 A 
ATOM      5  C   UNL     1      18.870  25.807  24.145  0.00  0.00    +0.048 A 
ATOM      6  C   UNL     1      18.239  26.724  23.275  0.00  0.00    +0.116 A 
ATOM      7  N   UNL     1      18.902  27.863  22.871  0.00  0.00    -0.223 NA
ATOM      8  C   UNL     1      20.187  28.132  23.305  0.00  0.00    +0.220 A 
ATOM      9  N   UNL     1      20.875  29.267  22.906  0.00  0.00    -0.283 N 
ATOM     36  H   UNL     1      21.819  29.433  23.254  0.00  0.00    +0.155 HD
ATOM     37  N   UNL     1      20.810  27.272  24.138  0.00  0.00    -0.214 NA
BRANCH   4   3
ATOM      1  C   UNL     1      23.172  24.231  26.287  0.00  0.00    +0.020 A 
ATOM      2  C   UNL     1      22.447  25.086  25.376  0.00  0.00    +0.013 A 
ATOM      3  C   UNL     1      21.003  25.243  25.491  0.00  0.00    +0.019 A 
ATOM     38  C   UNL     1      20.317  24.516  26.549  0.00  0.00    +0.120 A 
ATOM     39  N   UNL     1      21.041  23.699  27.411  0.00  0.00    -0.263 NA
ATOM     40  C   UNL     1      22.431  23.539  27.308  0.00  0.00    +0.111 A 
ENDBRANCH   4   3
ENDBRANCH  10   9
BRANCH  12  13
ATOM     13  N   UNL     1      20.248  30.957  18.268  0.00  0.00    -0.281 N 
ATOM     14  C   UNL     1      20.932  31.873  17.486  0.00  0.00    +0.248 C 
ATOM     30  O   UNL     1      21.250  32.994  17.854  0.00  0.00    -0.270 OA
ATOM     31  H   UNL     1      19.875  30.141  17.781  0.00  0.00    +0.155 HD
BRANCH  14  15
ATOM     15  C   UNL     1      21.302  31.495  16.088  0.00  0.00    +0.037 A 
ATOM     16  C   UNL     1      22.573  31.922  15.497  0.00  0.00    +0.013 A 
ATOM     17  C   UNL     1      22.898  31.558  14.141  0.00  0.00    +0.005 A 
ATOM     18  C   UNL     1      21.950  30.761  13.366  0.00  0.00    -0.033 A 
ATOM     28  C   UNL     1      20.699  30.347  13.979  0.00  0.00    +0.005 A 
ATOM     29  C   UNL     1      20.376  30.702  15.308  0.00  0.00    +0.013 A 
BRANCH  18  19
ATOM     19  C   UNL     1      22.205  30.345  11.905  0.00  0.00    +0.119 C 
BRANCH  19  20
ATOM     20  N   UNL     1      22.605  28.927  11.658  0.00  0.00    -0.302 NA
ATOM     21  C   UNL     1      23.615  28.807  10.513  0.00  0.00    +0.066 C 
ATOM     22  C   UNL     1      24.040  27.321  10.283  0.00  0.00    -0.064 C 
ATOM     23  N   UNL     1      22.797  26.475  10.000  0.00  0.00    +0.379 N 
ATOM     24  C   UNL     1      23.199  25.088   9.726  0.00  0.00    -0.096 C 
ATOM     25  H   UNL     1      22.318  26.877   9.077  0.00  0.00    -0.082 HD
ATOM     26  C   UNL     1      21.787  26.591  11.133  0.00  0.00    -0.064 C 
ATOM     27  C   UNL     1      21.393  28.075  11.373  0.00  0.00    +0.066 C 
ENDBRANCH  19  20
ENDBRANCH  18  19
ENDBRANCH  14  15
ENDBRANCH  12  13
TORSDOF 6
ENDMDL
MODEL 3
REMARK VINA RESULT:      -7.9      1.623      2.688
REMARK  Name = C:\Users\Docking\Desktop\test protocol\1iep_ligandH.pdb
REMARK  8 active torsions:
REMARK  status: ('A' for Active; 'I' for Inactive)
REMARK    1  A    between atoms: _5  and  _11
REMARK    2  A    between atoms: _19  and  _21
REMARK    3  A    between atoms: _22  and  _66
REMARK    4  A    between atoms: _27  and  _30
REMARK    5  A    between atoms: _32  and  _33
REMARK    6  A    between atoms: _38  and  _43
REMARK    7  A    between atoms: _43  and  _46
REMARK    8  A    between atoms: _53  and  _55
REMARK                            x       y       z     vdW  Elec       q    Type
REMARK                         _______ _______ _______ _____ _____    ______ ____
ROOT
ATOM     10  C   UNL     1      20.122  30.183  22.229  0.00  0.00    +0.038 A 
ATOM     11  C   UNL     1      20.397  30.154  20.838  0.00  0.00    +0.047 A 
ATOM     12  C   UNL     1      19.781  31.108  19.929  0.00  0.00    +0.035 A 
ATOM     32  C   UNL     1      18.890  32.080  20.472  0.00  0.00    +0.024 A 
ATOM     33  C   UNL     1      18.599  32.122  21.883  0.00  0.00    +0.007 A 
ATOM     34  C   UNL     1      19.202  31.183  22.784  0.00  0.00    -0.029 A 
ATOM     35  C   UNL     1      18.848  31.271  24.287  0.00  0.00    +0.045 C 
ENDROOT
BRANCH  10   9
ATOM      4  C   UNL     1      20.147  26.040  24.652  0.00  0.00    +0.077 A 
ATOM      5  C   UNL     1      18.801  25.734  24.259  0.00  0.00    +0.048 A 
ATOM      6  C   UNL     1      18.136  26.672  23.439  0.00  0.00    +0.116 A 
ATOM      7  N   UNL     1      18.777  27.827  23.047  0.00  0.00    -0.223 NA
ATOM      8  C   UNL     1      20.075  28.092  23.445  0.00  0.00    +0.220 A 
ATOM      9  N   UNL     1      20.742  29.243  23.056  0.00  0.00    -0.283 N 
ATOM     36  H   UNL     1      21.696  29.406  23.377  0.00  0.00    +0.155 HD
ATOM     37  N   UNL     1      20.732  27.212  24.229  0.00  0.00    -0.214 NA
BRANCH   4   3
ATOM      1  C   UNL     1      21.318  23.638  27.509  0.00  0.00    +0.020 A 
ATOM      2  C   UNL     1      20.469  24.492  26.711  0.00  0.00    +0.013 A 
ATOM      3  C   UNL     1      20.983  25.146  25.514  0.00  0.00    +0.019 A 
ATOM     38  C   UNL     1      22.372  24.912  25.149  0.00  0.00    +0.120 A 
ATOM     39  N   UNL     1      23.167  24.086  25.938  0.00  0.00    -0.263 NA
ATOM     40  C   UNL     1      22.683  23.453  27.092  0.00  0.00    +0.111 A 
ENDBRANCH   4   3
ENDBRANCH  10   9
BRANCH  12  13
ATOM     13  N   UNL     1      20.016  31.122  18.507  0.00  0.00    -0.281 N 
ATOM     14  C   UNL     1      20.154  32.223  17.677  0.00  0.00    +0.248 C 
ATOM     30  O   UNL     1      19.881  33.370  18.000  0.00  0.00    -0.270 OA
ATOM     31  H   UNL     1      20.090  30.209  18.056  0.00  0.00    +0.155 HD
BRANCH  14  15
ATOM     15  C   UNL     1      20.652  32.019  16.283  0.00  0.00    +0.037 A 
ATOM     16  C   UNL     1      22.086  31.993  15.985  0.00  0.00    +0.013 A 
ATOM     17  C   UNL     1      22.540  31.812  14.629  0.00  0.00    +0.005 A 
ATOM     18  C   UNL     1      21.557  31.652  13.560  0.00  0.00    -0.033 A 
ATOM     28  C   UNL     1      20.141  31.676  13.885  0.00  0.00    +0.005 A 
ATOM     29  C   UNL     1      19.692  31.855  15.212  0.00  0.00    +0.013 A 
BRANCH  18  19
ATOM     19  C   UNL     1      21.951  31.474  12.082  0.00  0.00    +0.119 C 
BRANCH  19  20
ATOM     20  N   UNL     1      22.517  30.153  11.679  0.00  0.00    -0.302 NA
ATOM     21  C   UNL     1      21.889  28.996  12.462  0.00  0.00    +0.066 C 
ATOM     22  C   UNL     1      22.477  27.619  12.012  0.00  0.00    -0.064 C 
ATOM     23  N   UNL     1      23.996  27.633  12.191  0.00  0.00    +0.379 N 
ATOM     24  C   UNL     1      24.545  26.319  11.824  0.00  0.00    -0.096 C 
ATOM     25  H   UNL     1      24.207  27.797  13.274  0.00  0.00    -0.082 HD
ATOM     26  C   UNL     1      24.628  28.781  11.418  0.00  0.00    -0.064 C 
ATOM     27  C   UNL     1      24.016  30.143  11.852  0.00  0.00    +0.066 C 
ENDBRANCH  19  20
ENDBRANCH  18  19
ENDBRANCH  14  15
ENDBRANCH  12  13
TORSDOF 6
ENDMDL
MODEL 4
REMARK VINA RESULT:      -7.9      4.045     12.534
REMARK  Name = C:\Users\Docking\Desktop\test protocol\1iep_ligandH.pdb
REMARK  8 active torsions:
REMARK  status: ('A' for Active; 'I' for Inactive)
REMARK    1  A    between atoms: _5  and  _11
REMARK    2  A    between atoms: _19  and  _21
REMARK    3  A    between atoms: _22  and  _66
REMARK    4  A    between atoms: _27  and  _30
REMARK    5  A    between atoms: _32  and  _33
REMARK    6  A    between atoms: _38  and  _43
REMARK    7  A    between atoms: _43  and  _46
REMARK    8  A    between atoms: _53  and  _55
REMARK                            x       y       z     vdW  Elec       q    Type
REMARK                         _______ _______ _______ _____ _____    ______ ____
ROOT
ATOM     10  C   UNL     1      22.613  30.208  12.416  0.00  0.00    +0.038 A 
ATOM     11  C   UNL     1      22.034  30.244  13.711  0.00  0.00    +0.047 A 
ATOM     12  C   UNL     1      22.421  31.256  14.681  0.00  0.00    +0.035 A 
ATOM     32  C   UNL     1      23.401  32.218  14.298  0.00  0.00    +0.024 A 
ATOM     33  C   UNL     1      24.001  32.196  12.987  0.00  0.00    +0.007 A 
ATOM     34  C   UNL     1      23.624  31.198  12.027  0.00  0.00    -0.029 A 
ATOM     35  C   UNL     1      24.305  31.218  10.639  0.00  0.00    +0.045 C 
ENDROOT
BRANCH  10   9
ATOM      4  C   UNL     1      23.120  25.906  10.349  0.00  0.00    +0.077 A 
ATOM      5  C   UNL     1      24.317  25.625  11.089  0.00  0.00    +0.048 A 
ATOM      6  C   UNL     1      24.772  26.618  11.986  0.00  0.00    +0.116 A 
ATOM      7  N   UNL     1      24.075  27.798  12.125  0.00  0.00    -0.223 NA
ATOM      8  C   UNL     1      22.925  28.037  11.395  0.00  0.00    +0.220 A 
ATOM      9  N   UNL     1      22.204  29.214  11.525  0.00  0.00    -0.283 N 
ATOM     36  H   UNL     1      21.365  29.355  10.963  0.00  0.00    +0.155 HD
ATOM     37  N   UNL     1      22.470  27.106  10.531  0.00  0.00    -0.214 NA
BRANCH   4   3
ATOM      1  C   UNL     1      22.650  23.371   7.408  0.00  0.00    +0.020 A 
ATOM      2  C   UNL     1      23.287  24.279   8.333  0.00  0.00    +0.013 A 
ATOM      3  C   UNL     1      22.511  24.955   9.365  0.00  0.00    +0.019 A 
ATOM     38  C   UNL     1      21.083  24.687   9.436  0.00  0.00    +0.120 A 
ATOM     39  N   UNL     1      20.497  23.808   8.530  0.00  0.00    -0.263 NA
ATOM     40  C   UNL     1      21.233  23.153   7.531  0.00  0.00    +0.111 A 
ENDBRANCH   4   3
ENDBRANCH  10   9
BRANCH  12  13
ATOM     13  N   UNL     1      21.873  31.337  16.012  0.00  0.00    -0.281 N 
ATOM     14  C   UNL     1      20.714  31.977  16.418  0.00  0.00    +0.248 C 
ATOM     30  O   UNL     1      20.080  32.762  15.729  0.00  0.00    -0.270 OA
ATOM     31  H   UNL     1      22.405  30.866  16.744  0.00  0.00    +0.155 HD
BRANCH  14  15
ATOM     15  C   UNL     1      20.191  31.718  17.794  0.00  0.00    +0.037 A 
ATOM     16  C   UNL     1      20.325  32.717  18.858  0.00  0.00    +0.013 A 
ATOM     17  C   UNL     1      19.827  32.435  20.181  0.00  0.00    +0.005 A 
ATOM     18  C   UNL     1      19.188  31.149  20.447  0.00  0.00    -0.033 A 
ATOM     28  C   UNL     1      19.063  30.179  19.372  0.00  0.00    +0.005 A 
ATOM     29  C   UNL     1      19.551  30.451  18.074  0.00  0.00    +0.013 A 
BRANCH  18  19
ATOM     19  C   UNL     1      18.646  30.755  21.834  0.00  0.00    +0.119 C 
BRANCH  19  20
ATOM     20  N   UNL     1      18.668  29.305  22.190  0.00  0.00    -0.302 NA
ATOM     21  C   UNL     1      17.616  28.956  23.247  0.00  0.00    +0.066 C 
ATOM     22  C   UNL     1      17.638  27.431  23.591  0.00  0.00    -0.064 C 
ATOM     23  N   UNL     1      19.037  27.040  24.070  0.00  0.00    +0.379 N 
ATOM     24  C   UNL     1      19.046  25.620  24.449  0.00  0.00    -0.096 C 
ATOM     25  H   UNL     1      19.261  27.636  24.985  0.00  0.00    -0.082 HD
ATOM     26  C   UNL     1      20.090  27.385  23.026  0.00  0.00    -0.064 C 
ATOM     27  C   UNL     1      20.040  28.897  22.670  0.00  0.00    +0.066 C 
ENDBRANCH  19  20
ENDBRANCH  18  19
ENDBRANCH  14  15
ENDBRANCH  12  13
TORSDOF 6
ENDMDL
MODEL 5
REMARK VINA RESULT:      -7.8      7.021     11.351
REMARK  Name = C:\Users\Docking\Desktop\test protocol\1iep_ligandH.pdb
REMARK  8 active torsions:
REMARK  status: ('A' for Active; 'I' for Inactive)
REMARK    1  A    between atoms: _5  and  _11
REMARK    2  A    between atoms: _19  and  _21
REMARK    3  A    between atoms: _22  and  _66
REMARK    4  A    between atoms: _27  and  _30
REMARK    5  A    between atoms: _32  and  _33
REMARK    6  A    between atoms: _38  and  _43
REMARK    7  A    between atoms: _43  and  _46
REMARK    8  A    between atoms: _53  and  _55
REMARK                            x       y       z     vdW  Elec       q    Type
REMARK                         _______ _______ _______ _____ _____    ______ ____
ROOT
ATOM     10  C   UNL     1      20.719  32.305  16.662  0.00  0.00    +0.038 A 
ATOM     11  C   UNL     1      21.579  33.211  17.333  0.00  0.00    +0.047 A 
ATOM     12  C   UNL     1      21.056  34.398  17.991  0.00  0.00    +0.035 A 
ATOM     32  C   UNL     1      19.651  34.630  17.949  0.00  0.00    +0.024 A 
ATOM     33  C   UNL     1      18.761  33.720  17.271  0.00  0.00    +0.007 A 
ATOM     34  C   UNL     1      19.272  32.549  16.618  0.00  0.00    -0.029 A 
ATOM     35  C   UNL     1      18.273  31.611  15.900  0.00  0.00    +0.045 C 
ENDROOT
BRANCH  10   9
ATOM      4  C   UNL     1      22.427  29.994  12.818  0.00  0.00    +0.077 A 
ATOM      5  C   UNL     1      22.165  31.111  11.957  0.00  0.00    +0.048 A 
ATOM      6  C   UNL     1      21.583  32.259  12.541  0.00  0.00    +0.116 A 
ATOM      7  N   UNL     1      21.290  32.277  13.887  0.00  0.00    -0.223 NA
ATOM      8  C   UNL     1      21.554  31.182  14.689  0.00  0.00    +0.220 A 
ATOM      9  N   UNL     1      21.275  31.181  16.047  0.00  0.00    -0.283 N 
ATOM     36  H   UNL     1      21.477  30.351  16.603  0.00  0.00    +0.155 HD
ATOM     37  N   UNL     1      22.108  30.073  14.155  0.00  0.00    -0.214 NA
BRANCH   4   3
ATOM      1  C   UNL     1      24.976  27.346  11.480  0.00  0.00    +0.020 A 
ATOM      2  C   UNL     1      24.431  28.608  11.923  0.00  0.00    +0.013 A 
ATOM      3  C   UNL     1      23.041  28.712  12.350  0.00  0.00    +0.019 A 
ATOM     38  C   UNL     1      22.223  27.509  12.317  0.00  0.00    +0.120 A 
ATOM     39  N   UNL     1      22.774  26.307  11.884  0.00  0.00    -0.263 NA
ATOM     40  C   UNL     1      24.110  26.196  11.469  0.00  0.00    +0.111 A 
ENDBRANCH   4   3
ENDBRANCH  10   9
BRANCH  12  13
ATOM     13  N   UNL     1      21.882  35.358  18.681  0.00  0.00    -0.281 N 
ATOM     14  C   UNL     1      22.058  35.505  20.047  0.00  0.00    +0.248 C 
ATOM     30  O   UNL     1      21.361  34.967  20.895  0.00  0.00    -0.270 OA
ATOM     31  H   UNL     1      22.400  36.008  18.090  0.00  0.00    +0.155 HD
BRANCH  14  15
ATOM     15  C   UNL     1      23.157  36.388  20.543  0.00  0.00    +0.037 A 
ATOM     16  C   UNL     1      23.434  37.682  19.915  0.00  0.00    +0.013 A 
ATOM     17  C   UNL     1      24.511  38.507  20.402  0.00  0.00    +0.005 A 
ATOM     18  C   UNL     1      25.319  38.039  21.526  0.00  0.00    -0.033 A 
ATOM     28  C   UNL     1      25.019  36.754  22.134  0.00  0.00    +0.005 A 
ATOM     29  C   UNL     1      23.964  35.942  21.659  0.00  0.00    +0.013 A 
BRANCH  18  19
ATOM     19  C   UNL     1      26.501  38.844  22.098  0.00  0.00    +0.119 C 
BRANCH  19  20
ATOM     20  N   UNL     1      27.875  38.317  21.841  0.00  0.00    -0.302 NA
ATOM     21  C   UNL     1      28.563  37.856  23.129  0.00  0.00    +0.066 C 
ATOM     22  C   UNL     1      29.990  37.287  22.838  0.00  0.00    -0.064 C 
ATOM     23  N   UNL     1      30.827  38.353  22.129  0.00  0.00    +0.379 N 
ATOM     24  C   UNL     1      32.187  37.842  21.907  0.00  0.00    -0.096 C 
ATOM     25  H   UNL     1      30.903  39.232  22.811  0.00  0.00    -0.082 HD
ATOM     26  C   UNL     1      30.148  38.819  20.849  0.00  0.00    -0.064 C 
ATOM     27  C   UNL     1      28.719  39.356  21.145  0.00  0.00    +0.066 C 
ENDBRANCH  19  20
ENDBRANCH  18  19
ENDBRANCH  14  15
ENDBRANCH  12  13
TORSDOF 6
ENDMDL
