MODEL 1
REMARK VINA RESULT:      -8.9      0.000      0.000
REMARK  Name = C:\Users\Docking\Desktop\test protocol\1iep_ligandH.pdb
REMARK  8 active torsions:
REMARK  status: ('A' for Active; 'I' for Inactive)
REMARK    1  A    between atoms: _5  and  _11
REMARK    2  A    between atoms: _19  and  _21
REMARK    3  A    between atoms: _22  and  _66
REMARK    4  A    between atoms: _27  and  _30
REMARK    5  A    between atoms: _32  and  _33
REMARK    6  A    between atoms: _38  and  _43
REMARK    7  A    between atoms: _43  and  _46
REMARK    8  A    between atoms: _53  and  _55
REMARK                            x       y       z     vdW  Elec       q    Type
REMARK                         _______ _______ _______ _____ _____    ______ ____
ROOT
ATOM     10  C   UNL     1      19.986  29.839  22.403  0.00  0.00    +0.038 A 
ATOM     11  C   UNL     1      20.497  29.956  21.085  0.00  0.00    +0.047 A 
ATOM     12  C   UNL     1      19.869  30.835  20.110  0.00  0.00    +0.035 A 
ATOM     32  C   UNL     1      18.724  31.582  20.512  0.00  0.00    +0.024 A 
ATOM     33  C   UNL     1      18.191  31.474  21.848  0.00  0.00    +0.007 A 
ATOM     34  C   UNL     1      18.805  30.607  22.813  0.00  0.00    -0.029 A 
ATOM     35  C   UNL     1      18.186  30.526  24.228  0.00  0.00    +0.045 C 
ENDROOT
BRANCH  10   9
ATOM      4  C   UNL     1      20.211  25.776  24.948  0.00  0.00    +0.077 A 
ATOM      5  C   UNL     1      18.929  25.339  24.475  0.00  0.00    +0.048 A 
ATOM      6  C   UNL     1      18.241  26.193  23.583  0.00  0.00    +0.116 A 
ATOM      7  N   UNL     1      18.803  27.391  23.200  0.00  0.00    -0.223 NA
ATOM      8  C   UNL     1      20.041  27.783  23.676  0.00  0.00    +0.220 A 
ATOM      9  N   UNL     1      20.628  28.980  23.298  0.00  0.00    -0.283 N 
ATOM     36  H   UNL     1      21.539  29.237  23.677  0.00  0.00    +0.155 HD
ATOM     37  N   UNL     1      20.717  26.987  24.530  0.00  0.00    -0.214 NA
BRANCH   4   3
ATOM      1  C   UNL     1      23.292  24.192  26.764  0.00  0.00    +0.020 A 
ATOM      2  C   UNL     1      22.517  24.974  25.828  0.00  0.00    +0.013 A 
ATOM      3  C   UNL     1      21.061  24.984  25.891  0.00  0.00    +0.019 A 
ATOM     38  C   UNL     1      20.415  24.185  26.922  0.00  0.00    +0.120 A 
ATOM     39  N   UNL     1      21.187  23.441  27.808  0.00  0.00    -0.263 NA
ATOM     40  C   UNL     1      22.589  23.422  27.756  0.00  0.00    +0.111 A 
ENDBRANCH   4   3
ENDBRANCH  10   9
BRANCH  12  13
ATOM     13  N   UNL     1      20.338  30.989  18.755  0.00  0.00    -0.281 N 
ATOM     14  C   UNL     1      20.849  32.128  18.155  0.00  0.00    +0.248 C 
ATOM     30  O   UNL     1      20.782  33.251  18.633  0.00  0.00    -0.270 OA
ATOM     31  H   UNL     1      20.288  30.157  18.167  0.00  0.00    +0.155 HD
BRANCH  14  15
ATOM     15  C   UNL     1      21.519  32.005  16.825  0.00  0.00    +0.037 A 
ATOM     16  C   UNL     1      21.034  31.062  15.814  0.00  0.00    +0.013 A 
ATOM     17  C   UNL     1      21.709  30.950  14.545  0.00  0.00    +0.005 A 
ATOM     18  C   UNL     1      22.878  31.786  14.280  0.00  0.00    -0.033 A 
ATOM     28  C   UNL     1      23.335  32.717  15.299  0.00  0.00    +0.005 A 
ATOM     29  C   UNL     1      22.676  32.828  16.544  0.00  0.00    +0.013 A 
BRANCH  18  19
ATOM     19  C   UNL     1      23.673  31.719  12.962  0.00  0.00    +0.119 C 
BRANCH  19  20
ATOM     20  N   UNL     1      23.458  32.821  11.977  0.00  0.00    -0.302 NA
ATOM     21  C   UNL     1      22.086  32.730  11.303  0.00  0.00    +0.066 C 
ATOM     22  C   UNL     1      21.870  33.903  10.292  0.00  0.00    -0.064 C 
ATOM     23  N   UNL     1      22.988  33.886   9.249  0.00  0.00    +0.379 N 
ATOM     24  C   UNL     1      22.756  34.952   8.264  0.00  0.00    -0.096 C 
ATOM     25  H   UNL     1      22.935  32.911   8.712  0.00  0.00    -0.082 HD
ATOM     26  C   UNL     1      24.356  33.974   9.911  0.00  0.00    -0.064 C 
ATOM     27  C   UNL     1      24.549  32.821  10.935  0.00  0.00    +0.066 C 
ENDBRANCH  19  20
ENDBRANCH  18  19
ENDBRANCH  14  15
ENDBRANCH  12  13
TORSDOF 6
ENDMDL
MODEL 2
REMARK VINA RESULT:      -8.7      2.011      2.843
REMARK  Name = C:\Users\Docking\Desktop\test protocol\1iep_ligandH.pdb
REMARK  8 active torsions:
REMARK  status: ('A' for Active; 'I' for Inactive)
REMARK    1  A    between atoms: _5  and  _11
REMARK    2  A    between atoms: _19  and  _21
REMARK    3  A    between atoms: _22  and  _66
REMARK    4  A    between atoms: _27  and  _30
REMARK    5  A    between atoms: _32  and  _33
REMARK    6  A    between atoms: _38  and  _43
REMARK    7  A    between atoms: _43  and  _46
REMARK    8  A    between atoms: _53  and  _55
REMARK                            x       y       z     vdW  Elec       q    Type
REMARK                         _______ _______ _______ _____ _____    ______ ____
ROOT
ATOM     10  C   UNL     1      19.893  29.935  22.588  0.00  0.00    +0.038 A 
ATOM     11  C   UNL     1      20.302  29.979  21.231  0.00  0.00    +0.047 A 
ATOM     12  C   UNL     1      19.655  30.869  20.279  0.00  0.00    +0.035 A 
ATOM     32  C   UNL     1      18.596  31.702  20.744  0.00  0.00    +0.024 A 
ATOM     33  C   UNL     1      18.167  31.669  22.120  0.00  0.00    +0.007 A 
ATOM     34  C   UNL     1      18.800  30.792  23.063  0.00  0.00    -0.029 A 
ATOM     35  C   UNL     1      18.294  30.794  24.525  0.00  0.00    +0.045 C 
ENDROOT
BRANCH  10   9
ATOM      4  C   UNL     1      20.190  25.801  25.009  0.00  0.00    +0.077 A 
ATOM      5  C   UNL     1      18.919  25.354  24.518  0.00  0.00    +0.048 A 
ATOM      6  C   UNL     1      18.217  26.220  23.650  0.00  0.00    +0.116 A 
ATOM      7  N   UNL     1      18.756  27.441  23.306  0.00  0.00    -0.223 NA
ATOM      8  C   UNL     1      19.984  27.843  23.799  0.00  0.00    +0.220 A 
ATOM      9  N   UNL     1      20.549  29.063  23.459  0.00  0.00    -0.283 N 
ATOM     36  H   UNL     1      21.453  29.325  23.850  0.00  0.00    +0.155 HD
ATOM     37  N   UNL     1      20.673  27.034  24.630  0.00  0.00    -0.214 NA
BRANCH   4   3
ATOM      1  C   UNL     1      23.296  24.210  26.777  0.00  0.00    +0.020 A 
ATOM      2  C   UNL     1      22.509  25.005  25.862  0.00  0.00    +0.013 A 
ATOM      3  C   UNL     1      21.053  24.997  25.931  0.00  0.00    +0.019 A 
ATOM     38  C   UNL     1      20.420  24.170  26.947  0.00  0.00    +0.120 A 
ATOM     39  N   UNL     1      21.203  23.414  27.813  0.00  0.00    -0.263 NA
ATOM     40  C   UNL     1      22.605  23.412  27.755  0.00  0.00    +0.111 A 
ENDBRANCH   4   3
ENDBRANCH  10   9
BRANCH  12  13
ATOM     13  N   UNL     1      20.022  30.951  18.887  0.00  0.00    -0.281 N 
ATOM     14  C   UNL     1      20.705  31.971  18.245  0.00  0.00    +0.248 C 
ATOM     30  O   UNL     1      20.919  33.072  18.730  0.00  0.00    -0.270 OA
ATOM     31  H   UNL     1      19.744  30.161  18.304  0.00  0.00    +0.155 HD
BRANCH  14  15
ATOM     15  C   UNL     1      21.212  31.739  16.858  0.00  0.00    +0.037 A 
ATOM     16  C   UNL     1      22.428  32.396  16.374  0.00  0.00    +0.013 A 
ATOM     17  C   UNL     1      22.886  32.169  15.026  0.00  0.00    +0.005 A 
ATOM     18  C   UNL     1      22.125  31.278  14.152  0.00  0.00    -0.033 A 
ATOM     28  C   UNL     1      20.924  30.635  14.660  0.00  0.00    +0.005 A 
ATOM     29  C   UNL     1      20.473  30.857  15.980  0.00  0.00    +0.013 A 
BRANCH  18  19
ATOM     19  C   UNL     1      22.527  30.994  12.693  0.00  0.00    +0.119 C 
BRANCH  19  20
ATOM     20  N   UNL     1      22.907  29.591  12.349  0.00  0.00    -0.302 NA
ATOM     21  C   UNL     1      24.246  29.523  11.610  0.00  0.00    +0.066 C 
ATOM     22  C   UNL     1      24.639  28.047  11.278  0.00  0.00    -0.064 C 
ATOM     23  N   UNL     1      23.528  27.402  10.446  0.00  0.00    +0.379 N 
ATOM     24  C   UNL     1      23.920  26.032  10.083  0.00  0.00    -0.096 C 
ATOM     25  H   UNL     1      23.429  27.987   9.503  0.00  0.00    -0.082 HD
ATOM     26  C   UNL     1      22.192  27.468  11.173  0.00  0.00    -0.064 C 
ATOM     27  C   UNL     1      21.826  28.937  11.524  0.00  0.00    +0.066 C 
ENDBRANCH  19  20
ENDBRANCH  18  19
ENDBRANCH  14  15
ENDBRANCH  12  13
TORSDOF 6
ENDMDL
MODEL 3
REMARK VINA RESULT:      -8.3      1.864     13.073
REMARK  Name = C:\Users\Docking\Desktop\test protocol\1iep_ligandH.pdb
REMARK  8 active torsions:
REMARK  status: ('A' for Active; 'I' for Inactive)
REMARK    1  A    between atoms: _5  and  _11
REMARK    2  A    between atoms: _19  and  _21
REMARK    3  A    between atoms: _22  and  _66
REMARK    4  A    between atoms: _27  and  _30
REMARK    5  A    between atoms: _32  and  _33
REMARK    6  A    between atoms: _38  and  _43
REMARK    7  A    between atoms: _43  and  _46
REMARK    8  A    between atoms: _53  and  _55
REMARK                            x       y       z     vdW  Elec       q    Type
REMARK                         _______ _______ _______ _____ _____    ______ ____
ROOT
ATOM     10  C   UNL     1      20.682  32.635  17.552  0.00  0.00    +0.038 A 
ATOM     11  C   UNL     1      20.864  31.585  18.488  0.00  0.00    +0.047 A 
ATOM     12  C   UNL     1      19.916  31.367  19.569  0.00  0.00    +0.035 A 
ATOM     32  C   UNL     1      18.790  32.237  19.665  0.00  0.00    +0.024 A 
ATOM     33  C   UNL     1      18.590  33.309  18.723  0.00  0.00    +0.007 A 
ATOM     34  C   UNL     1      19.524  33.530  17.656  0.00  0.00    -0.029 A 
ATOM     35  C   UNL     1      19.262  34.700  16.679  0.00  0.00    +0.045 C 
ENDROOT
BRANCH  10   9
ATOM      4  C   UNL     1      22.564  31.453  13.297  0.00  0.00    +0.077 A 
ATOM      5  C   UNL     1      21.605  30.404  13.098  0.00  0.00    +0.048 A 
ATOM      6  C   UNL     1      20.650  30.196  14.118  0.00  0.00    +0.116 A 
ATOM      7  N   UNL     1      20.660  30.985  15.248  0.00  0.00    -0.223 NA
ATOM      8  C   UNL     1      21.599  31.987  15.409  0.00  0.00    +0.220 A 
ATOM      9  N   UNL     1      21.624  32.798  16.533  0.00  0.00    -0.283 N 
ATOM     36  H   UNL     1      22.337  33.522  16.618  0.00  0.00    +0.155 HD
ATOM     37  N   UNL     1      22.524  32.205  14.450  0.00  0.00    -0.214 NA
BRANCH   4   3
ATOM      1  C   UNL     1      25.833  31.361  11.152  0.00  0.00    +0.020 A 
ATOM      2  C   UNL     1      24.829  30.985  12.121  0.00  0.00    +0.013 A 
ATOM      3  C   UNL     1      23.634  31.797  12.309  0.00  0.00    +0.019 A 
ATOM     38  C   UNL     1      23.484  32.994  11.494  0.00  0.00    +0.120 A 
ATOM     39  N   UNL     1      24.468  33.332  10.571  0.00  0.00    -0.263 NA
ATOM     40  C   UNL     1      25.623  32.558  10.382  0.00  0.00    +0.111 A 
ENDBRANCH   4   3
ENDBRANCH  10   9
BRANCH  12  13
ATOM     13  N   UNL     1      20.053  30.323  20.553  0.00  0.00    -0.281 N 
ATOM     14  C   UNL     1      19.905  30.423  21.927  0.00  0.00    +0.248 C 
ATOM     30  O   UNL     1      19.840  31.478  22.540  0.00  0.00    -0.270 OA
ATOM     31  H   UNL     1      20.289  29.398  20.194  0.00  0.00    +0.155 HD
BRANCH  14  15
ATOM     15  C   UNL     1      19.832  29.170  22.738  0.00  0.00    +0.037 A 
ATOM     16  C   UNL     1      19.328  29.183  24.114  0.00  0.00    +0.013 A 
ATOM     17  C   UNL     1      19.284  27.963  24.881  0.00  0.00    +0.005 A 
ATOM     18  C   UNL     1      19.744  26.718  24.271  0.00  0.00    -0.033 A 
ATOM     28  C   UNL     1      20.234  26.732  22.903  0.00  0.00    +0.005 A 
ATOM     29  C   UNL     1      20.280  27.926  22.149  0.00  0.00    +0.013 A 
BRANCH  18  19
ATOM     19  C   UNL     1      19.753  25.373  25.021  0.00  0.00    +0.119 C 
BRANCH  19  20
ATOM     20  N   UNL     1      20.805  25.178  26.064  0.00  0.00    -0.302 NA
ATOM     21  C   UNL     1      22.148  24.767  25.455  0.00  0.00    +0.066 C 
ATOM     22  C   UNL     1      23.242  24.590  26.558  0.00  0.00    -0.064 C 
ATOM     23  N   UNL     1      22.770  23.553  27.579  0.00  0.00    +0.379 N 
ATOM     24  C   UNL     1      23.821  23.342  28.585  0.00  0.00    -0.096 C 
ATOM     25  H   UNL     1      22.620  22.590  27.038  0.00  0.00    -0.082 HD
ATOM     26  C   UNL     1      21.433  23.953  28.187  0.00  0.00    -0.064 C 
ATOM     27  C   UNL     1      20.361  24.156  27.081  0.00  0.00    +0.066 C 
ENDBRANCH  19  20
ENDBRANCH  18  19
ENDBRANCH  14  15
ENDBRANCH  12  13
TORSDOF 6
ENDMDL
MODEL 4
REMARK VINA RESULT:      -8.3      4.413     12.574
REMARK  Name = C:\Users\Docking\Desktop\test protocol\1iep_ligandH.pdb
REMARK  8 active torsions:
REMARK  status: ('A' for Active; 'I' for Inactive)
REMARK    1  A    between atoms: _5  and  _11
REMARK    2  A    between atoms: _19  and  _21
REMARK    3  A    between atoms: _22  and  _66
REMARK    4  A    between atoms: _27  and  _30
REMARK    5  A    between atoms: _32  and  _33
REMARK    6  A    between atoms: _38  and  _43
REMARK    7  A    between atoms: _43  and  _46
REMARK    8  A    between atoms: _53  and  _55
REMARK                            x       y       z     vdW  Elec       q    Type
REMARK                         _______ _______ _______ _____ _____    ______ ____
ROOT
ATOM     10  C   UNL     1      22.696  30.437  12.552  0.00  0.00    +0.038 A 
ATOM     11  C   UNL     1      22.172  30.510  13.868  0.00  0.00    +0.047 A 
ATOM     12  C   UNL     1      22.634  31.520  14.807  0.00  0.00    +0.035 A 
ATOM     32  C   UNL     1      23.629  32.443  14.371  0.00  0.00    +0.024 A 
ATOM     33  C   UNL     1      24.174  32.383  13.037  0.00  0.00    +0.007 A 
ATOM     34  C   UNL     1      23.724  31.387  12.107  0.00  0.00    -0.029 A 
ATOM     35  C   UNL     1      24.347  31.365  10.692  0.00  0.00    +0.045 C 
ENDROOT
BRANCH  10   9
ATOM      4  C   UNL     1      22.935  26.071  10.574  0.00  0.00    +0.077 A 
ATOM      5  C   UNL     1      24.131  25.745  11.295  0.00  0.00    +0.048 A 
ATOM      6  C   UNL     1      24.657  26.731  12.159  0.00  0.00    +0.116 A 
ATOM      7  N   UNL     1      24.025  27.949  12.285  0.00  0.00    -0.223 NA
ATOM      8  C   UNL     1      22.873  28.232  11.574  0.00  0.00    +0.220 A 
ATOM      9  N   UNL     1      22.217  29.447  11.691  0.00  0.00    -0.283 N 
ATOM     36  H   UNL     1      21.374  29.620  11.144  0.00  0.00    +0.155 HD
ATOM     37  N   UNL     1      22.352  27.307  10.741  0.00  0.00    -0.214 NA
BRANCH   4   3
ATOM      1  C   UNL     1      20.251  23.832   8.817  0.00  0.00    +0.020 A 
ATOM      2  C   UNL     1      20.859  24.741   9.761  0.00  0.00    +0.013 A 
ATOM      3  C   UNL     1      22.256  25.132   9.625  0.00  0.00    +0.019 A 
ATOM     38  C   UNL     1      23.017  24.582   8.513  0.00  0.00    +0.120 A 
ATOM     39  N   UNL     1      22.406  23.707   7.620  0.00  0.00    -0.263 NA
ATOM     40  C   UNL     1      21.062  23.322   7.742  0.00  0.00    +0.111 A 
ENDBRANCH   4   3
ENDBRANCH  10   9
BRANCH  12  13
ATOM     13  N   UNL     1      22.145  31.638  16.158  0.00  0.00    -0.281 N 
ATOM     14  C   UNL     1      21.180  32.507  16.642  0.00  0.00    +0.248 C 
ATOM     30  O   UNL     1      20.742  33.466  16.025  0.00  0.00    -0.270 OA
ATOM     31  H   UNL     1      22.560  31.003  16.840  0.00  0.00    +0.155 HD
BRANCH  14  15
ATOM     15  C   UNL     1      20.634  32.286  18.015  0.00  0.00    +0.037 A 
ATOM     16  C   UNL     1      20.496  33.393  18.965  0.00  0.00    +0.013 A 
ATOM     17  C   UNL     1      19.982  33.150  20.290  0.00  0.00    +0.005 A 
ATOM     18  C   UNL     1      19.600  31.792  20.672  0.00  0.00    -0.033 A 
ATOM     28  C   UNL     1      19.742  30.714  19.708  0.00  0.00    +0.005 A 
ATOM     29  C   UNL     1      20.246  30.948  18.409  0.00  0.00    +0.013 A 
BRANCH  18  19
ATOM     19  C   UNL     1      19.062  31.437  22.070  0.00  0.00    +0.119 C 
BRANCH  19  20
ATOM     20  N   UNL     1      18.912  29.988  22.398  0.00  0.00    -0.302 NA
ATOM     21  C   UNL     1      17.626  29.705  23.180  0.00  0.00    +0.066 C 
ATOM     22  C   UNL     1      17.474  28.181  23.494  0.00  0.00    -0.064 C 
ATOM     23  N   UNL     1      18.699  27.699  24.273  0.00  0.00    +0.379 N 
ATOM     24  C   UNL     1      18.532  26.281  24.620  0.00  0.00    -0.096 C 
ATOM     25  H   UNL     1      18.743  28.278  25.225  0.00  0.00    -0.082 HD
ATOM     26  C   UNL     1      19.982  27.979  23.504  0.00  0.00    -0.064 C 
ATOM     27  C   UNL     1      20.109  29.492  23.171  0.00  0.00    +0.066 C 
ENDBRANCH  19  20
ENDBRANCH  18  19
ENDBRANCH  14  15
ENDBRANCH  12  13
TORSDOF 6
ENDMDL
MODEL 5
REMARK VINA RESULT:      -8.0      1.714      2.264
REMARK  Name = C:\Users\Docking\Desktop\test protocol\1iep_ligandH.pdb
REMARK  8 active torsions:
REMARK  status: ('A' for Active; 'I' for Inactive)
REMARK    1  A    between atoms: _5  and  _11
REMARK    2  A    between atoms: _19  and  _21
REMARK    3  A    between atoms: _22  and  _66
REMARK    4  A    between atoms: _27  and  _30
REMARK    5  A    between atoms: _32  and  _33
REMARK    6  A    between atoms: _38  and  _43
REMARK    7  A    between atoms: _43  and  _46
REMARK    8  A    between atoms: _53  and  _55
REMARK                            x       y       z     vdW  Elec       q    Type
REMARK                         _______ _______ _______ _____ _____    ______ ____
ROOT
ATOM     10  C   UNL     1      19.993  29.573  22.673  0.00  0.00    +0.038 A 
ATOM     11  C   UNL     1      20.357  29.530  21.303  0.00  0.00    +0.047 A 
ATOM     12  C   UNL     1      19.731  30.411  20.330  0.00  0.00    +0.035 A 
ATOM     32  C   UNL     1      18.738  31.326  20.787  0.00  0.00    +0.024 A 
ATOM     33  C   UNL     1      18.355  31.382  22.176  0.00  0.00    +0.007 A 
ATOM     34  C   UNL     1      18.968  30.514  23.140  0.00  0.00    -0.029 A 
ATOM     35  C   UNL     1      18.513  30.614  24.615  0.00  0.00    +0.045 C 
ENDROOT
BRANCH  10   9
ATOM      4  C   UNL     1      20.168  25.509  25.221  0.00  0.00    +0.077 A 
ATOM      5  C   UNL     1      18.875  25.094  24.758  0.00  0.00    +0.048 A 
ATOM      6  C   UNL     1      18.195  25.958  23.871  0.00  0.00    +0.116 A 
ATOM      7  N   UNL     1      18.774  27.146  23.482  0.00  0.00    -0.223 NA
ATOM      8  C   UNL     1      20.022  27.518  23.949  0.00  0.00    +0.220 A 
ATOM      9  N   UNL     1      20.627  28.704  23.565  0.00  0.00    -0.283 N 
ATOM     36  H   UNL     1      21.545  28.946  23.937  0.00  0.00    +0.155 HD
ATOM     37  N   UNL     1      20.691  26.710  24.798  0.00  0.00    -0.214 NA
BRANCH   4   3
ATOM      1  C   UNL     1      21.327  23.262  28.206  0.00  0.00    +0.020 A 
ATOM      2  C   UNL     1      20.469  24.028  27.332  0.00  0.00    +0.013 A 
ATOM      3  C   UNL     1      21.011  24.703  26.159  0.00  0.00    +0.019 A 
ATOM     38  C   UNL     1      22.437  24.581  25.897  0.00  0.00    +0.120 A 
ATOM     39  N   UNL     1      23.239  23.838  26.757  0.00  0.00    -0.263 NA
ATOM     40  C   UNL     1      22.729  23.185  27.889  0.00  0.00    +0.111 A 
ENDBRANCH   4   3
ENDBRANCH  10   9
BRANCH  12  13
ATOM     13  N   UNL     1      20.055  30.407  18.925  0.00  0.00    -0.281 N 
ATOM     14  C   UNL     1      19.201  30.193  17.855  0.00  0.00    +0.248 C 
ATOM     30  O   UNL     1      18.063  29.760  17.955  0.00  0.00    -0.270 OA
ATOM     31  H   UNL     1      21.032  30.582  18.690  0.00  0.00    +0.155 HD
BRANCH  14  15
ATOM     15  C   UNL     1      19.686  30.491  16.473  0.00  0.00    +0.037 A 
ATOM     16  C   UNL     1      19.681  31.857  15.943  0.00  0.00    +0.013 A 
ATOM     17  C   UNL     1      20.139  32.114  14.601  0.00  0.00    +0.005 A 
ATOM     18  C   UNL     1      20.608  31.001  13.779  0.00  0.00    -0.033 A 
ATOM     28  C   UNL     1      20.608  29.657  14.331  0.00  0.00    +0.005 A 
ATOM     29  C   UNL     1      20.159  29.401  15.646  0.00  0.00    +0.013 A 
BRANCH  18  19
ATOM     19  C   UNL     1      21.095  31.180  12.329  0.00  0.00    +0.119 C 
BRANCH  19  20
ATOM     20  N   UNL     1      22.531  31.536  12.128  0.00  0.00    -0.302 NA
ATOM     21  C   UNL     1      22.732  32.452  10.917  0.00  0.00    +0.066 C 
ATOM     22  C   UNL     1      24.237  32.833  10.736  0.00  0.00    -0.064 C 
ATOM     23  N   UNL     1      25.070  31.558  10.595  0.00  0.00    +0.379 N 
ATOM     24  C   UNL     1      26.478  31.914  10.366  0.00  0.00    -0.096 C 
ATOM     25  H   UNL     1      24.707  31.015   9.692  0.00  0.00    -0.082 HD
ATOM     26  C   UNL     1      24.874  30.641  11.794  0.00  0.00    -0.064 C 
ATOM     27  C   UNL     1      23.371  30.292  11.983  0.00  0.00    +0.066 C 
ENDBRANCH  19  20
ENDBRANCH  18  19
ENDBRANCH  14  15
ENDBRANCH  12  13
TORSDOF 6
ENDMDL
