MODEL 1
REMARK VINA RESULT:      -8.8      0.000      0.000
REMARK  Name = C:\Users\Docking\Desktop\test protocol\1iep_ligandH.pdb
REMARK  8 active torsions:
REMARK  status: ('A' for Active; 'I' for Inactive)
REMARK    1  A    between atoms: _5  and  _11
REMARK    2  A    between atoms: _19  and  _21
REMARK    3  A    between atoms: _22  and  _66
REMARK    4  A    between atoms: _27  and  _30
REMARK    5  A    between atoms: _32  and  _33
REMARK    6  A    between atoms: _38  and  _43
REMARK    7  A    between atoms: _43  and  _46
REMARK    8  A    between atoms: _53  and  _55
REMARK                            x       y       z     vdW  Elec       q    Type
REMARK                         _______ _______ _______ _____ _____    ______ ____
ROOT
ATOM     10  C   UNL     1      20.272  29.957  22.191  0.00  0.00    +0.038 A 
ATOM     11  C   UNL     1      20.767  30.020  20.863  0.00  0.00    +0.047 A 
ATOM     12  C   UNL     1      20.192  30.934  19.888  0.00  0.00    +0.035 A 
ATOM     32  C   UNL     1      19.116  31.772  20.301  0.00  0.00    +0.024 A 
ATOM     33  C   UNL     1      18.600  31.720  21.646  0.00  0.00    +0.007 A 
ATOM     34  C   UNL     1      19.161  30.819  22.611  0.00  0.00    -0.029 A 
ATOM     35  C   UNL     1      18.564  30.801  24.038  0.00  0.00    +0.045 C 
ENDROOT
BRANCH  10   9
ATOM      4  C   UNL     1      20.246  25.894  24.747  0.00  0.00    +0.077 A 
ATOM      5  C   UNL     1      18.936  25.541  24.282  0.00  0.00    +0.048 A 
ATOM      6  C   UNL     1      18.300  26.435  23.391  0.00  0.00    +0.116 A 
ATOM      7  N   UNL     1      18.937  27.593  23.001  0.00  0.00    -0.223 NA
ATOM      8  C   UNL     1      20.199  27.905  23.470  0.00  0.00    +0.220 A 
ATOM      9  N   UNL     1      20.862  29.061  23.085  0.00  0.00    -0.283 N 
ATOM     36  H   UNL     1      21.789  29.258  23.459  0.00  0.00    +0.155 HD
ATOM     37  N   UNL     1      20.827  27.068  24.323  0.00  0.00    -0.214 NA
BRANCH   4   3
ATOM      1  C   UNL     1      21.298  23.633  27.760  0.00  0.00    +0.020 A 
ATOM      2  C   UNL     1      20.480  24.439  26.884  0.00  0.00    +0.013 A 
ATOM      3  C   UNL     1      21.048  25.051  25.689  0.00  0.00    +0.019 A 
ATOM     38  C   UNL     1      22.457  24.825  25.407  0.00  0.00    +0.120 A 
ATOM     39  N   UNL     1      23.220  24.045  26.270  0.00  0.00    -0.263 NA
ATOM     40  C   UNL     1      22.685  23.453  27.424  0.00  0.00    +0.111 A 
ENDBRANCH   4   3
ENDBRANCH  10   9
BRANCH  12  13
ATOM     13  N   UNL     1      20.647  31.036  18.524  0.00  0.00    -0.281 N 
ATOM     14  C   UNL     1      21.190  32.140  17.887  0.00  0.00    +0.248 C 
ATOM     30  O   UNL     1      21.169  33.276  18.337  0.00  0.00    -0.270 OA
ATOM     31  H   UNL     1      20.559  30.191  17.958  0.00  0.00    +0.155 HD
BRANCH  14  15
ATOM     15  C   UNL     1      21.837  31.959  16.552  0.00  0.00    +0.037 A 
ATOM     16  C   UNL     1      21.338  30.969  15.594  0.00  0.00    +0.013 A 
ATOM     17  C   UNL     1      21.991  30.802  14.320  0.00  0.00    +0.005 A 
ATOM     18  C   UNL     1      23.150  31.630  13.996  0.00  0.00    -0.033 A 
ATOM     28  C   UNL     1      23.621  32.608  14.963  0.00  0.00    +0.005 A 
ATOM     29  C   UNL     1      22.984  32.774  16.213  0.00  0.00    +0.013 A 
BRANCH  18  19
ATOM     19  C   UNL     1      23.922  31.506  12.669  0.00  0.00    +0.119 C 
BRANCH  19  20
ATOM     20  N   UNL     1      23.586  32.482  11.589  0.00  0.00    -0.302 NA
ATOM     21  C   UNL     1      22.160  32.291  11.065  0.00  0.00    +0.066 C 
ATOM     22  C   UNL     1      21.818  33.334   9.952  0.00  0.00    -0.064 C 
ATOM     23  N   UNL     1      22.833  33.213   8.814  0.00  0.00    +0.379 N 
ATOM     24  C   UNL     1      22.480  34.152   7.740  0.00  0.00    -0.096 C 
ATOM     25  H   UNL     1      22.755  32.181   8.400  0.00  0.00    -0.082 HD
ATOM     26  C   UNL     1      24.254  33.399   9.327  0.00  0.00    -0.064 C 
ATOM     27  C   UNL     1      24.574  32.376  10.453  0.00  0.00    +0.066 C 
ENDBRANCH  19  20
ENDBRANCH  18  19
ENDBRANCH  14  15
ENDBRANCH  12  13
TORSDOF 6
ENDMDL
MODEL 2
REMARK VINA RESULT:      -8.5      2.342      3.047
REMARK  Name = C:\Users\Docking\Desktop\test protocol\1iep_ligandH.pdb
REMARK  8 active torsions:
REMARK  status: ('A' for Active; 'I' for Inactive)
REMARK    1  A    between atoms: _5  and  _11
REMARK    2  A    between atoms: _19  and  _21
REMARK    3  A    between atoms: _22  and  _66
REMARK    4  A    between atoms: _27  and  _30
REMARK    5  A    between atoms: _32  and  _33
REMARK    6  A    between atoms: _38  and  _43
REMARK    7  A    between atoms: _43  and  _46
REMARK    8  A    between atoms: _53  and  _55
REMARK                            x       y       z     vdW  Elec       q    Type
REMARK                         _______ _______ _______ _____ _____    ______ ____
ROOT
ATOM     10  C   UNL     1      20.293  30.057  22.151  0.00  0.00    +0.038 A 
ATOM     11  C   UNL     1      20.564  29.963  20.762  0.00  0.00    +0.047 A 
ATOM     12  C   UNL     1      19.970  30.894  19.815  0.00  0.00    +0.035 A 
ATOM     32  C   UNL     1      19.106  31.910  20.318  0.00  0.00    +0.024 A 
ATOM     33  C   UNL     1      18.820  32.020  21.727  0.00  0.00    +0.007 A 
ATOM     34  C   UNL     1      19.401  31.103  22.665  0.00  0.00    -0.029 A 
ATOM     35  C   UNL     1      19.053  31.263  24.164  0.00  0.00    +0.045 C 
ENDROOT
BRANCH  10   9
ATOM      4  C   UNL     1      20.233  25.997  24.711  0.00  0.00    +0.077 A 
ATOM      5  C   UNL     1      18.887  25.698  24.314  0.00  0.00    +0.048 A 
ATOM      6  C   UNL     1      18.243  26.617  23.456  0.00  0.00    +0.116 A 
ATOM      7  N   UNL     1      18.906  27.749  23.033  0.00  0.00    -0.223 NA
ATOM      8  C   UNL     1      20.203  28.009  23.436  0.00  0.00    +0.220 A 
ATOM      9  N   UNL     1      20.891  29.137  23.016  0.00  0.00    -0.283 N 
ATOM     36  H   UNL     1      21.844  29.297  23.341  0.00  0.00    +0.155 HD
ATOM     37  N   UNL     1      20.839  27.147  24.256  0.00  0.00    -0.214 NA
BRANCH   4   3
ATOM      1  C   UNL     1      21.327  23.641  27.635  0.00  0.00    +0.020 A 
ATOM      2  C   UNL     1      20.498  24.478  26.799  0.00  0.00    +0.013 A 
ATOM      3  C   UNL     1      21.047  25.121  25.612  0.00  0.00    +0.019 A 
ATOM     38  C   UNL     1      22.449  24.895  25.296  0.00  0.00    +0.120 A 
ATOM     39  N   UNL     1      23.224  24.085  26.121  0.00  0.00    -0.263 NA
ATOM     40  C   UNL     1      22.707  23.462  27.267  0.00  0.00    +0.111 A 
ENDBRANCH   4   3
ENDBRANCH  10   9
BRANCH  12  13
ATOM     13  N   UNL     1      20.201  30.842  18.393  0.00  0.00    -0.281 N 
ATOM     14  C   UNL     1      20.944  31.718  17.619  0.00  0.00    +0.248 C 
ATOM     30  O   UNL     1      21.349  32.806  18.002  0.00  0.00    -0.270 OA
ATOM     31  H   UNL     1      19.765  30.065  17.896  0.00  0.00    +0.155 HD
BRANCH  14  15
ATOM     15  C   UNL     1      21.273  31.338  16.211  0.00  0.00    +0.037 A 
ATOM     16  C   UNL     1      22.527  31.761  15.583  0.00  0.00    +0.013 A 
ATOM     17  C   UNL     1      22.811  31.395  14.218  0.00  0.00    +0.005 A 
ATOM     18  C   UNL     1      21.839  30.598  13.473  0.00  0.00    -0.033 A 
ATOM     28  C   UNL     1      20.606  30.188  14.122  0.00  0.00    +0.005 A 
ATOM     29  C   UNL     1      20.323  30.546  15.459  0.00  0.00    +0.013 A 
BRANCH  18  19
ATOM     19  C   UNL     1      22.050  30.180  12.005  0.00  0.00    +0.119 C 
BRANCH  19  20
ATOM     20  N   UNL     1      22.498  28.777  11.752  0.00  0.00    -0.302 NA
ATOM     21  C   UNL     1      23.511  28.696  10.607  0.00  0.00    +0.066 C 
ATOM     22  C   UNL     1      23.985  27.225  10.370  0.00  0.00    -0.064 C 
ATOM     23  N   UNL     1      22.771  26.340  10.083  0.00  0.00    +0.379 N 
ATOM     24  C   UNL     1      23.219  24.968   9.803  0.00  0.00    -0.096 C 
ATOM     25  H   UNL     1      22.279  26.730   9.162  0.00  0.00    -0.082 HD
ATOM     26  C   UNL     1      21.757  26.418  11.216  0.00  0.00    -0.064 C 
ATOM     27  C   UNL     1      21.315  27.887  11.462  0.00  0.00    +0.066 C 
ENDBRANCH  19  20
ENDBRANCH  18  19
ENDBRANCH  14  15
ENDBRANCH  12  13
TORSDOF 6
ENDMDL
MODEL 3
REMARK VINA RESULT:      -8.3      7.525     11.636
REMARK  Name = C:\Users\Docking\Desktop\test protocol\1iep_ligandH.pdb
REMARK  8 active torsions:
REMARK  status: ('A' for Active; 'I' for Inactive)
REMARK    1  A    between atoms: _5  and  _11
REMARK    2  A    between atoms: _19  and  _21
REMARK    3  A    between atoms: _22  and  _66
REMARK    4  A    between atoms: _27  and  _30
REMARK    5  A    between atoms: _32  and  _33
REMARK    6  A    between atoms: _38  and  _43
REMARK    7  A    between atoms: _43  and  _46
REMARK    8  A    between atoms: _53  and  _55
REMARK                            x       y       z     vdW  Elec       q    Type
REMARK                         _______ _______ _______ _____ _____    ______ ____
ROOT
ATOM     10  C   UNL     1      21.055  33.064  15.630  0.00  0.00    +0.038 A 
ATOM     11  C   UNL     1      21.886  33.731  16.567  0.00  0.00    +0.047 A 
ATOM     12  C   UNL     1      21.550  35.058  17.060  0.00  0.00    +0.035 A 
ATOM     32  C   UNL     1      20.359  35.676  16.578  0.00  0.00    +0.024 A 
ATOM     33  C   UNL     1      19.504  35.013  15.625  0.00  0.00    +0.007 A 
ATOM     34  C   UNL     1      19.831  33.705  15.134  0.00  0.00    -0.029 A 
ATOM     35  C   UNL     1      18.882  33.045  14.107  0.00  0.00    +0.045 C 
ENDROOT
BRANCH  10   9
ATOM      4  C   UNL     1      22.998  30.104  12.389  0.00  0.00    +0.077 A 
ATOM      5  C   UNL     1      23.274  31.182  11.483  0.00  0.00    +0.048 A 
ATOM      6  C   UNL     1      22.893  32.481  11.886  0.00  0.00    +0.116 A 
ATOM      7  N   UNL     1      22.284  32.678  13.106  0.00  0.00    -0.223 NA
ATOM      8  C   UNL     1      22.031  31.616  13.956  0.00  0.00    +0.220 A 
ATOM      9  N   UNL     1      21.426  31.791  15.191  0.00  0.00    -0.283 N 
ATOM     36  H   UNL     1      21.250  30.982  15.785  0.00  0.00    +0.155 HD
ATOM     37  N   UNL     1      22.383  30.365  13.594  0.00  0.00    -0.214 NA
BRANCH   4   3
ATOM      1  C   UNL     1      24.958  26.852  11.449  0.00  0.00    +0.020 A 
ATOM      2  C   UNL     1      24.677  28.245  11.708  0.00  0.00    +0.013 A 
ATOM      3  C   UNL     1      23.343  28.675  12.108  0.00  0.00    +0.019 A 
ATOM     38  C   UNL     1      22.307  27.661  12.239  0.00  0.00    +0.120 A 
ATOM     39  N   UNL     1      22.606  26.327  11.981  0.00  0.00    -0.263 NA
ATOM     40  C   UNL     1      23.886  25.902  11.594  0.00  0.00    +0.111 A 
ENDBRANCH   4   3
ENDBRANCH  10   9
BRANCH  12  13
ATOM     13  N   UNL     1      22.358  35.787  18.005  0.00  0.00    -0.281 N 
ATOM     14  C   UNL     1      22.177  35.898  19.374  0.00  0.00    +0.248 C 
ATOM     30  O   UNL     1      21.163  35.559  19.966  0.00  0.00    -0.270 OA
ATOM     31  H   UNL     1      23.162  36.282  17.618  0.00  0.00    +0.155 HD
BRANCH  14  15
ATOM     15  C   UNL     1      23.274  36.482  20.203  0.00  0.00    +0.037 A 
ATOM     16  C   UNL     1      23.825  37.808  19.909  0.00  0.00    +0.013 A 
ATOM     17  C   UNL     1      24.895  38.341  20.714  0.00  0.00    +0.005 A 
ATOM     18  C   UNL     1      25.421  37.548  21.823  0.00  0.00    -0.033 A 
ATOM     28  C   UNL     1      24.852  36.239  22.096  0.00  0.00    +0.005 A 
ATOM     29  C   UNL     1      23.804  35.712  21.308  0.00  0.00    +0.013 A 
BRANCH  18  19
ATOM     19  C   UNL     1      26.576  38.029  22.721  0.00  0.00    +0.119 C 
BRANCH  19  20
ATOM     20  N   UNL     1      27.932  38.118  22.102  0.00  0.00    -0.302 NA
ATOM     21  C   UNL     1      28.912  37.118  22.721  0.00  0.00    +0.066 C 
ATOM     22  C   UNL     1      30.320  37.209  22.046  0.00  0.00    -0.064 C 
ATOM     23  N   UNL     1      30.852  38.638  22.173  0.00  0.00    +0.379 N 
ATOM     24  C   UNL     1      32.200  38.713  21.591  0.00  0.00    -0.096 C 
ATOM     25  H   UNL     1      30.939  38.871  23.260  0.00  0.00    -0.082 HD
ATOM     26  C   UNL     1      29.881  39.639  21.562  0.00  0.00    -0.064 C 
ATOM     27  C   UNL     1      28.478  39.520  22.219  0.00  0.00    +0.066 C 
ENDBRANCH  19  20
ENDBRANCH  18  19
ENDBRANCH  14  15
ENDBRANCH  12  13
TORSDOF 6
ENDMDL
MODEL 4
REMARK VINA RESULT:      -8.2      1.674      2.098
REMARK  Name = C:\Users\Docking\Desktop\test protocol\1iep_ligandH.pdb
REMARK  8 active torsions:
REMARK  status: ('A' for Active; 'I' for Inactive)
REMARK    1  A    between atoms: _5  and  _11
REMARK    2  A    between atoms: _19  and  _21
REMARK    3  A    between atoms: _22  and  _66
REMARK    4  A    between atoms: _27  and  _30
REMARK    5  A    between atoms: _32  and  _33
REMARK    6  A    between atoms: _38  and  _43
REMARK    7  A    between atoms: _43  and  _46
REMARK    8  A    between atoms: _53  and  _55
REMARK                            x       y       z     vdW  Elec       q    Type
REMARK                         _______ _______ _______ _____ _____    ______ ____
ROOT
ATOM     10  C   UNL     1      20.108  29.573  22.384  0.00  0.00    +0.038 A 
ATOM     11  C   UNL     1      20.487  29.473  21.021  0.00  0.00    +0.047 A 
ATOM     12  C   UNL     1      19.842  30.283  19.999  0.00  0.00    +0.035 A 
ATOM     32  C   UNL     1      18.816  31.186  20.401  0.00  0.00    +0.024 A 
ATOM     33  C   UNL     1      18.417  31.300  21.782  0.00  0.00    +0.007 A 
ATOM     34  C   UNL     1      19.048  30.502  22.794  0.00  0.00    -0.029 A 
ATOM     35  C   UNL     1      18.576  30.661  24.258  0.00  0.00    +0.045 C 
ENDROOT
BRANCH  10   9
ATOM      4  C   UNL     1      20.368  25.674  25.170  0.00  0.00    +0.077 A 
ATOM      5  C   UNL     1      19.082  25.207  24.738  0.00  0.00    +0.048 A 
ATOM      6  C   UNL     1      18.383  26.003  23.804  0.00  0.00    +0.116 A 
ATOM      7  N   UNL     1      18.938  27.177  23.342  0.00  0.00    -0.223 NA
ATOM      8  C   UNL     1      20.180  27.599  23.780  0.00  0.00    +0.220 A 
ATOM      9  N   UNL     1      20.761  28.772  23.323  0.00  0.00    -0.283 N 
ATOM     36  H   UNL     1      21.675  29.052  23.677  0.00  0.00    +0.155 HD
ATOM     37  N   UNL     1      20.867  26.857  24.674  0.00  0.00    -0.214 NA
BRANCH   4   3
ATOM      1  C   UNL     1      23.471  24.222  27.058  0.00  0.00    +0.020 A 
ATOM      2  C   UNL     1      22.685  24.945  26.085  0.00  0.00    +0.013 A 
ATOM      3  C   UNL     1      21.229  24.942  26.152  0.00  0.00    +0.019 A 
ATOM     38  C   UNL     1      20.594  24.192  27.226  0.00  0.00    +0.120 A 
ATOM     39  N   UNL     1      21.377  23.504  28.148  0.00  0.00    -0.263 NA
ATOM     40  C   UNL     1      22.779  23.498  28.092  0.00  0.00    +0.111 A 
ENDBRANCH   4   3
ENDBRANCH  10   9
BRANCH  12  13
ATOM     13  N   UNL     1      20.179  30.218  18.598  0.00  0.00    -0.281 N 
ATOM     14  C   UNL     1      19.394  29.760  17.553  0.00  0.00    +0.248 C 
ATOM     30  O   UNL     1      18.354  29.134  17.694  0.00  0.00    -0.270 OA
ATOM     31  H   UNL     1      21.110  30.551  18.347  0.00  0.00    +0.155 HD
BRANCH  14  15
ATOM     15  C   UNL     1      19.834  30.023  16.150  0.00  0.00    +0.037 A 
ATOM     16  C   UNL     1      20.061  31.388  15.668  0.00  0.00    +0.013 A 
ATOM     17  C   UNL     1      20.469  31.615  14.304  0.00  0.00    +0.005 A 
ATOM     18  C   UNL     1      20.655  30.473  13.412  0.00  0.00    -0.033 A 
ATOM     28  C   UNL     1      20.428  29.129  13.918  0.00  0.00    +0.005 A 
ATOM     29  C   UNL     1      20.027  28.903  15.254  0.00  0.00    +0.013 A 
BRANCH  18  19
ATOM     19  C   UNL     1      21.069  30.622  11.936  0.00  0.00    +0.119 C 
BRANCH  19  20
ATOM     20  N   UNL     1      22.029  31.716  11.603  0.00  0.00    -0.302 NA
ATOM     21  C   UNL     1      21.352  32.866  10.852  0.00  0.00    +0.066 C 
ATOM     22  C   UNL     1      22.366  34.012  10.531  0.00  0.00    -0.064 C 
ATOM     23  N   UNL     1      23.531  33.445   9.717  0.00  0.00    +0.379 N 
ATOM     24  C   UNL     1      24.457  34.530   9.364  0.00  0.00    -0.096 C 
ATOM     25  H   UNL     1      23.113  33.035   8.769  0.00  0.00    -0.082 HD
ATOM     26  C   UNL     1      24.208  32.299  10.456  0.00  0.00    -0.064 C 
ATOM     27  C   UNL     1      23.185  31.179  10.796  0.00  0.00    +0.066 C 
ENDBRANCH  19  20
ENDBRANCH  18  19
ENDBRANCH  14  15
ENDBRANCH  12  13
TORSDOF 6
ENDMDL
MODEL 5
REMARK VINA RESULT:      -8.0      4.352     12.528
REMARK  Name = C:\Users\Docking\Desktop\test protocol\1iep_ligandH.pdb
REMARK  8 active torsions:
REMARK  status: ('A' for Active; 'I' for Inactive)
REMARK    1  A    between atoms: _5  and  _11
REMARK    2  A    between atoms: _19  and  _21
REMARK    3  A    between atoms: _22  and  _66
REMARK    4  A    between atoms: _27  and  _30
REMARK    5  A    between atoms: _32  and  _33
REMARK    6  A    between atoms: _38  and  _43
REMARK    7  A    between atoms: _43  and  _46
REMARK    8  A    between atoms: _53  and  _55
REMARK                            x       y       z     vdW  Elec       q    Type
REMARK                         _______ _______ _______ _____ _____    ______ ____
ROOT
ATOM     10  C   UNL     1      22.537  30.153  12.579  0.00  0.00    +0.038 A 
ATOM     11  C   UNL     1      22.044  30.180  13.908  0.00  0.00    +0.047 A 
ATOM     12  C   UNL     1      22.471  31.204  14.849  0.00  0.00    +0.035 A 
ATOM     32  C   UNL     1      23.400  32.188  14.401  0.00  0.00    +0.024 A 
ATOM     33  C   UNL     1      23.912  32.175  13.053  0.00  0.00    +0.007 A 
ATOM     34  C   UNL     1      23.496  31.166  12.122  0.00  0.00    -0.029 A 
ATOM     35  C   UNL     1      24.083  31.197  10.691  0.00  0.00    +0.045 C 
ENDROOT
BRANCH  10   9
ATOM      4  C   UNL     1      22.984  25.839  10.524  0.00  0.00    +0.077 A 
ATOM      5  C   UNL     1      24.220  25.578  11.203  0.00  0.00    +0.048 A 
ATOM      6  C   UNL     1      24.710  26.583  12.067  0.00  0.00    +0.116 A 
ATOM      7  N   UNL     1      24.008  27.757  12.232  0.00  0.00    -0.223 NA
ATOM      8  C   UNL     1      22.820  27.977  11.560  0.00  0.00    +0.220 A 
ATOM      9  N   UNL     1      22.093  29.147  11.717  0.00  0.00    -0.283 N 
ATOM     36  H   UNL     1      21.225  29.275  11.198  0.00  0.00    +0.155 HD
ATOM     37  N   UNL     1      22.331  27.034  10.728  0.00  0.00    -0.214 NA
BRANCH   4   3
ATOM      1  C   UNL     1      22.393  23.261   7.641  0.00  0.00    +0.020 A 
ATOM      2  C   UNL     1      23.067  24.184   8.525  0.00  0.00    +0.013 A 
ATOM      3  C   UNL     1      22.335  24.874   9.580  0.00  0.00    +0.019 A 
ATOM     38  C   UNL     1      20.912  24.604   9.716  0.00  0.00    +0.120 A 
ATOM     39  N   UNL     1      20.290  23.711   8.849  0.00  0.00    -0.263 NA
ATOM     40  C   UNL     1      20.983  23.043   7.829  0.00  0.00    +0.111 A 
ENDBRANCH   4   3
ENDBRANCH  10   9
BRANCH  12  13
ATOM     13  N   UNL     1      22.010  31.276  16.213  0.00  0.00    -0.281 N 
ATOM     14  C   UNL     1      21.131  32.192  16.768  0.00  0.00    +0.248 C 
ATOM     30  O   UNL     1      20.770  33.223  16.220  0.00  0.00    -0.270 OA
ATOM     31  H   UNL     1      22.377  30.567  16.847  0.00  0.00    +0.155 HD
BRANCH  14  15
ATOM     15  C   UNL     1      20.585  31.932  18.135  0.00  0.00    +0.037 A 
ATOM     16  C   UNL     1      20.430  33.015  19.110  0.00  0.00    +0.013 A 
ATOM     17  C   UNL     1      19.916  32.734  20.427  0.00  0.00    +0.005 A 
ATOM     18  C   UNL     1      19.553  31.363  20.776  0.00  0.00    -0.033 A 
ATOM     28  C   UNL     1      19.712  30.309  19.788  0.00  0.00    +0.005 A 
ATOM     29  C   UNL     1      20.216  30.580  18.496  0.00  0.00    +0.013 A 
BRANCH  18  19
ATOM     19  C   UNL     1      19.017  30.967  22.165  0.00  0.00    +0.119 C 
BRANCH  19  20
ATOM     20  N   UNL     1      18.922  29.509  22.472  0.00  0.00    -0.302 NA
ATOM     21  C   UNL     1      17.645  29.167  23.245  0.00  0.00    +0.066 C 
ATOM     22  C   UNL     1      17.550  27.634  23.538  0.00  0.00    -0.064 C 
ATOM     23  N   UNL     1      18.791  27.189  24.315  0.00  0.00    +0.379 N 
ATOM     24  C   UNL     1      18.677  25.760  24.642  0.00  0.00    -0.096 C 
ATOM     25  H   UNL     1      18.809  27.755  25.275  0.00  0.00    -0.082 HD
ATOM     26  C   UNL     1      20.064  27.527  23.554  0.00  0.00    -0.064 C 
ATOM     27  C   UNL     1      20.134  29.049  23.243  0.00  0.00    +0.066 C 
ENDBRANCH  19  20
ENDBRANCH  18  19
ENDBRANCH  14  15
ENDBRANCH  12  13
TORSDOF 6
ENDMDL
