MODEL 1
REMARK VINA RESULT:     -11.5      0.000      0.000
REMARK  Name = C:\Users\Docking\Desktop\test protocol\1iep_ligandH.pdb
REMARK  8 active torsions:
REMARK  status: ('A' for Active; 'I' for Inactive)
REMARK    1  A    between atoms: _5  and  _11
REMARK    2  A    between atoms: _19  and  _21
REMARK    3  A    between atoms: _22  and  _66
REMARK    4  A    between atoms: _27  and  _30
REMARK    5  A    between atoms: _32  and  _33
REMARK    6  A    between atoms: _38  and  _43
REMARK    7  A    between atoms: _43  and  _46
REMARK    8  A    between atoms: _53  and  _55
REMARK                            x       y       z     vdW  Elec       q    Type
REMARK                         _______ _______ _______ _____ _____    ______ ____
ROOT
ATOM     10  C   UNL     1      -5.851  34.759  -8.936  0.00  0.00    +0.038 A 
ATOM     11  C   UNL     1      -4.866  33.867  -8.444  0.00  0.00    +0.047 A 
ATOM     12  C   UNL     1      -3.657  33.586  -9.203  0.00  0.00    +0.035 A 
ATOM     32  C   UNL     1      -3.484  34.235 -10.461  0.00  0.00    +0.024 A 
ATOM     33  C   UNL     1      -4.477  35.144 -10.977  0.00  0.00    +0.007 A 
ATOM     34  C   UNL     1      -5.672  35.422 -10.233  0.00  0.00    -0.029 A 
ATOM     35  C   UNL     1      -6.705  36.401 -10.839  0.00  0.00    +0.045 C 
ENDROOT
BRANCH  10   9
ATOM      4  C   UNL     1      -8.413  37.407  -5.860  0.00  0.00    +0.077 A 
ATOM      5  C   UNL     1      -7.379  38.397  -5.760  0.00  0.00    +0.048 A 
ATOM      6  C   UNL     1      -6.201  38.184  -6.510  0.00  0.00    +0.116 A 
ATOM      7  N   UNL     1      -6.077  37.061  -7.299  0.00  0.00    -0.223 NA
ATOM      8  C   UNL     1      -7.093  36.125  -7.372  0.00  0.00    +0.220 A 
ATOM      9  N   UNL     1      -6.992  34.992  -8.165  0.00  0.00    -0.283 N 
ATOM     36  H   UNL     1      -7.760  34.322  -8.186  0.00  0.00    +0.155 HD
ATOM     37  N   UNL     1      -8.227  36.305  -6.664  0.00  0.00    -0.214 NA
BRANCH   4   3
ATOM      1  C   UNL     1     -11.964  36.569  -4.451  0.00  0.00    +0.020 A 
ATOM      2  C   UNL     1     -10.721  36.437  -5.175  0.00  0.00    +0.013 A 
ATOM      3  C   UNL     1      -9.717  37.493  -5.130  0.00  0.00    +0.019 A 
ATOM     38  C   UNL     1     -10.005  38.678  -4.337  0.00  0.00    +0.120 A 
ATOM     39  N   UNL     1     -11.212  38.778  -3.651  0.00  0.00    -0.263 NA
ATOM     40  C   UNL     1     -12.186  37.769  -3.688  0.00  0.00    +0.111 A 
ENDBRANCH   4   3
ENDBRANCH  10   9
BRANCH  12  13
ATOM     13  N   UNL     1      -2.625  32.683  -8.757  0.00  0.00    -0.281 N 
ATOM     14  C   UNL     1      -2.622  31.887  -7.624  0.00  0.00    +0.248 C 
ATOM     30  O   UNL     1      -3.419  31.991  -6.703  0.00  0.00    -0.270 OA
ATOM     31  H   UNL     1      -1.797  32.623  -9.350  0.00  0.00    +0.155 HD
BRANCH  14  15
ATOM     15  C   UNL     1      -1.572  30.832  -7.485  0.00  0.00    +0.037 A 
ATOM     16  C   UNL     1      -1.860  29.555  -6.827  0.00  0.00    +0.013 A 
ATOM     17  C   UNL     1      -0.824  28.562  -6.692  0.00  0.00    +0.005 A 
ATOM     18  C   UNL     1       0.510  28.841  -7.218  0.00  0.00    -0.033 A 
ATOM     28  C   UNL     1       0.766  30.114  -7.871  0.00  0.00    +0.005 A 
ATOM     29  C   UNL     1      -0.246  31.091  -8.005  0.00  0.00    +0.013 A 
BRANCH  18  19
ATOM     19  C   UNL     1       1.681  27.848  -7.100  0.00  0.00    +0.119 C 
BRANCH  19  20
ATOM     20  N   UNL     1       3.039  28.418  -6.855  0.00  0.00    -0.302 NA
ATOM     21  C   UNL     1       4.149  27.503  -7.380  0.00  0.00    +0.066 C 
ATOM     22  C   UNL     1       5.562  28.126  -7.136  0.00  0.00    -0.064 C 
ATOM     23  N   UNL     1       5.746  28.398  -5.642  0.00  0.00    +0.379 N 
ATOM     24  C   UNL     1       7.096  28.929  -5.402  0.00  0.00    -0.096 C 
ATOM     25  H   UNL     1       5.667  27.422  -5.109  0.00  0.00    -0.082 HD
ATOM     26  C   UNL     1       4.645  29.304  -5.111  0.00  0.00    -0.064 C 
ATOM     27  C   UNL     1       3.243  28.691  -5.385  0.00  0.00    +0.066 C 
ENDBRANCH  19  20
ENDBRANCH  18  19
ENDBRANCH  14  15
ENDBRANCH  12  13
TORSDOF 6
ENDMDL
MODEL 2
REMARK VINA RESULT:     -10.0      7.260     13.393
REMARK  Name = C:\Users\Docking\Desktop\test protocol\1iep_ligandH.pdb
REMARK  8 active torsions:
REMARK  status: ('A' for Active; 'I' for Inactive)
REMARK    1  A    between atoms: _5  and  _11
REMARK    2  A    between atoms: _19  and  _21
REMARK    3  A    between atoms: _22  and  _66
REMARK    4  A    between atoms: _27  and  _30
REMARK    5  A    between atoms: _32  and  _33
REMARK    6  A    between atoms: _38  and  _43
REMARK    7  A    between atoms: _43  and  _46
REMARK    8  A    between atoms: _53  and  _55
REMARK                            x       y       z     vdW  Elec       q    Type
REMARK                         _______ _______ _______ _____ _____    ______ ____
ROOT
ATOM     10  C   UNL     1       5.371  31.877  -9.363  0.00  0.00    +0.038 A 
ATOM     11  C   UNL     1       5.001  33.223  -9.111  0.00  0.00    +0.047 A 
ATOM     12  C   UNL     1       5.334  34.283 -10.049  0.00  0.00    +0.035 A 
ATOM     32  C   UNL     1       6.043  33.936 -11.237  0.00  0.00    +0.024 A 
ATOM     33  C   UNL     1       6.427  32.574 -11.508  0.00  0.00    +0.007 A 
ATOM     34  C   UNL     1       6.103  31.524 -10.584  0.00  0.00    -0.029 A 
ATOM     35  C   UNL     1       6.546  30.082 -10.924  0.00  0.00    +0.045 C 
ENDROOT
BRANCH  10   9
ATOM      4  C   UNL     1       2.346  28.602  -7.585  0.00  0.00    +0.077 A 
ATOM      5  C   UNL     1       1.360  28.881  -8.589  0.00  0.00    +0.048 A 
ATOM      6  C   UNL     1       1.667  29.880  -9.540  0.00  0.00    +0.116 A 
ATOM      7  N   UNL     1       2.874  30.543  -9.482  0.00  0.00    -0.223 NA
ATOM      8  C   UNL     1       3.802  30.250  -8.500  0.00  0.00    +0.220 A 
ATOM      9  N   UNL     1       5.025  30.900  -8.427  0.00  0.00    -0.283 N 
ATOM     36  H   UNL     1       5.679  30.660  -7.683  0.00  0.00    +0.155 HD
ATOM     37  N   UNL     1       3.532  29.302  -7.579  0.00  0.00    -0.214 NA
BRANCH   4   3
ATOM      1  C   UNL     1       2.380  25.226  -5.610  0.00  0.00    +0.020 A 
ATOM      2  C   UNL     1       2.572  26.181  -6.677  0.00  0.00    +0.013 A 
ATOM      3  C   UNL     1       2.170  27.572  -6.513  0.00  0.00    +0.019 A 
ATOM     38  C   UNL     1       1.571  27.968  -5.247  0.00  0.00    +0.120 A 
ATOM     39  N   UNL     1       1.398  27.026  -4.238  0.00  0.00    -0.263 NA
ATOM     40  C   UNL     1       1.780  25.684  -4.384  0.00  0.00    +0.111 A 
ENDBRANCH   4   3
ENDBRANCH  10   9
BRANCH  12  13
ATOM     13  N   UNL     1       4.992  35.669  -9.843  0.00  0.00    -0.281 N 
ATOM     14  C   UNL     1       4.264  36.500 -10.679  0.00  0.00    +0.248 C 
ATOM     30  O   UNL     1       3.976  36.235 -11.837  0.00  0.00    -0.270 OA
ATOM     31  H   UNL     1       5.328  36.088  -8.976  0.00  0.00    +0.155 HD
BRANCH  14  15
ATOM     15  C   UNL     1       3.801  37.822 -10.158  0.00  0.00    +0.037 A 
ATOM     16  C   UNL     1       3.519  38.939 -11.063  0.00  0.00    +0.013 A 
ATOM     17  C   UNL     1       3.090  40.209 -10.533  0.00  0.00    +0.005 A 
ATOM     18  C   UNL     1       2.939  40.368  -9.089  0.00  0.00    -0.033 A 
ATOM     28  C   UNL     1       3.220  39.241  -8.214  0.00  0.00    +0.005 A 
ATOM     29  C   UNL     1       3.642  37.996  -8.730  0.00  0.00    +0.013 A 
BRANCH  18  19
ATOM     19  C   UNL     1       2.506  41.693  -8.434  0.00  0.00    +0.119 C 
BRANCH  19  20
ATOM     20  N   UNL     1       1.047  41.885  -8.178  0.00  0.00    -0.302 NA
ATOM     21  C   UNL     1       0.311  42.411  -9.413  0.00  0.00    +0.066 C 
ATOM     22  C   UNL     1      -1.217  42.584  -9.134  0.00  0.00    -0.064 C 
ATOM     23  N   UNL     1      -1.412  43.527  -7.945  0.00  0.00    +0.379 N 
ATOM     24  C   UNL     1      -2.849  43.738  -7.717  0.00  0.00    -0.096 C 
ATOM     25  H   UNL     1      -0.964  44.511  -8.217  0.00  0.00    -0.082 HD
ATOM     26  C   UNL     1      -0.681  43.013  -6.713  0.00  0.00    -0.064 C 
ATOM     27  C   UNL     1       0.832  42.816  -7.010  0.00  0.00    +0.066 C 
ENDBRANCH  19  20
ENDBRANCH  18  19
ENDBRANCH  14  15
ENDBRANCH  12  13
TORSDOF 6
ENDMDL
MODEL 3
REMARK VINA RESULT:      -9.7      8.243     14.811
REMARK  Name = C:\Users\Docking\Desktop\test protocol\1iep_ligandH.pdb
REMARK  8 active torsions:
REMARK  status: ('A' for Active; 'I' for Inactive)
REMARK    1  A    between atoms: _5  and  _11
REMARK    2  A    between atoms: _19  and  _21
REMARK    3  A    between atoms: _22  and  _66
REMARK    4  A    between atoms: _27  and  _30
REMARK    5  A    between atoms: _32  and  _33
REMARK    6  A    between atoms: _38  and  _43
REMARK    7  A    between atoms: _43  and  _46
REMARK    8  A    between atoms: _53  and  _55
REMARK                            x       y       z     vdW  Elec       q    Type
REMARK                         _______ _______ _______ _____ _____    ______ ____
ROOT
ATOM     10  C   UNL     1      -1.036  42.135  -4.889  0.00  0.00    +0.038 A 
ATOM     11  C   UNL     1      -2.358  41.624  -4.952  0.00  0.00    +0.047 A 
ATOM     12  C   UNL     1      -3.460  42.302  -4.287  0.00  0.00    +0.035 A 
ATOM     32  C   UNL     1      -3.180  43.502  -3.570  0.00  0.00    +0.024 A 
ATOM     33  C   UNL     1      -1.843  44.035  -3.494  0.00  0.00    +0.007 A 
ATOM     34  C   UNL     1      -0.752  43.369  -4.146  0.00  0.00    -0.029 A 
ATOM     35  C   UNL     1       0.663  43.982  -4.026  0.00  0.00    +0.045 C 
ENDROOT
BRANCH  10   9
ATOM      4  C   UNL     1       1.644  41.220  -8.764  0.00  0.00    +0.077 A 
ATOM      5  C   UNL     1       0.934  42.184  -9.555  0.00  0.00    +0.048 A 
ATOM      6  C   UNL     1      -0.119  42.889  -8.929  0.00  0.00    +0.116 A 
ATOM      7  N   UNL     1      -0.429  42.640  -7.610  0.00  0.00    -0.223 NA
ATOM      8  C   UNL     1       0.274  41.703  -6.876  0.00  0.00    +0.220 A 
ATOM      9  N   UNL     1      -0.016  41.443  -5.545  0.00  0.00    -0.283 N 
ATOM     36  H   UNL     1       0.521  40.739  -5.040  0.00  0.00    +0.155 HD
ATOM     37  N   UNL     1       1.283  41.016  -7.451  0.00  0.00    -0.214 NA
BRANCH   4   3
ATOM      1  C   UNL     1       4.029  39.218 -11.131  0.00  0.00    +0.020 A 
ATOM      2  C   UNL     1       2.909  40.012 -10.682  0.00  0.00    +0.013 A 
ATOM      3  C   UNL     1       2.783  40.399  -9.282  0.00  0.00    +0.019 A 
ATOM     38  C   UNL     1       3.817  39.963  -8.355  0.00  0.00    +0.120 A 
ATOM     39  N   UNL     1       4.883  39.197  -8.816  0.00  0.00    -0.263 NA
ATOM     40  C   UNL     1       5.014  38.818 -10.160  0.00  0.00    +0.111 A 
ENDBRANCH   4   3
ENDBRANCH  10   9
BRANCH  12  13
ATOM     13  N   UNL     1      -4.821  41.826  -4.310  0.00  0.00    -0.281 N 
ATOM     14  C   UNL     1      -5.279  40.575  -4.689  0.00  0.00    +0.248 C 
ATOM     30  O   UNL     1      -4.604  39.739  -5.273  0.00  0.00    -0.270 OA
ATOM     31  H   UNL     1      -5.532  42.492  -4.009  0.00  0.00    +0.155 HD
BRANCH  14  15
ATOM     15  C   UNL     1      -6.695  40.203  -4.389  0.00  0.00    +0.037 A 
ATOM     16  C   UNL     1      -7.154  38.815  -4.491  0.00  0.00    +0.013 A 
ATOM     17  C   UNL     1      -8.530  38.487  -4.212  0.00  0.00    +0.005 A 
ATOM     18  C   UNL     1      -9.456  39.549  -3.827  0.00  0.00    -0.033 A 
ATOM     28  C   UNL     1      -8.972  40.916  -3.728  0.00  0.00    +0.005 A 
ATOM     29  C   UNL     1      -7.625  41.242  -4.001  0.00  0.00    +0.013 A 
BRANCH  18  19
ATOM     19  C   UNL     1     -10.946  39.293  -3.532  0.00  0.00    +0.119 C 
BRANCH  19  20
ATOM     20  N   UNL     1     -11.673  40.327  -2.738  0.00  0.00    -0.302 NA
ATOM     21  C   UNL     1     -11.400  40.196  -1.237  0.00  0.00    +0.066 C 
ATOM     22  C   UNL     1     -12.151  41.301  -0.423  0.00  0.00    -0.064 C 
ATOM     23  N   UNL     1     -13.651  41.211  -0.711  0.00  0.00    +0.379 N 
ATOM     24  C   UNL     1     -14.366  42.210   0.097  0.00  0.00    -0.096 C 
ATOM     25  H   UNL     1     -13.997  40.202  -0.386  0.00  0.00    -0.082 HD
ATOM     26  C   UNL     1     -13.931  41.337  -2.202  0.00  0.00    -0.064 C 
ATOM     27  C   UNL     1     -13.157  40.254  -3.003  0.00  0.00    +0.066 C 
ENDBRANCH  19  20
ENDBRANCH  18  19
ENDBRANCH  14  15
ENDBRANCH  12  13
TORSDOF 6
ENDMDL
