MODEL 1
REMARK VINA RESULT:     -11.4      0.000      0.000
REMARK  Name = C:\Users\Docking\Desktop\test protocol\1iep_ligandH.pdb
REMARK  8 active torsions:
REMARK  status: ('A' for Active; 'I' for Inactive)
REMARK    1  A    between atoms: _5  and  _11
REMARK    2  A    between atoms: _19  and  _21
REMARK    3  A    between atoms: _22  and  _66
REMARK    4  A    between atoms: _27  and  _30
REMARK    5  A    between atoms: _32  and  _33
REMARK    6  A    between atoms: _38  and  _43
REMARK    7  A    between atoms: _43  and  _46
REMARK    8  A    between atoms: _53  and  _55
REMARK                            x       y       z     vdW  Elec       q    Type
REMARK                         _______ _______ _______ _____ _____    ______ ____
ROOT
ATOM     10  C   UNL     1      -9.064  10.926   8.920  0.00  0.00    +0.038 A 
ATOM     11  C   UNL     1      -9.597   9.936   8.055  0.00  0.00    +0.047 A 
ATOM     12  C   UNL     1     -10.485   8.899   8.555  0.00  0.00    +0.035 A 
ATOM     32  C   UNL     1     -10.812   8.900   9.943  0.00  0.00    +0.024 A 
ATOM     33  C   UNL     1     -10.278   9.898  10.837  0.00  0.00    +0.007 A 
ATOM     34  C   UNL     1      -9.400  10.922  10.349  0.00  0.00    -0.029 A 
ATOM     35  C   UNL     1      -8.852  11.962  11.354  0.00  0.00    +0.045 C 
ENDROOT
BRANCH  10   9
ATOM      4  C   UNL     1      -8.240  15.304   7.135  0.00  0.00    +0.077 A 
ATOM      5  C   UNL     1      -9.621  15.676   7.251  0.00  0.00    +0.048 A 
ATOM      6  C   UNL     1     -10.512  14.709   7.768  0.00  0.00    +0.116 A 
ATOM      7  N   UNL     1     -10.046  13.466   8.139  0.00  0.00    -0.223 NA
ATOM      8  C   UNL     1      -8.708  13.139   8.012  0.00  0.00    +0.220 A 
ATOM      9  N   UNL     1      -8.216  11.899   8.386  0.00  0.00    -0.283 N 
ATOM     36  H   UNL     1      -7.224  11.694   8.271  0.00  0.00    +0.155 HD
ATOM     37  N   UNL     1      -7.837  14.045   7.520  0.00  0.00    -0.214 NA
BRANCH   4   3
ATOM      1  C   UNL     1      -6.139  18.496   6.299  0.00  0.00    +0.020 A 
ATOM      2  C   UNL     1      -7.191  17.658   6.828  0.00  0.00    +0.013 A 
ATOM      3  C   UNL     1      -7.176  16.217   6.610  0.00  0.00    +0.019 A 
ATOM     38  C   UNL     1      -6.074  15.651   5.848  0.00  0.00    +0.120 A 
ATOM     39  N   UNL     1      -5.075  16.482   5.350  0.00  0.00    -0.263 NA
ATOM     40  C   UNL     1      -5.080  17.870   5.552  0.00  0.00    +0.111 A 
ENDBRANCH   4   3
ENDBRANCH  10   9
BRANCH  12  13
ATOM     13  N   UNL     1     -11.050   7.863   7.726  0.00  0.00    -0.281 N 
ATOM     14  C   UNL     1     -11.977   8.001   6.706  0.00  0.00    +0.248 C 
ATOM     30  O   UNL     1     -12.624   9.015   6.492  0.00  0.00    -0.270 OA
ATOM     31  H   UNL     1     -10.728   6.914   7.914  0.00  0.00    +0.155 HD
BRANCH  14  15
ATOM     15  C   UNL     1     -12.232   6.839   5.801  0.00  0.00    +0.037 A 
ATOM     16  C   UNL     1     -12.762   7.031   4.449  0.00  0.00    +0.013 A 
ATOM     17  C   UNL     1     -13.015   5.891   3.603  0.00  0.00    +0.005 A 
ATOM     18  C   UNL     1     -12.737   4.549   4.107  0.00  0.00    -0.033 A 
ATOM     28  C   UNL     1     -12.206   4.388   5.450  0.00  0.00    +0.005 A 
ATOM     29  C   UNL     1     -11.958   5.502   6.283  0.00  0.00    +0.013 A 
BRANCH  18  19
ATOM     19  C   UNL     1     -12.996   3.275   3.281  0.00  0.00    +0.119 C 
BRANCH  19  20
ATOM     20  N   UNL     1     -14.416   2.954   2.947  0.00  0.00    -0.302 NA
ATOM     21  C   UNL     1     -15.276   2.781   4.202  0.00  0.00    +0.066 C 
ATOM     22  C   UNL     1     -16.763   2.468   3.834  0.00  0.00    -0.064 C 
ATOM     23  N   UNL     1     -16.816   1.211   2.963  0.00  0.00    +0.379 N 
ATOM     24  C   UNL     1     -18.217   0.881   2.664  0.00  0.00    -0.096 C 
ATOM     25  H   UNL     1     -16.390   0.370   3.558  0.00  0.00    -0.082 HD
ATOM     26  C   UNL     1     -15.961   1.373   1.715  0.00  0.00    -0.064 C 
ATOM     27  C   UNL     1     -14.492   1.713   2.091  0.00  0.00    +0.066 C 
ENDBRANCH  19  20
ENDBRANCH  18  19
ENDBRANCH  14  15
ENDBRANCH  12  13
TORSDOF 6
ENDMDL
MODEL 2
REMARK VINA RESULT:     -11.0      1.295      1.598
REMARK  Name = C:\Users\Docking\Desktop\test protocol\1iep_ligandH.pdb
REMARK  8 active torsions:
REMARK  status: ('A' for Active; 'I' for Inactive)
REMARK    1  A    between atoms: _5  and  _11
REMARK    2  A    between atoms: _19  and  _21
REMARK    3  A    between atoms: _22  and  _66
REMARK    4  A    between atoms: _27  and  _30
REMARK    5  A    between atoms: _32  and  _33
REMARK    6  A    between atoms: _38  and  _43
REMARK    7  A    between atoms: _43  and  _46
REMARK    8  A    between atoms: _53  and  _55
REMARK                            x       y       z     vdW  Elec       q    Type
REMARK                         _______ _______ _______ _____ _____    ______ ____
ROOT
ATOM     10  C   UNL     1      -8.954  11.034   8.834  0.00  0.00    +0.038 A 
ATOM     11  C   UNL     1      -9.650  10.227   7.899  0.00  0.00    +0.047 A 
ATOM     12  C   UNL     1     -10.561   9.181   8.338  0.00  0.00    +0.035 A 
ATOM     32  C   UNL     1     -10.741   8.985   9.738  0.00  0.00    +0.024 A 
ATOM     33  C   UNL     1     -10.040   9.796  10.703  0.00  0.00    +0.007 A 
ATOM     34  C   UNL     1      -9.139  10.828  10.276  0.00  0.00    -0.029 A 
ATOM     35  C   UNL     1      -8.410  11.662  11.355  0.00  0.00    +0.045 C 
ENDROOT
BRANCH  10   9
ATOM      4  C   UNL     1      -8.099  15.438   7.127  0.00  0.00    +0.077 A 
ATOM      5  C   UNL     1      -9.490  15.786   7.164  0.00  0.00    +0.048 A 
ATOM      6  C   UNL     1     -10.394  14.801   7.621  0.00  0.00    +0.116 A 
ATOM      7  N   UNL     1      -9.930  13.564   8.011  0.00  0.00    -0.223 NA
ATOM      8  C   UNL     1      -8.582  13.259   7.962  0.00  0.00    +0.220 A 
ATOM      9  N   UNL     1      -8.092  12.024   8.357  0.00  0.00    -0.283 N 
ATOM     36  H   UNL     1      -7.092  11.836   8.299  0.00  0.00    +0.155 HD
ATOM     37  N   UNL     1      -7.699  14.182   7.528  0.00  0.00    -0.214 NA
BRANCH   4   3
ATOM      1  C   UNL     1      -5.900  18.630   6.606  0.00  0.00    +0.020 A 
ATOM      2  C   UNL     1      -6.963  17.771   7.075  0.00  0.00    +0.013 A 
ATOM      3  C   UNL     1      -7.022  16.372   6.671  0.00  0.00    +0.019 A 
ATOM     38  C   UNL     1      -5.981  15.869   5.787  0.00  0.00    +0.120 A 
ATOM     39  N   UNL     1      -4.971  16.721   5.350  0.00  0.00    -0.263 NA
ATOM     40  C   UNL     1      -4.905  18.070   5.731  0.00  0.00    +0.111 A 
ENDBRANCH   4   3
ENDBRANCH  10   9
BRANCH  12  13
ATOM     13  N   UNL     1     -11.289   8.325   7.434  0.00  0.00    -0.281 N 
ATOM     14  C   UNL     1     -11.342   6.941   7.429  0.00  0.00    +0.248 C 
ATOM     30  O   UNL     1     -10.597   6.218   8.075  0.00  0.00    -0.270 OA
ATOM     31  H   UNL     1     -11.830   8.797   6.710  0.00  0.00    +0.155 HD
BRANCH  14  15
ATOM     15  C   UNL     1     -12.362   6.260   6.574  0.00  0.00    +0.037 A 
ATOM     16  C   UNL     1     -12.265   6.285   5.112  0.00  0.00    +0.013 A 
ATOM     17  C   UNL     1     -13.271   5.635   4.310  0.00  0.00    +0.005 A 
ATOM     18  C   UNL     1     -14.382   4.953   4.969  0.00  0.00    -0.033 A 
ATOM     28  C   UNL     1     -14.451   4.940   6.420  0.00  0.00    +0.005 A 
ATOM     29  C   UNL     1     -13.467   5.576   7.210  0.00  0.00    +0.013 A 
BRANCH  18  19
ATOM     19  C   UNL     1     -15.512   4.252   4.192  0.00  0.00    +0.119 C 
BRANCH  19  20
ATOM     20  N   UNL     1     -15.164   3.658   2.866  0.00  0.00    -0.302 NA
ATOM     21  C   UNL     1     -16.333   3.729   1.880  0.00  0.00    +0.066 C 
ATOM     22  C   UNL     1     -15.944   3.124   0.492  0.00  0.00    -0.064 C 
ATOM     23  N   UNL     1     -15.482   1.678   0.681  0.00  0.00    +0.379 N 
ATOM     24  C   UNL     1     -15.171   1.087  -0.629  0.00  0.00    -0.096 C 
ATOM     25  H   UNL     1     -16.333   1.105   1.116  0.00  0.00    -0.082 HD
ATOM     26  C   UNL     1     -14.321   1.597   1.662  0.00  0.00    -0.064 C 
ATOM     27  C   UNL     1     -14.709   2.228   3.029  0.00  0.00    +0.066 C 
ENDBRANCH  19  20
ENDBRANCH  18  19
ENDBRANCH  14  15
ENDBRANCH  12  13
TORSDOF 6
ENDMDL
MODEL 3
REMARK VINA RESULT:     -10.9      1.845      2.423
REMARK  Name = C:\Users\Docking\Desktop\test protocol\1iep_ligandH.pdb
REMARK  8 active torsions:
REMARK  status: ('A' for Active; 'I' for Inactive)
REMARK    1  A    between atoms: _5  and  _11
REMARK    2  A    between atoms: _19  and  _21
REMARK    3  A    between atoms: _22  and  _66
REMARK    4  A    between atoms: _27  and  _30
REMARK    5  A    between atoms: _32  and  _33
REMARK    6  A    between atoms: _38  and  _43
REMARK    7  A    between atoms: _43  and  _46
REMARK    8  A    between atoms: _53  and  _55
REMARK                            x       y       z     vdW  Elec       q    Type
REMARK                         _______ _______ _______ _____ _____    ______ ____
ROOT
ATOM     10  C   UNL     1      -9.053   9.221   9.080  0.00  0.00    +0.038 A 
ATOM     11  C   UNL     1      -9.970   8.468   8.303  0.00  0.00    +0.047 A 
ATOM     12  C   UNL     1     -10.557   7.239   8.814  0.00  0.00    +0.035 A 
ATOM     32  C   UNL     1     -10.189   6.807  10.122  0.00  0.00    +0.024 A 
ATOM     33  C   UNL     1      -9.258   7.560  10.925  0.00  0.00    +0.007 A 
ATOM     34  C   UNL     1      -8.674   8.772  10.425  0.00  0.00    -0.029 A 
ATOM     35  C   UNL     1      -7.677   9.536  11.327  0.00  0.00    +0.045 C 
ENDROOT
BRANCH  10   9
ATOM      4  C   UNL     1      -9.237  13.933   8.184  0.00  0.00    +0.077 A 
ATOM      5  C   UNL     1     -10.515  14.065   8.823  0.00  0.00    +0.048 A 
ATOM      6  C   UNL     1     -11.095  12.894   9.363  0.00  0.00    +0.116 A 
ATOM      7  N   UNL     1     -10.436  11.688   9.266  0.00  0.00    -0.223 NA
ATOM      8  C   UNL     1      -9.205  11.596   8.642  0.00  0.00    +0.220 A 
ATOM      9  N   UNL     1      -8.521  10.394   8.540  0.00  0.00    -0.283 N 
ATOM     36  H   UNL     1      -7.619  10.366   8.066  0.00  0.00    +0.155 HD
ATOM     37  N   UNL     1      -8.631  12.698   8.117  0.00  0.00    -0.214 NA
BRANCH   4   3
ATOM      1  C   UNL     1      -8.102  17.541   7.188  0.00  0.00    +0.020 A 
ATOM      2  C   UNL     1      -8.852  16.472   7.806  0.00  0.00    +0.013 A 
ATOM      3  C   UNL     1      -8.496  15.079   7.569  0.00  0.00    +0.019 A 
ATOM     38  C   UNL     1      -7.367  14.799   6.694  0.00  0.00    +0.120 A 
ATOM     39  N   UNL     1      -6.665  15.849   6.111  0.00  0.00    -0.263 NA
ATOM     40  C   UNL     1      -6.999  17.194   6.331  0.00  0.00    +0.111 A 
ENDBRANCH   4   3
ENDBRANCH  10   9
BRANCH  12  13
ATOM     13  N   UNL     1     -11.487   6.427   8.068  0.00  0.00    -0.281 N 
ATOM     14  C   UNL     1     -12.863   6.360   8.211  0.00  0.00    +0.248 C 
ATOM     30  O   UNL     1     -13.484   6.831   9.152  0.00  0.00    -0.270 OA
ATOM     31  H   UNL     1     -11.081   5.831   7.347  0.00  0.00    +0.155 HD
BRANCH  14  15
ATOM     15  C   UNL     1     -13.664   5.654   7.165  0.00  0.00    +0.037 A 
ATOM     16  C   UNL     1     -13.358   5.810   5.741  0.00  0.00    +0.013 A 
ATOM     17  C   UNL     1     -14.158   5.131   4.752  0.00  0.00    +0.005 A 
ATOM     18  C   UNL     1     -15.270   4.289   5.184  0.00  0.00    -0.033 A 
ATOM     28  C   UNL     1     -15.548   4.148   6.604  0.00  0.00    +0.005 A 
ATOM     29  C   UNL     1     -14.767   4.812   7.577  0.00  0.00    +0.013 A 
BRANCH  18  19
ATOM     19  C   UNL     1     -16.189   3.544   4.197  0.00  0.00    +0.119 C 
BRANCH  19  20
ATOM     20  N   UNL     1     -15.586   3.099   2.906  0.00  0.00    -0.302 NA
ATOM     21  C   UNL     1     -16.627   3.014   1.786  0.00  0.00    +0.066 C 
ATOM     22  C   UNL     1     -15.975   2.568   0.436  0.00  0.00    -0.064 C 
ATOM     23  N   UNL     1     -15.278   1.220   0.631  0.00  0.00    +0.379 N 
ATOM     24  C   UNL     1     -14.714   0.770  -0.650  0.00  0.00    -0.096 C 
ATOM     25  H   UNL     1     -16.053   0.480   0.938  0.00  0.00    -0.082 HD
ATOM     26  C   UNL     1     -14.243   1.295   1.745  0.00  0.00    -0.064 C 
ATOM     27  C   UNL     1     -14.896   1.767   3.074  0.00  0.00    +0.066 C 
ENDBRANCH  19  20
ENDBRANCH  18  19
ENDBRANCH  14  15
ENDBRANCH  12  13
TORSDOF 6
ENDMDL
MODEL 4
REMARK VINA RESULT:     -10.9      1.483      1.969
REMARK  Name = C:\Users\Docking\Desktop\test protocol\1iep_ligandH.pdb
REMARK  8 active torsions:
REMARK  status: ('A' for Active; 'I' for Inactive)
REMARK    1  A    between atoms: _5  and  _11
REMARK    2  A    between atoms: _19  and  _21
REMARK    3  A    between atoms: _22  and  _66
REMARK    4  A    between atoms: _27  and  _30
REMARK    5  A    between atoms: _32  and  _33
REMARK    6  A    between atoms: _38  and  _43
REMARK    7  A    between atoms: _43  and  _46
REMARK    8  A    between atoms: _53  and  _55
REMARK                            x       y       z     vdW  Elec       q    Type
REMARK                         _______ _______ _______ _____ _____    ______ ____
ROOT
ATOM     10  C   UNL     1      -8.999  10.672   8.492  0.00  0.00    +0.038 A 
ATOM     11  C   UNL     1      -9.955   9.958   7.726  0.00  0.00    +0.047 A 
ATOM     12  C   UNL     1     -10.709   8.854   8.301  0.00  0.00    +0.035 A 
ATOM     32  C   UNL     1     -10.465   8.507   9.662  0.00  0.00    +0.024 A 
ATOM     33  C   UNL     1      -9.496   9.221  10.455  0.00  0.00    +0.007 A 
ATOM     34  C   UNL     1      -8.748  10.309   9.892  0.00  0.00    -0.029 A 
ATOM     35  C   UNL     1      -7.717  11.035  10.787  0.00  0.00    +0.045 C 
ENDROOT
BRANCH  10   9
ATOM      4  C   UNL     1      -8.324  15.340   7.601  0.00  0.00    +0.077 A 
ATOM      5  C   UNL     1      -9.468  15.715   8.382  0.00  0.00    +0.048 A 
ATOM      6  C   UNL     1     -10.207  14.676   8.990  0.00  0.00    +0.116 A 
ATOM      7  N   UNL     1      -9.822  13.363   8.824  0.00  0.00    -0.223 NA
ATOM      8  C   UNL     1      -8.715  13.035   8.063  0.00  0.00    +0.220 A 
ATOM      9  N   UNL     1      -8.304  11.723   7.889  0.00  0.00    -0.283 N 
ATOM     36  H   UNL     1      -7.486  11.522   7.314  0.00  0.00    +0.155 HD
ATOM     37  N   UNL     1      -7.992  14.009   7.471  0.00  0.00    -0.214 NA
BRANCH   4   3
ATOM      1  C   UNL     1      -6.791  18.668   6.232  0.00  0.00    +0.020 A 
ATOM      2  C   UNL     1      -7.676  17.761   6.927  0.00  0.00    +0.013 A 
ATOM      3  C   UNL     1      -7.440  16.323   6.899  0.00  0.00    +0.019 A 
ATOM     38  C   UNL     1      -6.290  15.831   6.155  0.00  0.00    +0.120 A 
ATOM     39  N   UNL     1      -5.456  16.728   5.495  0.00  0.00    -0.263 NA
ATOM     40  C   UNL     1      -5.674  18.114   5.512  0.00  0.00    +0.111 A 
ENDBRANCH   4   3
ENDBRANCH  10   9
BRANCH  12  13
ATOM     13  N   UNL     1     -11.687   8.088   7.569  0.00  0.00    -0.281 N 
ATOM     14  C   UNL     1     -11.782   6.710   7.463  0.00  0.00    +0.248 C 
ATOM     30  O   UNL     1     -10.910   5.928   7.809  0.00  0.00    -0.270 OA
ATOM     31  H   UNL     1     -12.394   8.626   7.069  0.00  0.00    +0.155 HD
BRANCH  14  15
ATOM     15  C   UNL     1     -13.021   6.115   6.874  0.00  0.00    +0.037 A 
ATOM     16  C   UNL     1     -13.880   5.222   7.654  0.00  0.00    +0.013 A 
ATOM     17  C   UNL     1     -15.060   4.648   7.056  0.00  0.00    +0.005 A 
ATOM     18  C   UNL     1     -15.388   4.969   5.669  0.00  0.00    -0.033 A 
ATOM     28  C   UNL     1     -14.520   5.863   4.920  0.00  0.00    +0.005 A 
ATOM     29  C   UNL     1     -13.363   6.426   5.502  0.00  0.00    +0.013 A 
BRANCH  18  19
ATOM     19  C   UNL     1     -16.615   4.386   4.943  0.00  0.00    +0.119 C 
BRANCH  19  20
ATOM     20  N   UNL     1     -16.369   3.297   3.952  0.00  0.00    -0.302 NA
ATOM     21  C   UNL     1     -15.202   2.396   4.366  0.00  0.00    +0.066 C 
ATOM     22  C   UNL     1     -14.974   1.248   3.329  0.00  0.00    -0.064 C 
ATOM     23  N   UNL     1     -14.726   1.855   1.947  0.00  0.00    +0.379 N 
ATOM     24  C   UNL     1     -14.453   0.781   0.981  0.00  0.00    -0.096 C 
ATOM     25  H   UNL     1     -13.811   2.489   2.015  0.00  0.00    -0.082 HD
ATOM     26  C   UNL     1     -15.880   2.755   1.529  0.00  0.00    -0.064 C 
ATOM     27  C   UNL     1     -16.118   3.874   2.581  0.00  0.00    +0.066 C 
ENDBRANCH  19  20
ENDBRANCH  18  19
ENDBRANCH  14  15
ENDBRANCH  12  13
TORSDOF 6
ENDMDL
MODEL 5
REMARK VINA RESULT:     -10.8      1.413      2.241
REMARK  Name = C:\Users\Docking\Desktop\test protocol\1iep_ligandH.pdb
REMARK  8 active torsions:
REMARK  status: ('A' for Active; 'I' for Inactive)
REMARK    1  A    between atoms: _5  and  _11
REMARK    2  A    between atoms: _19  and  _21
REMARK    3  A    between atoms: _22  and  _66
REMARK    4  A    between atoms: _27  and  _30
REMARK    5  A    between atoms: _32  and  _33
REMARK    6  A    between atoms: _38  and  _43
REMARK    7  A    between atoms: _43  and  _46
REMARK    8  A    between atoms: _53  and  _55
REMARK                            x       y       z     vdW  Elec       q    Type
REMARK                         _______ _______ _______ _____ _____    ______ ____
ROOT
ATOM     10  C   UNL     1      -8.869  10.317   9.029  0.00  0.00    +0.038 A 
ATOM     11  C   UNL     1      -9.692   9.531   8.183  0.00  0.00    +0.047 A 
ATOM     12  C   UNL     1     -10.438   8.395   8.703  0.00  0.00    +0.035 A 
ATOM     32  C   UNL     1     -10.324   8.091  10.090  0.00  0.00    +0.024 A 
ATOM     33  C   UNL     1      -9.491   8.879  10.964  0.00  0.00    +0.007 A 
ATOM     34  C   UNL     1      -8.751   9.999  10.457  0.00  0.00    -0.029 A 
ATOM     35  C   UNL     1      -7.869  10.805  11.438  0.00  0.00    +0.045 C 
ENDROOT
BRANCH  10   9
ATOM      4  C   UNL     1      -8.615  14.877   7.550  0.00  0.00    +0.077 A 
ATOM      5  C   UNL     1      -9.989  15.122   7.882  0.00  0.00    +0.048 A 
ATOM      6  C   UNL     1     -10.728  14.047   8.424  0.00  0.00    +0.116 A 
ATOM      7  N   UNL     1     -10.128  12.822   8.616  0.00  0.00    -0.223 NA
ATOM      8  C   UNL     1      -8.801  12.618   8.284  0.00  0.00    +0.220 A 
ATOM      9  N   UNL     1      -8.175  11.396   8.476  0.00  0.00    -0.283 N 
ATOM     36  H   UNL     1      -7.196  11.284   8.212  0.00  0.00    +0.155 HD
ATOM     37  N   UNL     1      -8.074  13.628   7.764  0.00  0.00    -0.214 NA
BRANCH   4   3
ATOM      1  C   UNL     1      -6.993  18.304   6.589  0.00  0.00    +0.020 A 
ATOM      2  C   UNL     1      -7.904  17.344   7.168  0.00  0.00    +0.013 A 
ATOM      3  C   UNL     1      -7.703  15.913   6.973  0.00  0.00    +0.019 A 
ATOM     38  C   UNL     1      -6.560  15.484   6.180  0.00  0.00    +0.120 A 
ATOM     39  N   UNL     1      -5.701  16.432   5.633  0.00  0.00    -0.263 NA
ATOM     40  C   UNL     1      -5.886  17.811   5.813  0.00  0.00    +0.111 A 
ENDBRANCH   4   3
ENDBRANCH  10   9
BRANCH  12  13
ATOM     13  N   UNL     1     -11.283   7.555   7.890  0.00  0.00    -0.281 N 
ATOM     14  C   UNL     1     -11.960   7.896   6.731  0.00  0.00    +0.248 C 
ATOM     30  O   UNL     1     -12.114   9.041   6.332  0.00  0.00    -0.270 OA
ATOM     31  H   UNL     1     -11.395   6.593   8.209  0.00  0.00    +0.155 HD
BRANCH  14  15
ATOM     15  C   UNL     1     -12.567   6.810   5.904  0.00  0.00    +0.037 A 
ATOM     16  C   UNL     1     -13.320   5.714   6.521  0.00  0.00    +0.013 A 
ATOM     17  C   UNL     1     -13.880   4.670   5.701  0.00  0.00    +0.005 A 
ATOM     18  C   UNL     1     -13.691   4.717   4.253  0.00  0.00    -0.033 A 
ATOM     28  C   UNL     1     -12.945   5.818   3.666  0.00  0.00    +0.005 A 
ATOM     29  C   UNL     1     -12.393   6.843   4.467  0.00  0.00    +0.013 A 
BRANCH  18  19
ATOM     19  C   UNL     1     -14.236   3.634   3.303  0.00  0.00    +0.119 C 
BRANCH  19  20
ATOM     20  N   UNL     1     -13.248   2.679   2.716  0.00  0.00    -0.302 NA
ATOM     21  C   UNL     1     -13.914   1.670   1.777  0.00  0.00    +0.066 C 
ATOM     22  C   UNL     1     -12.863   0.693   1.155  0.00  0.00    -0.064 C 
ATOM     23  N   UNL     1     -12.112  -0.026   2.277  0.00  0.00    +0.379 N 
ATOM     24  C   UNL     1     -11.164  -0.987   1.696  0.00  0.00    -0.096 C 
ATOM     25  H   UNL     1     -12.860  -0.603   2.869  0.00  0.00    -0.082 HD
ATOM     26  C   UNL     1     -11.450   0.971   3.218  0.00  0.00    -0.064 C 
ATOM     27  C   UNL     1     -12.498   1.956   3.807  0.00  0.00    +0.066 C 
ENDBRANCH  19  20
ENDBRANCH  18  19
ENDBRANCH  14  15
ENDBRANCH  12  13
TORSDOF 6
ENDMDL
