MODEL 1
REMARK VINA RESULT:     -11.7      0.000      0.000
REMARK  Name = C:\Users\Docking\Desktop\test protocol\1iep_ligandH.pdb
REMARK  8 active torsions:
REMARK  status: ('A' for Active; 'I' for Inactive)
REMARK    1  A    between atoms: _5  and  _11
REMARK    2  A    between atoms: _19  and  _21
REMARK    3  A    between atoms: _22  and  _66
REMARK    4  A    between atoms: _27  and  _30
REMARK    5  A    between atoms: _32  and  _33
REMARK    6  A    between atoms: _38  and  _43
REMARK    7  A    between atoms: _43  and  _46
REMARK    8  A    between atoms: _53  and  _55
REMARK                            x       y       z     vdW  Elec       q    Type
REMARK                         _______ _______ _______ _____ _____    ______ ____
ROOT
ATOM     10  C   UNL     1      19.203 -10.916  -8.911  0.00  0.00    +0.038 A 
ATOM     11  C   UNL     1      18.690  -9.939  -8.021  0.00  0.00    +0.047 A 
ATOM     12  C   UNL     1      17.739  -8.934  -8.472  0.00  0.00    +0.035 A 
ATOM     32  C   UNL     1      17.330  -8.957  -9.838  0.00  0.00    +0.024 A 
ATOM     33  C   UNL     1      17.842  -9.943 -10.757  0.00  0.00    +0.007 A 
ATOM     34  C   UNL     1      18.782 -10.934 -10.318  0.00  0.00    -0.029 A 
ATOM     35  C   UNL     1      19.303 -11.963 -11.348  0.00  0.00    +0.045 C 
ENDROOT
BRANCH  10   9
ATOM      4  C   UNL     1      20.279 -15.257  -7.169  0.00  0.00    +0.077 A 
ATOM      5  C   UNL     1      18.907 -15.678  -7.207  0.00  0.00    +0.048 A 
ATOM      6  C   UNL     1      17.955 -14.744  -7.675  0.00  0.00    +0.116 A 
ATOM      7  N   UNL     1      18.356 -13.487  -8.073  0.00  0.00    -0.223 NA
ATOM      8  C   UNL     1      19.686 -13.113  -8.022  0.00  0.00    +0.220 A 
ATOM      9  N   UNL     1      20.113 -11.857  -8.424  0.00  0.00    -0.283 N 
ATOM     36  H   UNL     1      21.102 -11.617  -8.364  0.00  0.00    +0.155 HD
ATOM     37  N   UNL     1      20.615 -13.986  -7.577  0.00  0.00    -0.214 NA
BRANCH   4   3
ATOM      1  C   UNL     1      22.536 -18.370  -6.450  0.00  0.00    +0.020 A 
ATOM      2  C   UNL     1      21.427 -17.572  -6.921  0.00  0.00    +0.013 A 
ATOM      3  C   UNL     1      21.401 -16.131  -6.702  0.00  0.00    +0.019 A 
ATOM     38  C   UNL     1      22.522 -15.524  -6.000  0.00  0.00    +0.120 A 
ATOM     39  N   UNL     1      23.575 -16.318  -5.557  0.00  0.00    -0.263 NA
ATOM     40  C   UNL     1      23.610 -17.706  -5.760  0.00  0.00    +0.111 A 
ENDBRANCH   4   3
ENDBRANCH  10   9
BRANCH  12  13
ATOM     13  N   UNL     1      17.191  -7.912  -7.616  0.00  0.00    -0.281 N 
ATOM     14  C   UNL     1      16.450  -8.079  -6.457  0.00  0.00    +0.248 C 
ATOM     30  O   UNL     1      15.963  -9.140  -6.095  0.00  0.00    -0.270 OA
ATOM     31  H   UNL     1      17.370  -6.949  -7.899  0.00  0.00    +0.155 HD
BRANCH  14  15
ATOM     15  C   UNL     1      16.203  -6.893  -5.581  0.00  0.00    +0.037 A 
ATOM     16  C   UNL     1      15.560  -7.036  -4.273  0.00  0.00    +0.013 A 
ATOM     17  C   UNL     1      15.318  -5.874  -3.455  0.00  0.00    +0.005 A 
ATOM     18  C   UNL     1      15.721  -4.558  -3.944  0.00  0.00    -0.033 A 
ATOM     28  C   UNL     1      16.362  -4.445  -5.244  0.00  0.00    +0.005 A 
ATOM     29  C   UNL     1      16.600  -5.582  -6.049  0.00  0.00    +0.013 A 
BRANCH  18  19
ATOM     19  C   UNL     1      15.483  -3.261  -3.148  0.00  0.00    +0.119 C 
BRANCH  19  20
ATOM     20  N   UNL     1      14.072  -2.927  -2.791  0.00  0.00    -0.302 NA
ATOM     21  C   UNL     1      13.155  -2.921  -4.017  0.00  0.00    +0.066 C 
ATOM     22  C   UNL     1      11.678  -2.593  -3.621  0.00  0.00    -0.064 C 
ATOM     23  N   UNL     1      11.634  -1.242  -2.905  0.00  0.00    +0.379 N 
ATOM     24  C   UNL     1      10.240  -0.903  -2.583  0.00  0.00    -0.096 C 
ATOM     25  H   UNL     1      12.014  -0.471  -3.614  0.00  0.00    -0.082 HD
ATOM     26  C   UNL     1      12.545  -1.239  -1.686  0.00  0.00    -0.064 C 
ATOM     27  C   UNL     1      14.004  -1.595  -2.086  0.00  0.00    +0.066 C 
ENDBRANCH  19  20
ENDBRANCH  18  19
ENDBRANCH  14  15
ENDBRANCH  12  13
TORSDOF 6
ENDMDL
MODEL 2
REMARK VINA RESULT:     -11.1      1.518      1.917
REMARK  Name = C:\Users\Docking\Desktop\test protocol\1iep_ligandH.pdb
REMARK  8 active torsions:
REMARK  status: ('A' for Active; 'I' for Inactive)
REMARK    1  A    between atoms: _5  and  _11
REMARK    2  A    between atoms: _19  and  _21
REMARK    3  A    between atoms: _22  and  _66
REMARK    4  A    between atoms: _27  and  _30
REMARK    5  A    between atoms: _32  and  _33
REMARK    6  A    between atoms: _38  and  _43
REMARK    7  A    between atoms: _43  and  _46
REMARK    8  A    between atoms: _53  and  _55
REMARK                            x       y       z     vdW  Elec       q    Type
REMARK                         _______ _______ _______ _____ _____    ______ ____
ROOT
ATOM     10  C   UNL     1      18.925  -9.761  -8.929  0.00  0.00    +0.038 A 
ATOM     11  C   UNL     1      18.058  -8.989  -8.115  0.00  0.00    +0.047 A 
ATOM     12  C   UNL     1      17.328  -7.854  -8.658  0.00  0.00    +0.035 A 
ATOM     32  C   UNL     1      17.503  -7.535 -10.036  0.00  0.00    +0.024 A 
ATOM     33  C   UNL     1      18.382  -8.308 -10.878  0.00  0.00    +0.007 A 
ATOM     34  C   UNL     1      19.107  -9.427 -10.347  0.00  0.00    -0.029 A 
ATOM     35  C   UNL     1      20.040 -10.217 -11.294  0.00  0.00    +0.045 C 
ENDROOT
BRANCH  10   9
ATOM      4  C   UNL     1      19.302 -14.418  -7.827  0.00  0.00    +0.077 A 
ATOM      5  C   UNL     1      18.032 -14.721  -8.421  0.00  0.00    +0.048 A 
ATOM      6  C   UNL     1      17.310 -13.650  -8.993  0.00  0.00    +0.116 A 
ATOM      7  N   UNL     1      17.829 -12.374  -8.967  0.00  0.00    -0.223 NA
ATOM      8  C   UNL     1      19.056 -12.115  -8.385  0.00  0.00    +0.220 A 
ATOM      9  N   UNL     1      19.602 -10.840  -8.356  0.00  0.00    -0.283 N 
ATOM     36  H   UNL     1      20.506 -10.689  -7.910  0.00  0.00    +0.155 HD
ATOM     37  N   UNL     1      19.765 -13.121  -7.831  0.00  0.00    -0.214 NA
BRANCH   4   3
ATOM      1  C   UNL     1      20.712 -17.802  -6.463  0.00  0.00    +0.020 A 
ATOM      2  C   UNL     1      19.823 -16.852  -7.093  0.00  0.00    +0.013 A 
ATOM      3  C   UNL     1      20.184 -15.443  -7.186  0.00  0.00    +0.019 A 
ATOM     38  C   UNL     1      21.461 -15.024  -6.629  0.00  0.00    +0.120 A 
ATOM     39  N   UNL     1      22.296 -15.961  -6.027  0.00  0.00    -0.263 NA
ATOM     40  C   UNL     1      21.959 -17.319  -5.930  0.00  0.00    +0.111 A 
ENDBRANCH   4   3
ENDBRANCH  10   9
BRANCH  12  13
ATOM     13  N   UNL     1      16.439  -7.029  -7.878  0.00  0.00    -0.281 N 
ATOM     14  C   UNL     1      15.921  -7.289  -6.619  0.00  0.00    +0.248 C 
ATOM     30  O   UNL     1      15.974  -8.374  -6.061  0.00  0.00    -0.270 OA
ATOM     31  H   UNL     1      16.158  -6.146  -8.305  0.00  0.00    +0.155 HD
BRANCH  14  15
ATOM     15  C   UNL     1      15.232  -6.187  -5.881  0.00  0.00    +0.037 A 
ATOM     16  C   UNL     1      15.270  -6.112  -4.418  0.00  0.00    +0.013 A 
ATOM     17  C   UNL     1      14.582  -5.049  -3.730  0.00  0.00    +0.005 A 
ATOM     18  C   UNL     1      13.851  -4.049  -4.506  0.00  0.00    -0.033 A 
ATOM     28  C   UNL     1      13.834  -4.144  -5.956  0.00  0.00    +0.005 A 
ATOM     29  C   UNL     1      14.506  -5.186  -6.634  0.00  0.00    +0.013 A 
BRANCH  18  19
ATOM     19  C   UNL     1      13.071  -2.892  -3.854  0.00  0.00    +0.119 C 
BRANCH  19  20
ATOM     20  N   UNL     1      13.314  -2.635  -2.403  0.00  0.00    -0.302 NA
ATOM     21  C   UNL     1      12.085  -2.962  -1.549  0.00  0.00    +0.066 C 
ATOM     22  C   UNL     1      12.364  -2.709  -0.032  0.00  0.00    -0.064 C 
ATOM     23  N   UNL     1      12.793  -1.255   0.170  0.00  0.00    +0.379 N 
ATOM     24  C   UNL     1      12.999  -0.998   1.603  0.00  0.00    -0.096 C 
ATOM     25  H   UNL     1      11.955  -0.604  -0.173  0.00  0.00    -0.082 HD
ATOM     26  C   UNL     1      14.012  -0.921  -0.678  0.00  0.00    -0.064 C 
ATOM     27  C   UNL     1      13.734  -1.203  -2.181  0.00  0.00    +0.066 C 
ENDBRANCH  19  20
ENDBRANCH  18  19
ENDBRANCH  14  15
ENDBRANCH  12  13
TORSDOF 6
ENDMDL
MODEL 3
REMARK VINA RESULT:     -11.1      1.417      1.734
REMARK  Name = C:\Users\Docking\Desktop\test protocol\1iep_ligandH.pdb
REMARK  8 active torsions:
REMARK  status: ('A' for Active; 'I' for Inactive)
REMARK    1  A    between atoms: _5  and  _11
REMARK    2  A    between atoms: _19  and  _21
REMARK    3  A    between atoms: _22  and  _66
REMARK    4  A    between atoms: _27  and  _30
REMARK    5  A    between atoms: _32  and  _33
REMARK    6  A    between atoms: _38  and  _43
REMARK    7  A    between atoms: _43  and  _46
REMARK    8  A    between atoms: _53  and  _55
REMARK                            x       y       z     vdW  Elec       q    Type
REMARK                         _______ _______ _______ _____ _____    ______ ____
ROOT
ATOM     10  C   UNL     1      19.513 -11.775  -9.034  0.00  0.00    +0.038 A 
ATOM     11  C   UNL     1      18.837 -10.941  -8.107  0.00  0.00    +0.047 A 
ATOM     12  C   UNL     1      17.842  -9.976  -8.548  0.00  0.00    +0.035 A 
ATOM     32  C   UNL     1      17.558  -9.889  -9.942  0.00  0.00    +0.024 A 
ATOM     33  C   UNL     1      18.237 -10.728 -10.899  0.00  0.00    +0.007 A 
ATOM     34  C   UNL     1      19.221 -11.680 -10.469  0.00  0.00    -0.029 A 
ATOM     35  C   UNL     1      19.922 -12.548 -11.540  0.00  0.00    +0.045 C 
ENDROOT
BRANCH  10   9
ATOM      4  C   UNL     1      20.717 -15.950  -6.995  0.00  0.00    +0.077 A 
ATOM      5  C   UNL     1      19.345 -16.342  -6.848  0.00  0.00    +0.048 A 
ATOM      6  C   UNL     1      18.360 -15.437  -7.303  0.00  0.00    +0.116 A 
ATOM      7  N   UNL     1      18.730 -14.233  -7.862  0.00  0.00    -0.223 NA
ATOM      8  C   UNL     1      20.063 -13.886  -7.988  0.00  0.00    +0.220 A 
ATOM      9  N   UNL     1      20.459 -12.684  -8.555  0.00  0.00    -0.283 N 
ATOM     36  H   UNL     1      21.452 -12.461  -8.622  0.00  0.00    +0.155 HD
ATOM     37  N   UNL     1      21.023 -14.732  -7.560  0.00  0.00    -0.214 NA
BRANCH   4   3
ATOM      1  C   UNL     1      23.147 -18.975  -6.502  0.00  0.00    +0.020 A 
ATOM      2  C   UNL     1      22.011 -18.200  -6.943  0.00  0.00    +0.013 A 
ATOM      3  C   UNL     1      21.873 -16.799  -6.565  0.00  0.00    +0.019 A 
ATOM     38  C   UNL     1      22.911 -16.208  -5.734  0.00  0.00    +0.120 A 
ATOM     39  N   UNL     1      23.993 -16.980  -5.322  0.00  0.00    -0.263 NA
ATOM     40  C   UNL     1      24.136 -18.329  -5.679  0.00  0.00    +0.111 A 
ENDBRANCH   4   3
ENDBRANCH  10   9
BRANCH  12  13
ATOM     13  N   UNL     1      17.130  -9.098  -7.654  0.00  0.00    -0.281 N 
ATOM     14  C   UNL     1      17.167  -7.714  -7.610  0.00  0.00    +0.248 C 
ATOM     30  O   UNL     1      17.989  -7.026  -8.198  0.00  0.00    -0.270 OA
ATOM     31  H   UNL     1      16.524  -9.552  -6.970  0.00  0.00    +0.155 HD
BRANCH  14  15
ATOM     15  C   UNL     1      16.155  -6.990  -6.783  0.00  0.00    +0.037 A 
ATOM     16  C   UNL     1      15.927  -7.344  -5.379  0.00  0.00    +0.013 A 
ATOM     17  C   UNL     1      14.933  -6.641  -4.608  0.00  0.00    +0.005 A 
ATOM     18  C   UNL     1      14.159  -5.574  -5.240  0.00  0.00    -0.033 A 
ATOM     28  C   UNL     1      14.410  -5.240  -6.632  0.00  0.00    +0.005 A 
ATOM     29  C   UNL     1      15.383  -5.928  -7.391  0.00  0.00    +0.013 A 
BRANCH  18  19
ATOM     19  C   UNL     1      13.064  -4.785  -4.499  0.00  0.00    +0.119 C 
BRANCH  19  20
ATOM     20  N   UNL     1      13.466  -4.052  -3.262  0.00  0.00    -0.302 NA
ATOM     21  C   UNL     1      12.263  -3.438  -2.540  0.00  0.00    +0.066 C 
ATOM     22  C   UNL     1      12.700  -2.695  -1.236  0.00  0.00    -0.064 C 
ATOM     23  N   UNL     1      13.729  -1.618  -1.587  0.00  0.00    +0.379 N 
ATOM     24  C   UNL     1      14.098  -0.879  -0.371  0.00  0.00    -0.096 C 
ATOM     25  H   UNL     1      13.241  -0.899  -2.285  0.00  0.00    -0.082 HD
ATOM     26  C   UNL     1      14.927  -2.220  -2.307  0.00  0.00    -0.064 C 
ATOM     27  C   UNL     1      14.479  -2.981  -3.585  0.00  0.00    +0.066 C 
ENDBRANCH  19  20
ENDBRANCH  18  19
ENDBRANCH  14  15
ENDBRANCH  12  13
TORSDOF 6
ENDMDL
MODEL 4
REMARK VINA RESULT:     -11.0      1.442      2.146
REMARK  Name = C:\Users\Docking\Desktop\test protocol\1iep_ligandH.pdb
REMARK  8 active torsions:
REMARK  status: ('A' for Active; 'I' for Inactive)
REMARK    1  A    between atoms: _5  and  _11
REMARK    2  A    between atoms: _19  and  _21
REMARK    3  A    between atoms: _22  and  _66
REMARK    4  A    between atoms: _27  and  _30
REMARK    5  A    between atoms: _32  and  _33
REMARK    6  A    between atoms: _38  and  _43
REMARK    7  A    between atoms: _43  and  _46
REMARK    8  A    between atoms: _53  and  _55
REMARK                            x       y       z     vdW  Elec       q    Type
REMARK                         _______ _______ _______ _____ _____    ______ ____
ROOT
ATOM     10  C   UNL     1      18.963 -10.184  -8.597  0.00  0.00    +0.038 A 
ATOM     11  C   UNL     1      18.181  -9.384  -7.724  0.00  0.00    +0.047 A 
ATOM     12  C   UNL     1      17.388  -8.274  -8.229  0.00  0.00    +0.035 A 
ATOM     32  C   UNL     1      17.413  -8.008  -9.629  0.00  0.00    +0.024 A 
ATOM     33  C   UNL     1      18.203  -8.809 -10.530  0.00  0.00    +0.007 A 
ATOM     34  C   UNL     1      18.989  -9.904 -10.037  0.00  0.00    -0.029 A 
ATOM     35  C   UNL     1      19.822 -10.726 -11.048  0.00  0.00    +0.045 C 
ENDROOT
BRANCH  10   9
ATOM      4  C   UNL     1      19.598 -14.833  -7.589  0.00  0.00    +0.077 A 
ATOM      5  C   UNL     1      18.331 -15.191  -8.160  0.00  0.00    +0.048 A 
ATOM      6  C   UNL     1      17.543 -14.147  -8.696  0.00  0.00    +0.116 A 
ATOM      7  N   UNL     1      17.999 -12.847  -8.659  0.00  0.00    -0.223 NA
ATOM      8  C   UNL     1      19.224 -12.537  -8.099  0.00  0.00    +0.220 A 
ATOM      9  N   UNL     1      19.705 -11.237  -8.058  0.00  0.00    -0.283 N 
ATOM     36  H   UNL     1      20.611 -11.048  -7.630  0.00  0.00    +0.155 HD
ATOM     37  N   UNL     1      19.995 -13.515  -7.580  0.00  0.00    -0.214 NA
BRANCH   4   3
ATOM      1  C   UNL     1      21.205 -18.164  -6.315  0.00  0.00    +0.020 A 
ATOM      2  C   UNL     1      20.255 -17.250  -6.907  0.00  0.00    +0.013 A 
ATOM      3  C   UNL     1      20.545 -15.824  -6.986  0.00  0.00    +0.019 A 
ATOM     38  C   UNL     1      21.814 -15.351  -6.454  0.00  0.00    +0.120 A 
ATOM     39  N   UNL     1      22.708 -16.255  -5.889  0.00  0.00    -0.263 NA
ATOM     40  C   UNL     1      22.440 -17.630  -5.805  0.00  0.00    +0.111 A 
ENDBRANCH   4   3
ENDBRANCH  10   9
BRANCH  12  13
ATOM     13  N   UNL     1      16.581  -7.423  -7.390  0.00  0.00    -0.281 N 
ATOM     14  C   UNL     1      15.837  -7.782  -6.278  0.00  0.00    +0.248 C 
ATOM     30  O   UNL     1      15.579  -8.934  -5.961  0.00  0.00    -0.270 OA
ATOM     31  H   UNL     1      16.556  -6.436  -7.647  0.00  0.00    +0.155 HD
BRANCH  14  15
ATOM     15  C   UNL     1      15.286  -6.705  -5.400  0.00  0.00    +0.037 A 
ATOM     16  C   UNL     1      14.492  -5.605  -5.953  0.00  0.00    +0.013 A 
ATOM     17  C   UNL     1      13.987  -4.570  -5.086  0.00  0.00    +0.005 A 
ATOM     18  C   UNL     1      14.273  -4.632  -3.655  0.00  0.00    -0.033 A 
ATOM     28  C   UNL     1      15.059  -5.738  -3.132  0.00  0.00    +0.005 A 
ATOM     29  C   UNL     1      15.556  -6.753  -3.979  0.00  0.00    +0.013 A 
BRANCH  18  19
ATOM     19  C   UNL     1      13.792  -3.561  -2.659  0.00  0.00    +0.119 C 
BRANCH  19  20
ATOM     20  N   UNL     1      14.456  -2.224  -2.719  0.00  0.00    -0.302 NA
ATOM     21  C   UNL     1      15.952  -2.311  -2.407  0.00  0.00    +0.066 C 
ATOM     22  C   UNL     1      16.635  -0.907  -2.497  0.00  0.00    -0.064 C 
ATOM     23  N   UNL     1      15.936   0.059  -1.538  0.00  0.00    +0.379 N 
ATOM     24  C   UNL     1      16.613   1.364  -1.578  0.00  0.00    -0.096 C 
ATOM     25  H   UNL     1      16.048  -0.349  -0.507  0.00  0.00    -0.082 HD
ATOM     26  C   UNL     1      14.447   0.149  -1.840  0.00  0.00    -0.064 C 
ATOM     27  C   UNL     1      13.785  -1.255  -1.777  0.00  0.00    +0.066 C 
ENDBRANCH  19  20
ENDBRANCH  18  19
ENDBRANCH  14  15
ENDBRANCH  12  13
TORSDOF 6
ENDMDL
MODEL 5
REMARK VINA RESULT:     -10.9      1.587      2.255
REMARK  Name = C:\Users\Docking\Desktop\test protocol\1iep_ligandH.pdb
REMARK  8 active torsions:
REMARK  status: ('A' for Active; 'I' for Inactive)
REMARK    1  A    between atoms: _5  and  _11
REMARK    2  A    between atoms: _19  and  _21
REMARK    3  A    between atoms: _22  and  _66
REMARK    4  A    between atoms: _27  and  _30
REMARK    5  A    between atoms: _32  and  _33
REMARK    6  A    between atoms: _38  and  _43
REMARK    7  A    between atoms: _43  and  _46
REMARK    8  A    between atoms: _53  and  _55
REMARK                            x       y       z     vdW  Elec       q    Type
REMARK                         _______ _______ _______ _____ _____    ______ ____
ROOT
ATOM     10  C   UNL     1      19.221 -11.051  -8.860  0.00  0.00    +0.038 A 
ATOM     11  C   UNL     1      18.693 -10.074  -7.977  0.00  0.00    +0.047 A 
ATOM     12  C   UNL     1      17.697  -9.113  -8.427  0.00  0.00    +0.035 A 
ATOM     32  C   UNL     1      17.259  -9.178  -9.782  0.00  0.00    +0.024 A 
ATOM     33  C   UNL     1      17.786 -10.164 -10.693  0.00  0.00    +0.007 A 
ATOM     34  C   UNL     1      18.771 -11.112 -10.255  0.00  0.00    -0.029 A 
ATOM     35  C   UNL     1      19.305 -12.143 -11.277  0.00  0.00    +0.045 C 
ENDROOT
BRANCH  10   9
ATOM      4  C   UNL     1      20.498 -15.330  -7.100  0.00  0.00    +0.077 A 
ATOM      5  C   UNL     1      19.146 -15.809  -7.124  0.00  0.00    +0.048 A 
ATOM      6  C   UNL     1      18.151 -14.921  -7.589  0.00  0.00    +0.116 A 
ATOM      7  N   UNL     1      18.493 -13.650  -7.998  0.00  0.00    -0.223 NA
ATOM      8  C   UNL     1      19.807 -13.219  -7.961  0.00  0.00    +0.220 A 
ATOM      9  N   UNL     1      20.175 -11.948  -8.375  0.00  0.00    -0.283 N 
ATOM     36  H   UNL     1      21.154 -11.665  -8.325  0.00  0.00    +0.155 HD
ATOM     37  N   UNL     1      20.775 -14.048  -7.519  0.00  0.00    -0.214 NA
BRANCH   4   3
ATOM      1  C   UNL     1      23.789 -16.473  -5.322  0.00  0.00    +0.020 A 
ATOM      2  C   UNL     1      22.686 -15.638  -5.739  0.00  0.00    +0.013 A 
ATOM      3  C   UNL     1      21.661 -16.151  -6.639  0.00  0.00    +0.019 A 
ATOM     38  C   UNL     1      21.782 -17.525  -7.102  0.00  0.00    +0.120 A 
ATOM     39  N   UNL     1      22.857 -18.305  -6.686  0.00  0.00    -0.263 NA
ATOM     40  C   UNL     1      23.850 -17.821  -5.821  0.00  0.00    +0.111 A 
ENDBRANCH   4   3
ENDBRANCH  10   9
BRANCH  12  13
ATOM     13  N   UNL     1      17.131  -8.094  -7.579  0.00  0.00    -0.281 N 
ATOM     14  C   UNL     1      16.364  -8.265  -6.438  0.00  0.00    +0.248 C 
ATOM     30  O   UNL     1      15.867  -9.326  -6.091  0.00  0.00    -0.270 OA
ATOM     31  H   UNL     1      17.318  -7.129  -7.853  0.00  0.00    +0.155 HD
BRANCH  14  15
ATOM     15  C   UNL     1      16.099  -7.083  -5.562  0.00  0.00    +0.037 A 
ATOM     16  C   UNL     1      15.407  -7.227  -4.279  0.00  0.00    +0.013 A 
ATOM     17  C   UNL     1      15.149  -6.068  -3.462  0.00  0.00    +0.005 A 
ATOM     18  C   UNL     1      15.585  -4.753  -3.926  0.00  0.00    -0.033 A 
ATOM     28  C   UNL     1      16.274  -4.639  -5.201  0.00  0.00    +0.005 A 
ATOM     29  C   UNL     1      16.527  -5.773  -6.005  0.00  0.00    +0.013 A 
BRANCH  18  19
ATOM     19  C   UNL     1      15.333  -3.459  -3.129  0.00  0.00    +0.119 C 
BRANCH  19  20
ATOM     20  N   UNL     1      15.877  -2.190  -3.698  0.00  0.00    -0.302 NA
ATOM     21  C   UNL     1      16.739  -1.430  -2.685  0.00  0.00    +0.066 C 
ATOM     22  C   UNL     1      17.318  -0.116  -3.303  0.00  0.00    -0.064 C 
ATOM     23  N   UNL     1      16.167   0.760  -3.800  0.00  0.00    +0.379 N 
ATOM     24  C   UNL     1      16.705   2.022  -4.329  0.00  0.00    -0.096 C 
ATOM     25  H   UNL     1      15.527   1.007  -2.922  0.00  0.00    -0.082 HD
ATOM     26  C   UNL     1      15.303   0.012  -4.805  0.00  0.00    -0.064 C 
ATOM     27  C   UNL     1      14.757  -1.307  -4.191  0.00  0.00    +0.066 C 
ENDBRANCH  19  20
ENDBRANCH  18  19
ENDBRANCH  14  15
ENDBRANCH  12  13
TORSDOF 6
ENDMDL
