MODEL 1
REMARK VINA RESULT:      -9.1      0.000      0.000
REMARK  Name = C:\Users\Docking\Desktop\test protocol\1iep_ligandH.pdb
REMARK  8 active torsions:
REMARK  status: ('A' for Active; 'I' for Inactive)
REMARK    1  A    between atoms: _5  and  _11
REMARK    2  A    between atoms: _19  and  _21
REMARK    3  A    between atoms: _22  and  _66
REMARK    4  A    between atoms: _27  and  _30
REMARK    5  A    between atoms: _32  and  _33
REMARK    6  A    between atoms: _38  and  _43
REMARK    7  A    between atoms: _43  and  _46
REMARK    8  A    between atoms: _53  and  _55
REMARK                            x       y       z     vdW  Elec       q    Type
REMARK                         _______ _______ _______ _____ _____    ______ ____
ROOT
ATOM     10  C   UNL     1       2.773  19.298  62.953  0.00  0.00    +0.038 A 
ATOM     11  C   UNL     1       3.362  20.227  62.058  0.00  0.00    +0.047 A 
ATOM     12  C   UNL     1       2.561  20.926  61.065  0.00  0.00    +0.035 A 
ATOM     32  C   UNL     1       1.163  20.656  61.012  0.00  0.00    +0.024 A 
ATOM     33  C   UNL     1       0.548  19.714  61.913  0.00  0.00    +0.007 A 
ATOM     34  C   UNL     1       1.333  19.019  62.894  0.00  0.00    -0.029 A 
ATOM     35  C   UNL     1       0.621  18.015  63.830  0.00  0.00    +0.045 C 
ENDROOT
BRANCH  10   9
ATOM      4  C   UNL     1       5.560  15.642  64.333  0.00  0.00    +0.077 A 
ATOM      5  C   UNL     1       5.353  14.941  63.099  0.00  0.00    +0.048 A 
ATOM      6  C   UNL     1       4.516  15.551  62.138  0.00  0.00    +0.116 A 
ATOM      7  N   UNL     1       3.936  16.773  62.402  0.00  0.00    -0.223 NA
ATOM      8  C   UNL     1       4.155  17.422  63.603  0.00  0.00    +0.220 A 
ATOM      9  N   UNL     1       3.588  18.655  63.887  0.00  0.00    -0.283 N 
ATOM     36  H   UNL     1       3.769  19.098  64.788  0.00  0.00    +0.155 HD
ATOM     37  N   UNL     1       4.949  16.859  64.538  0.00  0.00    -0.214 NA
BRANCH   4   3
ATOM      1  C   UNL     1       8.155  13.557  66.387  0.00  0.00    +0.020 A 
ATOM      2  C   UNL     1       7.346  14.014  65.281  0.00  0.00    +0.013 A 
ATOM      3  C   UNL     1       6.421  15.128  65.445  0.00  0.00    +0.019 A 
ATOM     38  C   UNL     1       6.338  15.763  66.752  0.00  0.00    +0.120 A 
ATOM     39  N   UNL     1       7.128  15.300  67.799  0.00  0.00    -0.263 NA
ATOM     40  C   UNL     1       8.021  14.228  67.653  0.00  0.00    +0.111 A 
ENDBRANCH   4   3
ENDBRANCH  10   9
BRANCH  12  13
ATOM     13  N   UNL     1       3.105  21.874  60.124  0.00  0.00    -0.281 N 
ATOM     14  C   UNL     1       3.568  23.155  60.378  0.00  0.00    +0.248 C 
ATOM     30  O   UNL     1       3.386  23.762  61.423  0.00  0.00    -0.270 OA
ATOM     31  H   UNL     1       3.155  21.563  59.154  0.00  0.00    +0.155 HD
BRANCH  14  15
ATOM     15  C   UNL     1       4.331  23.872  59.311  0.00  0.00    +0.037 A 
ATOM     16  C   UNL     1       3.744  25.001  58.585  0.00  0.00    +0.013 A 
ATOM     17  C   UNL     1       4.496  25.663  57.549  0.00  0.00    +0.005 A 
ATOM     18  C   UNL     1       5.845  25.198  57.233  0.00  0.00    -0.033 A 
ATOM     28  C   UNL     1       6.404  24.079  57.973  0.00  0.00    +0.005 A 
ATOM     29  C   UNL     1       5.670  23.427  58.988  0.00  0.00    +0.013 A 
BRANCH  18  19
ATOM     19  C   UNL     1       6.711  25.832  56.129  0.00  0.00    +0.119 C 
BRANCH  19  20
ATOM     20  N   UNL     1       6.131  26.990  55.385  0.00  0.00    -0.302 NA
ATOM     21  C   UNL     1       6.516  26.971  53.903  0.00  0.00    +0.066 C 
ATOM     22  C   UNL     1       5.882  28.177  53.135  0.00  0.00    -0.064 C 
ATOM     23  N   UNL     1       6.324  29.486  53.793  0.00  0.00    +0.379 N 
ATOM     24  C   UNL     1       5.777  30.623  53.039  0.00  0.00    -0.096 C 
ATOM     25  H   UNL     1       7.436  29.539  53.727  0.00  0.00    -0.082 HD
ATOM     26  C   UNL     1       5.948  29.511  55.268  0.00  0.00    -0.064 C 
ATOM     27  C   UNL     1       6.558  28.293  56.015  0.00  0.00    +0.066 C 
ENDBRANCH  19  20
ENDBRANCH  18  19
ENDBRANCH  14  15
ENDBRANCH  12  13
TORSDOF 6
ENDMDL
MODEL 2
REMARK VINA RESULT:      -8.7      1.916      2.713
REMARK  Name = C:\Users\Docking\Desktop\test protocol\1iep_ligandH.pdb
REMARK  8 active torsions:
REMARK  status: ('A' for Active; 'I' for Inactive)
REMARK    1  A    between atoms: _5  and  _11
REMARK    2  A    between atoms: _19  and  _21
REMARK    3  A    between atoms: _22  and  _66
REMARK    4  A    between atoms: _27  and  _30
REMARK    5  A    between atoms: _32  and  _33
REMARK    6  A    between atoms: _38  and  _43
REMARK    7  A    between atoms: _43  and  _46
REMARK    8  A    between atoms: _53  and  _55
REMARK                            x       y       z     vdW  Elec       q    Type
REMARK                         _______ _______ _______ _____ _____    ______ ____
ROOT
ATOM     10  C   UNL     1       2.471  19.542  62.620  0.00  0.00    +0.038 A 
ATOM     11  C   UNL     1       3.154  20.415  61.734  0.00  0.00    +0.047 A 
ATOM     12  C   UNL     1       2.444  21.126  60.683  0.00  0.00    +0.035 A 
ATOM     32  C   UNL     1       1.037  20.927  60.563  0.00  0.00    +0.024 A 
ATOM     33  C   UNL     1       0.328  20.043  61.454  0.00  0.00    +0.007 A 
ATOM     34  C   UNL     1       1.024  19.337  62.492  0.00  0.00    -0.029 A 
ATOM     35  C   UNL     1       0.213  18.396  63.414  0.00  0.00    +0.045 C 
ENDROOT
BRANCH  10   9
ATOM      4  C   UNL     1       5.054  15.822  64.209  0.00  0.00    +0.077 A 
ATOM      5  C   UNL     1       4.911  15.117  62.968  0.00  0.00    +0.048 A 
ATOM      6  C   UNL     1       4.160  15.743  61.949  0.00  0.00    +0.116 A 
ATOM      7  N   UNL     1       3.597  16.982  62.165  0.00  0.00    -0.223 NA
ATOM      8  C   UNL     1       3.753  17.634  63.375  0.00  0.00    +0.220 A 
ATOM      9  N   UNL     1       3.203  18.885  63.611  0.00  0.00    -0.283 N 
ATOM     36  H   UNL     1       3.334  19.329  64.520  0.00  0.00    +0.155 HD
ATOM     37  N   UNL     1       4.465  17.057  64.365  0.00  0.00    -0.214 NA
BRANCH   4   3
ATOM      1  C   UNL     1       6.943  13.432  66.664  0.00  0.00    +0.020 A 
ATOM      2  C   UNL     1       6.201  13.892  65.512  0.00  0.00    +0.013 A 
ATOM      3  C   UNL     1       5.822  15.293  65.381  0.00  0.00    +0.019 A 
ATOM     38  C   UNL     1       6.212  16.211  66.440  0.00  0.00    +0.120 A 
ATOM     39  N   UNL     1       6.925  15.739  67.538  0.00  0.00    -0.263 NA
ATOM     40  C   UNL     1       7.294  14.393  67.676  0.00  0.00    +0.111 A 
ENDBRANCH   4   3
ENDBRANCH  10   9
BRANCH  12  13
ATOM     13  N   UNL     1       3.085  22.019  59.749  0.00  0.00    -0.281 N 
ATOM     14  C   UNL     1       3.541  23.307  59.978  0.00  0.00    +0.248 C 
ATOM     30  O   UNL     1       3.273  23.969  60.970  0.00  0.00    -0.270 OA
ATOM     31  H   UNL     1       3.218  21.658  58.805  0.00  0.00    +0.155 HD
BRANCH  14  15
ATOM     15  C   UNL     1       4.408  23.959  58.951  0.00  0.00    +0.037 A 
ATOM     16  C   UNL     1       3.959  25.148  58.222  0.00  0.00    +0.013 A 
ATOM     17  C   UNL     1       4.809  25.748  57.223  0.00  0.00    +0.005 A 
ATOM     18  C   UNL     1       6.118  25.159  56.950  0.00  0.00    -0.033 A 
ATOM     28  C   UNL     1       6.540  23.983  57.692  0.00  0.00    +0.005 A 
ATOM     29  C   UNL     1       5.710  23.392  58.670  0.00  0.00    +0.013 A 
BRANCH  18  19
ATOM     19  C   UNL     1       7.081  25.720  55.887  0.00  0.00    +0.119 C 
BRANCH  19  20
ATOM     20  N   UNL     1       7.996  24.750  55.213  0.00  0.00    -0.302 NA
ATOM     21  C   UNL     1       9.446  24.911  55.677  0.00  0.00    +0.066 C 
ATOM     22  C   UNL     1      10.385  23.874  54.979  0.00  0.00    -0.064 C 
ATOM     23  N   UNL     1      10.281  24.036  53.462  0.00  0.00    +0.379 N 
ATOM     24  C   UNL     1      11.206  23.101  52.804  0.00  0.00    -0.096 C 
ATOM     25  H   UNL     1      10.609  25.071  53.209  0.00  0.00    -0.082 HD
ATOM     26  C   UNL     1       8.841  23.880  52.992  0.00  0.00    -0.064 C 
ATOM     27  C   UNL     1       7.912  24.895  53.714  0.00  0.00    +0.066 C 
ENDBRANCH  19  20
ENDBRANCH  18  19
ENDBRANCH  14  15
ENDBRANCH  12  13
TORSDOF 6
ENDMDL
MODEL 3
REMARK VINA RESULT:      -8.7     11.039     14.841
REMARK  Name = C:\Users\Docking\Desktop\test protocol\1iep_ligandH.pdb
REMARK  8 active torsions:
REMARK  status: ('A' for Active; 'I' for Inactive)
REMARK    1  A    between atoms: _5  and  _11
REMARK    2  A    between atoms: _19  and  _21
REMARK    3  A    between atoms: _22  and  _66
REMARK    4  A    between atoms: _27  and  _30
REMARK    5  A    between atoms: _32  and  _33
REMARK    6  A    between atoms: _38  and  _43
REMARK    7  A    between atoms: _43  and  _46
REMARK    8  A    between atoms: _53  and  _55
REMARK                            x       y       z     vdW  Elec       q    Type
REMARK                         _______ _______ _______ _____ _____    ______ ____
ROOT
ATOM     10  C   UNL     1      11.446  26.127  53.035  0.00  0.00    +0.038 A 
ATOM     11  C   UNL     1      12.332  27.042  52.412  0.00  0.00    +0.047 A 
ATOM     12  C   UNL     1      11.887  28.370  52.016  0.00  0.00    +0.035 A 
ATOM     32  C   UNL     1      10.533  28.733  52.273  0.00  0.00    +0.024 A 
ATOM     33  C   UNL     1       9.618  27.814  52.905  0.00  0.00    +0.007 A 
ATOM     34  C   UNL     1      10.051  26.503  53.295  0.00  0.00    -0.029 A 
ATOM     35  C   UNL     1       9.025  25.557  53.962  0.00  0.00    +0.045 C 
ENDROOT
BRANCH  10   9
ATOM      4  C   UNL     1      12.358  21.514  52.073  0.00  0.00    +0.077 A 
ATOM      5  C   UNL     1      11.807  21.619  50.753  0.00  0.00    +0.048 A 
ATOM      6  C   UNL     1      11.292  22.876  50.363  0.00  0.00    +0.116 A 
ATOM      7  N   UNL     1      11.332  23.941  51.235  0.00  0.00    -0.223 NA
ATOM      8  C   UNL     1      11.869  23.805  52.502  0.00  0.00    +0.220 A 
ATOM      9  N   UNL     1      11.926  24.866  53.394  0.00  0.00    -0.283 N 
ATOM     36  H   UNL     1      12.323  24.723  54.322  0.00  0.00    +0.155 HD
ATOM     37  N   UNL     1      12.366  22.615  52.900  0.00  0.00    -0.214 NA
BRANCH   4   3
ATOM      1  C   UNL     1      14.891  18.817  53.343  0.00  0.00    +0.020 A 
ATOM      2  C   UNL     1      14.377  20.053  52.799  0.00  0.00    +0.013 A 
ATOM      3  C   UNL     1      12.944  20.254  52.630  0.00  0.00    +0.019 A 
ATOM     38  C   UNL     1      12.050  19.175  53.024  0.00  0.00    +0.120 A 
ATOM     39  N   UNL     1      12.573  17.995  53.543  0.00  0.00    -0.263 NA
ATOM     40  C   UNL     1      13.951  17.790  53.709  0.00  0.00    +0.111 A 
ENDBRANCH   4   3
ENDBRANCH  10   9
BRANCH  12  13
ATOM     13  N   UNL     1      12.739  29.338  51.372  0.00  0.00    -0.281 N 
ATOM     14  C   UNL     1      13.138  29.374  50.046  0.00  0.00    +0.248 C 
ATOM     30  O   UNL     1      12.994  28.452  49.256  0.00  0.00    -0.270 OA
ATOM     31  H   UNL     1      13.091  30.089  51.966  0.00  0.00    +0.155 HD
BRANCH  14  15
ATOM     15  C   UNL     1      13.807  30.605  49.526  0.00  0.00    +0.037 A 
ATOM     16  C   UNL     1      14.737  30.545  48.396  0.00  0.00    +0.013 A 
ATOM     17  C   UNL     1      15.381  31.746  47.925  0.00  0.00    +0.005 A 
ATOM     18  C   UNL     1      15.095  33.018  48.584  0.00  0.00    -0.033 A 
ATOM     28  C   UNL     1      14.164  33.049  49.700  0.00  0.00    +0.005 A 
ATOM     29  C   UNL     1      13.532  31.875  50.165  0.00  0.00    +0.013 A 
BRANCH  18  19
ATOM     19  C   UNL     1      15.753  34.345  48.162  0.00  0.00    +0.119 C 
BRANCH  19  20
ATOM     20  N   UNL     1      14.973  35.236  47.252  0.00  0.00    -0.302 NA
ATOM     21  C   UNL     1      13.956  36.088  48.017  0.00  0.00    +0.066 C 
ATOM     22  C   UNL     1      13.164  37.030  47.053  0.00  0.00    -0.064 C 
ATOM     23  N   UNL     1      12.469  36.191  45.980  0.00  0.00    +0.379 N 
ATOM     24  C   UNL     1      11.677  37.068  45.106  0.00  0.00    -0.096 C 
ATOM     25  H   UNL     1      11.763  35.500  46.496  0.00  0.00    -0.082 HD
ATOM     26  C   UNL     1      13.473  35.338  45.216  0.00  0.00    -0.064 C 
ATOM     27  C   UNL     1      14.275  34.427  46.187  0.00  0.00    +0.066 C 
ENDBRANCH  19  20
ENDBRANCH  18  19
ENDBRANCH  14  15
ENDBRANCH  12  13
TORSDOF 6
ENDMDL
MODEL 4
REMARK VINA RESULT:      -8.6      5.210     12.975
REMARK  Name = C:\Users\Docking\Desktop\test protocol\1iep_ligandH.pdb
REMARK  8 active torsions:
REMARK  status: ('A' for Active; 'I' for Inactive)
REMARK    1  A    between atoms: _5  and  _11
REMARK    2  A    between atoms: _19  and  _21
REMARK    3  A    between atoms: _22  and  _66
REMARK    4  A    between atoms: _27  and  _30
REMARK    5  A    between atoms: _32  and  _33
REMARK    6  A    between atoms: _38  and  _43
REMARK    7  A    between atoms: _43  and  _46
REMARK    8  A    between atoms: _53  and  _55
REMARK                            x       y       z     vdW  Elec       q    Type
REMARK                         _______ _______ _______ _____ _____    ______ ____
ROOT
ATOM     10  C   UNL     1       5.727  23.291  58.249  0.00  0.00    +0.038 A 
ATOM     11  C   UNL     1       5.470  23.686  59.586  0.00  0.00    +0.047 A 
ATOM     12  C   UNL     1       4.494  22.983  60.404  0.00  0.00    +0.035 A 
ATOM     32  C   UNL     1       3.800  21.879  59.828  0.00  0.00    +0.024 A 
ATOM     33  C   UNL     1       4.048  21.465  58.469  0.00  0.00    +0.007 A 
ATOM     34  C   UNL     1       5.008  22.157  57.657  0.00  0.00    -0.029 A 
ATOM     35  C   UNL     1       5.229  21.673  56.205  0.00  0.00    +0.045 C 
ENDROOT
BRANCH  10   9
ATOM      4  C   UNL     1       7.077  27.076  55.624  0.00  0.00    +0.077 A 
ATOM      5  C   UNL     1       5.777  27.675  55.710  0.00  0.00    +0.048 A 
ATOM      6  C   UNL     1       4.786  26.973  56.434  0.00  0.00    +0.116 A 
ATOM      7  N   UNL     1       5.086  25.764  57.023  0.00  0.00    -0.223 NA
ATOM      8  C   UNL     1       6.350  25.213  56.918  0.00  0.00    +0.220 A 
ATOM      9  N   UNL     1       6.675  24.002  57.509  0.00  0.00    -0.283 N 
ATOM     36  H   UNL     1       7.617  23.626  57.402  0.00  0.00    +0.155 HD
ATOM     37  N   UNL     1       7.312  25.863  56.231  0.00  0.00    -0.214 NA
BRANCH   4   3
ATOM      1  C   UNL     1       9.850  29.582  54.471  0.00  0.00    +0.020 A 
ATOM      2  C   UNL     1       8.734  29.029  55.203  0.00  0.00    +0.013 A 
ATOM      3  C   UNL     1       8.230  27.697  54.897  0.00  0.00    +0.019 A 
ATOM     38  C   UNL     1       8.883  26.943  53.837  0.00  0.00    +0.120 A 
ATOM     39  N   UNL     1       9.955  27.502  53.148  0.00  0.00    -0.263 NA
ATOM     40  C   UNL     1      10.448  28.785  53.433  0.00  0.00    +0.111 A 
ENDBRANCH   4   3
ENDBRANCH  10   9
BRANCH  12  13
ATOM     13  N   UNL     1       4.185  23.343  61.766  0.00  0.00    -0.281 N 
ATOM     14  C   UNL     1       3.053  23.984  62.241  0.00  0.00    +0.248 C 
ATOM     30  O   UNL     1       2.225  24.539  61.534  0.00  0.00    -0.270 OA
ATOM     31  H   UNL     1       4.886  23.095  62.464  0.00  0.00    +0.155 HD
BRANCH  14  15
ATOM     15  C   UNL     1       2.813  24.028  63.715  0.00  0.00    +0.037 A 
ATOM     16  C   UNL     1       3.734  24.727  64.615  0.00  0.00    +0.013 A 
ATOM     17  C   UNL     1       3.488  24.740  66.035  0.00  0.00    +0.005 A 
ATOM     18  C   UNL     1       2.314  24.050  66.565  0.00  0.00    -0.033 A 
ATOM     28  C   UNL     1       1.414  23.369  65.649  0.00  0.00    +0.005 A 
ATOM     29  C   UNL     1       1.652  23.354  64.257  0.00  0.00    +0.013 A 
BRANCH  18  19
ATOM     19  C   UNL     1       1.984  23.994  68.068  0.00  0.00    +0.119 C 
BRANCH  19  20
ATOM     20  N   UNL     1       2.101  22.667  68.744  0.00  0.00    -0.302 NA
ATOM     21  C   UNL     1       0.731  22.050  69.040  0.00  0.00    +0.066 C 
ATOM     22  C   UNL     1       0.873  20.653  69.727  0.00  0.00    -0.064 C 
ATOM     23  N   UNL     1       1.690  20.800  71.012  0.00  0.00    +0.379 N 
ATOM     24  C   UNL     1       1.775  19.498  71.690  0.00  0.00    -0.096 C 
ATOM     25  H   UNL     1       1.138  21.497  71.685  0.00  0.00    -0.082 HD
ATOM     26  C   UNL     1       3.052  21.415  70.727  0.00  0.00    -0.064 C 
ATOM     27  C   UNL     1       2.901  22.789  70.018  0.00  0.00    +0.066 C 
ENDBRANCH  19  20
ENDBRANCH  18  19
ENDBRANCH  14  15
ENDBRANCH  12  13
TORSDOF 6
ENDMDL
MODEL 5
REMARK VINA RESULT:      -8.5      9.423     10.749
REMARK  Name = C:\Users\Docking\Desktop\test protocol\1iep_ligandH.pdb
REMARK  8 active torsions:
REMARK  status: ('A' for Active; 'I' for Inactive)
REMARK    1  A    between atoms: _5  and  _11
REMARK    2  A    between atoms: _19  and  _21
REMARK    3  A    between atoms: _22  and  _66
REMARK    4  A    between atoms: _27  and  _30
REMARK    5  A    between atoms: _32  and  _33
REMARK    6  A    between atoms: _38  and  _43
REMARK    7  A    between atoms: _43  and  _46
REMARK    8  A    between atoms: _53  and  _55
REMARK                            x       y       z     vdW  Elec       q    Type
REMARK                         _______ _______ _______ _____ _____    ______ ____
ROOT
ATOM     10  C   UNL     1       2.823  24.663  67.739  0.00  0.00    +0.038 A 
ATOM     11  C   UNL     1       3.411  25.914  67.420  0.00  0.00    +0.047 A 
ATOM     12  C   UNL     1       3.836  26.222  66.064  0.00  0.00    +0.035 A 
ATOM     32  C   UNL     1       3.647  25.232  65.055  0.00  0.00    +0.024 A 
ATOM     33  C   UNL     1       3.052  23.955  65.362  0.00  0.00    +0.007 A 
ATOM     34  C   UNL     1       2.633  23.645  66.699  0.00  0.00    -0.029 A 
ATOM     35  C   UNL     1       2.007  22.257  66.972  0.00  0.00    +0.045 C 
ENDROOT
BRANCH  10   9
ATOM      4  C   UNL     1      -0.349  24.932  71.331  0.00  0.00    +0.077 A 
ATOM      5  C   UNL     1      -1.298  25.638  70.519  0.00  0.00    +0.048 A 
ATOM      6  C   UNL     1      -0.928  25.918  69.184  0.00  0.00    +0.116 A 
ATOM      7  N   UNL     1       0.302  25.518  68.708  0.00  0.00    -0.223 NA
ATOM      8  C   UNL     1       1.194  24.840  69.518  0.00  0.00    +0.220 A 
ATOM      9  N   UNL     1       2.433  24.421  69.058  0.00  0.00    -0.283 N 
ATOM     36  H   UNL     1       3.066  23.931  69.689  0.00  0.00    +0.155 HD
ATOM     37  N   UNL     1       0.865  24.562  70.797  0.00  0.00    -0.214 NA
BRANCH   4   3
ATOM      1  C   UNL     1      -0.297  23.051  74.760  0.00  0.00    +0.020 A 
ATOM      2  C   UNL     1      -0.029  23.365  73.376  0.00  0.00    +0.013 A 
ATOM      3  C   UNL     1      -0.595  24.559  72.760  0.00  0.00    +0.019 A 
ATOM     38  C   UNL     1      -1.433  25.421  73.579  0.00  0.00    +0.120 A 
ATOM     39  N   UNL     1      -1.675  25.093  74.909  0.00  0.00    -0.263 NA
ATOM     40  C   UNL     1      -1.138  23.945  75.512  0.00  0.00    +0.111 A 
ENDBRANCH   4   3
ENDBRANCH  10   9
BRANCH  12  13
ATOM     13  N   UNL     1       4.446  27.471  65.682  0.00  0.00    -0.281 N 
ATOM     14  C   UNL     1       4.269  28.717  66.261  0.00  0.00    +0.248 C 
ATOM     30  O   UNL     1       3.390  28.986  67.066  0.00  0.00    -0.270 OA
ATOM     31  H   UNL     1       5.086  27.433  64.888  0.00  0.00    +0.155 HD
BRANCH  14  15
ATOM     15  C   UNL     1       5.193  29.829  65.880  0.00  0.00    +0.037 A 
ATOM     16  C   UNL     1       6.293  29.613  64.937  0.00  0.00    +0.013 A 
ATOM     17  C   UNL     1       7.180  30.698  64.600  0.00  0.00    +0.005 A 
ATOM     18  C   UNL     1       6.969  32.010  65.205  0.00  0.00    -0.033 A 
ATOM     28  C   UNL     1       5.866  32.198  66.134  0.00  0.00    +0.005 A 
ATOM     29  C   UNL     1       4.995  31.136  66.468  0.00  0.00    +0.013 A 
BRANCH  18  19
ATOM     19  C   UNL     1       7.878  33.219  64.919  0.00  0.00    +0.119 C 
BRANCH  19  20
ATOM     20  N   UNL     1       7.511  34.094  63.766  0.00  0.00    -0.302 NA
ATOM     21  C   UNL     1       8.107  33.590  62.449  0.00  0.00    +0.066 C 
ATOM     22  C   UNL     1       7.694  34.504  61.250  0.00  0.00    -0.064 C 
ATOM     23  N   UNL     1       8.138  35.940  61.531  0.00  0.00    +0.379 N 
ATOM     24  C   UNL     1       7.803  36.791  60.380  0.00  0.00    -0.096 C 
ATOM     25  H   UNL     1       9.248  35.936  61.636  0.00  0.00    -0.082 HD
ATOM     26  C   UNL     1       7.552  36.449  62.840  0.00  0.00    -0.064 C 
ATOM     27  C   UNL     1       7.944  35.517  64.020  0.00  0.00    +0.066 C 
ENDBRANCH  19  20
ENDBRANCH  18  19
ENDBRANCH  14  15
ENDBRANCH  12  13
TORSDOF 6
ENDMDL
