MODEL 1
REMARK VINA RESULT:     -10.5      0.000      0.000
REMARK  Name = C:\Users\Docking\Desktop\test protocol\1iep_ligandH.pdb
REMARK  8 active torsions:
REMARK  status: ('A' for Active; 'I' for Inactive)
REMARK    1  A    between atoms: _5  and  _11
REMARK    2  A    between atoms: _19  and  _21
REMARK    3  A    between atoms: _22  and  _66
REMARK    4  A    between atoms: _27  and  _30
REMARK    5  A    between atoms: _32  and  _33
REMARK    6  A    between atoms: _38  and  _43
REMARK    7  A    between atoms: _43  and  _46
REMARK    8  A    between atoms: _53  and  _55
REMARK                            x       y       z     vdW  Elec       q    Type
REMARK                         _______ _______ _______ _____ _____    ______ ____
ROOT
ATOM     10  C   UNL     1       9.693  39.162  62.670  0.00  0.00    +0.038 A 
ATOM     11  C   UNL     1       9.410  39.551  61.336  0.00  0.00    +0.047 A 
ATOM     12  C   UNL     1       9.483  40.945  60.927  0.00  0.00    +0.035 A 
ATOM     32  C   UNL     1       9.852  41.917  61.903  0.00  0.00    +0.024 A 
ATOM     33  C   UNL     1      10.142  41.539  63.263  0.00  0.00    +0.007 A 
ATOM     34  C   UNL     1      10.068  40.166  63.673  0.00  0.00    -0.029 A 
ATOM     35  C   UNL     1      10.384  39.819  65.147  0.00  0.00    +0.045 C 
ENDROOT
BRANCH  10   9
ATOM      4  C   UNL     1       7.173  35.196  63.647  0.00  0.00    +0.077 A 
ATOM      5  C   UNL     1       5.922  35.882  63.498  0.00  0.00    +0.048 A 
ATOM      6  C   UNL     1       5.971  37.258  63.177  0.00  0.00    +0.116 A 
ATOM      7  N   UNL     1       7.186  37.888  63.018  0.00  0.00    -0.223 NA
ATOM      8  C   UNL     1       8.373  37.197  63.170  0.00  0.00    +0.220 A 
ATOM      9  N   UNL     1       9.607  37.809  63.008  0.00  0.00    -0.283 N 
ATOM     36  H   UNL     1      10.460  37.266  63.136  0.00  0.00    +0.155 HD
ATOM     37  N   UNL     1       8.354  35.884  63.478  0.00  0.00    -0.214 NA
BRANCH   4   3
ATOM      1  C   UNL     1       7.959  31.841  65.499  0.00  0.00    +0.020 A 
ATOM      2  C   UNL     1       7.874  33.257  65.224  0.00  0.00    +0.013 A 
ATOM      3  C   UNL     1       7.286  33.741  63.982  0.00  0.00    +0.019 A 
ATOM     38  C   UNL     1       6.787  32.758  63.031  0.00  0.00    +0.120 A 
ATOM     39  N   UNL     1       6.883  31.401  63.323  0.00  0.00    -0.263 NA
ATOM     40  C   UNL     1       7.449  30.924  64.514  0.00  0.00    +0.111 A 
ENDBRANCH   4   3
ENDBRANCH  10   9
BRANCH  12  13
ATOM     13  N   UNL     1       9.199  41.401  59.589  0.00  0.00    -0.281 N 
ATOM     14  C   UNL     1      10.100  41.810  58.619  0.00  0.00    +0.248 C 
ATOM     30  O   UNL     1      11.280  42.050  58.829  0.00  0.00    -0.270 OA
ATOM     31  H   UNL     1       8.214  41.425  59.324  0.00  0.00    +0.155 HD
BRANCH  14  15
ATOM     15  C   UNL     1       9.617  41.993  57.217  0.00  0.00    +0.037 A 
ATOM     16  C   UNL     1       9.917  43.213  56.463  0.00  0.00    +0.013 A 
ATOM     17  C   UNL     1       9.425  43.371  55.117  0.00  0.00    +0.005 A 
ATOM     18  C   UNL     1       8.628  42.305  54.516  0.00  0.00    -0.033 A 
ATOM     28  C   UNL     1       8.349  41.103  55.285  0.00  0.00    +0.005 A 
ATOM     29  C   UNL     1       8.829  40.945  56.604  0.00  0.00    +0.013 A 
BRANCH  18  19
ATOM     19  C   UNL     1       8.044  42.397  53.094  0.00  0.00    +0.119 C 
BRANCH  19  20
ATOM     20  N   UNL     1       8.534  41.408  52.088  0.00  0.00    -0.302 NA
ATOM     21  C   UNL     1       9.822  41.874  51.404  0.00  0.00    +0.066 C 
ATOM     22  C   UNL     1      10.333  40.818  50.371  0.00  0.00    -0.064 C 
ATOM     23  N   UNL     1       9.237  40.547  49.338  0.00  0.00    +0.379 N 
ATOM     24  C   UNL     1       9.735  39.598  48.332  0.00  0.00    -0.096 C 
ATOM     25  H   UNL     1       9.020  41.509  48.817  0.00  0.00    -0.082 HD
ATOM     26  C   UNL     1       7.952  40.086  50.010  0.00  0.00    -0.064 C 
ATOM     27  C   UNL     1       7.469  41.130  51.055  0.00  0.00    +0.066 C 
ENDBRANCH  19  20
ENDBRANCH  18  19
ENDBRANCH  14  15
ENDBRANCH  12  13
TORSDOF 6
ENDMDL
MODEL 2
REMARK VINA RESULT:     -10.0      6.501     10.136
REMARK  Name = C:\Users\Docking\Desktop\test protocol\1iep_ligandH.pdb
REMARK  8 active torsions:
REMARK  status: ('A' for Active; 'I' for Inactive)
REMARK    1  A    between atoms: _5  and  _11
REMARK    2  A    between atoms: _19  and  _21
REMARK    3  A    between atoms: _22  and  _66
REMARK    4  A    between atoms: _27  and  _30
REMARK    5  A    between atoms: _32  and  _33
REMARK    6  A    between atoms: _38  and  _43
REMARK    7  A    between atoms: _43  and  _46
REMARK    8  A    between atoms: _53  and  _55
REMARK                            x       y       z     vdW  Elec       q    Type
REMARK                         _______ _______ _______ _____ _____    ______ ____
ROOT
ATOM     10  C   UNL     1      10.010  41.874  58.088  0.00  0.00    +0.038 A 
ATOM     11  C   UNL     1      11.287  42.229  58.592  0.00  0.00    +0.047 A 
ATOM     12  C   UNL     1      11.947  43.456  58.172  0.00  0.00    +0.035 A 
ATOM     32  C   UNL     1      11.276  44.299  57.239  0.00  0.00    +0.024 A 
ATOM     33  C   UNL     1       9.978  43.953  56.716  0.00  0.00    +0.007 A 
ATOM     34  C   UNL     1       9.323  42.743  57.125  0.00  0.00    -0.029 A 
ATOM     35  C   UNL     1       7.934  42.420  56.527  0.00  0.00    +0.045 C 
ENDROOT
BRANCH  10   9
ATOM      4  C   UNL     1       8.445  38.954  61.561  0.00  0.00    +0.077 A 
ATOM      5  C   UNL     1       8.859  39.862  62.592  0.00  0.00    +0.048 A 
ATOM      6  C   UNL     1       9.476  41.066  62.187  0.00  0.00    +0.116 A 
ATOM      7  N   UNL     1       9.661  41.332  60.848  0.00  0.00    -0.223 NA
ATOM      8  C   UNL     1       9.253  40.435  59.879  0.00  0.00    +0.220 A 
ATOM      9  N   UNL     1       9.422  40.686  58.526  0.00  0.00    -0.283 N 
ATOM     36  H   UNL     1       9.113  39.994  57.843  0.00  0.00    +0.155 HD
ATOM     37  N   UNL     1       8.662  39.277  60.240  0.00  0.00    -0.214 NA
BRANCH   4   3
ATOM      1  C   UNL     1       7.164  35.275  61.209  0.00  0.00    +0.020 A 
ATOM      2  C   UNL     1       7.828  36.521  60.901  0.00  0.00    +0.013 A 
ATOM      3  C   UNL     1       7.775  37.642  61.830  0.00  0.00    +0.019 A 
ATOM     38  C   UNL     1       7.038  37.469  63.073  0.00  0.00    +0.120 A 
ATOM     39  N   UNL     1       6.408  36.258  63.341  0.00  0.00    -0.263 NA
ATOM     40  C   UNL     1       6.449  35.172  62.454  0.00  0.00    +0.111 A 
ENDBRANCH   4   3
ENDBRANCH  10   9
BRANCH  12  13
ATOM     13  N   UNL     1      13.247  43.864  58.644  0.00  0.00    -0.281 N 
ATOM     14  C   UNL     1      13.840  43.578  59.863  0.00  0.00    +0.248 C 
ATOM     30  O   UNL     1      13.252  43.103  60.822  0.00  0.00    -0.270 OA
ATOM     31  H   UNL     1      13.798  44.433  58.000  0.00  0.00    +0.155 HD
BRANCH  14  15
ATOM     15  C   UNL     1      15.293  43.876  60.047  0.00  0.00    +0.037 A 
ATOM     16  C   UNL     1      16.015  44.744  59.113  0.00  0.00    +0.013 A 
ATOM     17  C   UNL     1      17.420  45.002  59.304  0.00  0.00    +0.005 A 
ATOM     18  C   UNL     1      18.113  44.390  60.436  0.00  0.00    -0.033 A 
ATOM     28  C   UNL     1      17.371  43.537  61.350  0.00  0.00    +0.005 A 
ATOM     29  C   UNL     1      15.994  43.282  61.165  0.00  0.00    +0.013 A 
BRANCH  18  19
ATOM     19  C   UNL     1      19.616  44.593  60.705  0.00  0.00    +0.119 C 
BRANCH  19  20
ATOM     20  N   UNL     1      20.031  44.835  62.119  0.00  0.00    -0.302 NA
ATOM     21  C   UNL     1      20.727  46.189  62.290  0.00  0.00    +0.066 C 
ATOM     22  C   UNL     1      21.134  46.436  63.779  0.00  0.00    -0.064 C 
ATOM     23  N   UNL     1      22.039  45.298  64.253  0.00  0.00    +0.379 N 
ATOM     24  C   UNL     1      22.470  45.557  65.634  0.00  0.00    -0.096 C 
ATOM     25  H   UNL     1      22.949  45.299  63.608  0.00  0.00    -0.082 HD
ATOM     26  C   UNL     1      21.356  43.948  64.084  0.00  0.00    -0.064 C 
ATOM     27  C   UNL     1      20.929  43.725  62.606  0.00  0.00    +0.066 C 
ENDBRANCH  19  20
ENDBRANCH  18  19
ENDBRANCH  14  15
ENDBRANCH  12  13
TORSDOF 6
ENDMDL
MODEL 3
REMARK VINA RESULT:      -9.3      6.693      9.844
REMARK  Name = C:\Users\Docking\Desktop\test protocol\1iep_ligandH.pdb
REMARK  8 active torsions:
REMARK  status: ('A' for Active; 'I' for Inactive)
REMARK    1  A    between atoms: _5  and  _11
REMARK    2  A    between atoms: _19  and  _21
REMARK    3  A    between atoms: _22  and  _66
REMARK    4  A    between atoms: _27  and  _30
REMARK    5  A    between atoms: _32  and  _33
REMARK    6  A    between atoms: _38  and  _43
REMARK    7  A    between atoms: _43  and  _46
REMARK    8  A    between atoms: _53  and  _55
REMARK                            x       y       z     vdW  Elec       q    Type
REMARK                         _______ _______ _______ _____ _____    ______ ____
ROOT
ATOM     10  C   UNL     1       9.979  41.825  58.175  0.00  0.00    +0.038 A 
ATOM     11  C   UNL     1      11.258  42.136  58.706  0.00  0.00    +0.047 A 
ATOM     12  C   UNL     1      11.965  43.343  58.308  0.00  0.00    +0.035 A 
ATOM     32  C   UNL     1      11.340  44.213  57.368  0.00  0.00    +0.024 A 
ATOM     33  C   UNL     1      10.041  43.913  56.818  0.00  0.00    +0.007 A 
ATOM     34  C   UNL     1       9.340  42.722  57.205  0.00  0.00    -0.029 A 
ATOM     35  C   UNL     1       7.953  42.447  56.578  0.00  0.00    +0.045 C 
ENDROOT
BRANCH  10   9
ATOM      4  C   UNL     1       8.332  38.894  61.600  0.00  0.00    +0.077 A 
ATOM      5  C   UNL     1       8.798  39.758  62.646  0.00  0.00    +0.048 A 
ATOM      6  C   UNL     1       9.463  40.943  62.261  0.00  0.00    +0.116 A 
ATOM      7  N   UNL     1       9.643  41.233  60.926  0.00  0.00    -0.223 NA
ATOM      8  C   UNL     1       9.183  40.378  59.942  0.00  0.00    +0.220 A 
ATOM      9  N   UNL     1       9.345  40.653  58.593  0.00  0.00    -0.283 N 
ATOM     36  H   UNL     1       8.998  39.993  57.898  0.00  0.00    +0.155 HD
ATOM     37  N   UNL     1       8.546  39.238  60.284  0.00  0.00    -0.214 NA
BRANCH   4   3
ATOM      1  C   UNL     1       6.119  36.108  63.226  0.00  0.00    +0.020 A 
ATOM      2  C   UNL     1       6.798  37.369  63.035  0.00  0.00    +0.013 A 
ATOM      3  C   UNL     1       7.609  37.606  61.848  0.00  0.00    +0.019 A 
ATOM     38  C   UNL     1       7.713  36.539  60.864  0.00  0.00    +0.120 A 
ATOM     39  N   UNL     1       7.049  35.334  61.076  0.00  0.00    -0.263 NA
ATOM     40  C   UNL     1       6.267  35.094  62.215  0.00  0.00    +0.111 A 
ENDBRANCH   4   3
ENDBRANCH  10   9
BRANCH  12  13
ATOM     13  N   UNL     1      13.268  43.706  58.807  0.00  0.00    -0.281 N 
ATOM     14  C   UNL     1      13.804  43.445  60.057  0.00  0.00    +0.248 C 
ATOM     30  O   UNL     1      13.161  43.044  61.015  0.00  0.00    -0.270 OA
ATOM     31  H   UNL     1      13.868  44.217  58.159  0.00  0.00    +0.155 HD
BRANCH  14  15
ATOM     15  C   UNL     1      15.264  43.678  60.279  0.00  0.00    +0.037 A 
ATOM     16  C   UNL     1      15.921  43.253  61.518  0.00  0.00    +0.013 A 
ATOM     17  C   UNL     1      17.327  43.505  61.714  0.00  0.00    +0.005 A 
ATOM     18  C   UNL     1      18.086  44.184  60.667  0.00  0.00    -0.033 A 
ATOM     28  C   UNL     1      17.410  44.591  59.446  0.00  0.00    +0.005 A 
ATOM     29  C   UNL     1      16.032  44.346  59.251  0.00  0.00    +0.013 A 
BRANCH  18  19
ATOM     19  C   UNL     1      19.584  44.513  60.800  0.00  0.00    +0.119 C 
BRANCH  19  20
ATOM     20  N   UNL     1      19.946  45.906  61.197  0.00  0.00    -0.302 NA
ATOM     21  C   UNL     1      20.501  46.714  60.020  0.00  0.00    +0.066 C 
ATOM     22  C   UNL     1      20.853  48.176  60.448  0.00  0.00    -0.064 C 
ATOM     23  N   UNL     1      21.858  48.138  61.601  0.00  0.00    +0.379 N 
ATOM     24  C   UNL     1      22.236  49.511  61.967  0.00  0.00    -0.096 C 
ATOM     25  H   UNL     1      22.775  47.622  61.233  0.00  0.00    -0.082 HD
ATOM     26  C   UNL     1      21.316  47.335  62.774  0.00  0.00    -0.064 C 
ATOM     27  C   UNL     1      20.941  45.893  62.331  0.00  0.00    +0.066 C 
ENDBRANCH  19  20
ENDBRANCH  18  19
ENDBRANCH  14  15
ENDBRANCH  12  13
TORSDOF 6
ENDMDL
MODEL 4
REMARK VINA RESULT:      -8.9     15.280     20.223
REMARK  Name = C:\Users\Docking\Desktop\test protocol\1iep_ligandH.pdb
REMARK  8 active torsions:
REMARK  status: ('A' for Active; 'I' for Inactive)
REMARK    1  A    between atoms: _5  and  _11
REMARK    2  A    between atoms: _19  and  _21
REMARK    3  A    between atoms: _22  and  _66
REMARK    4  A    between atoms: _27  and  _30
REMARK    5  A    between atoms: _32  and  _33
REMARK    6  A    between atoms: _38  and  _43
REMARK    7  A    between atoms: _43  and  _46
REMARK    8  A    between atoms: _53  and  _55
REMARK                            x       y       z     vdW  Elec       q    Type
REMARK                         _______ _______ _______ _____ _____    ______ ____
ROOT
ATOM     10  C   UNL     1       8.246  24.304  55.111  0.00  0.00    +0.038 A 
ATOM     11  C   UNL     1       7.577  24.142  56.351  0.00  0.00    +0.047 A 
ATOM     12  C   UNL     1       6.322  24.826  56.624  0.00  0.00    +0.035 A 
ATOM     32  C   UNL     1       5.776  25.664  55.609  0.00  0.00    +0.024 A 
ATOM     33  C   UNL     1       6.443  25.841  54.343  0.00  0.00    +0.007 A 
ATOM     34  C   UNL     1       7.682  25.171  54.070  0.00  0.00    -0.029 A 
ATOM     35  C   UNL     1       8.357  25.403  52.698  0.00  0.00    +0.045 C 
ENDROOT
BRANCH  10   9
ATOM      4  C   UNL     1      10.751  20.511  53.569  0.00  0.00    +0.077 A 
ATOM      5  C   UNL     1       9.563  19.814  53.169  0.00  0.00    +0.048 A 
ATOM      6  C   UNL     1       8.327  20.464  53.384  0.00  0.00    +0.116 A 
ATOM      7  N   UNL     1       8.293  21.717  53.956  0.00  0.00    -0.223 NA
ATOM      8  C   UNL     1       9.458  22.360  54.332  0.00  0.00    +0.220 A 
ATOM      9  N   UNL     1       9.448  23.624  54.903  0.00  0.00    -0.283 N 
ATOM     36  H   UNL     1      10.329  24.062  55.173  0.00  0.00    +0.155 HD
ATOM     37  N   UNL     1      10.651  21.761  54.139  0.00  0.00    -0.214 NA
BRANCH   4   3
ATOM      1  C   UNL     1      13.815  18.080  53.496  0.00  0.00    +0.020 A 
ATOM      2  C   UNL     1      12.465  18.564  53.671  0.00  0.00    +0.013 A 
ATOM      3  C   UNL     1      12.133  19.958  53.404  0.00  0.00    +0.019 A 
ATOM     38  C   UNL     1      13.198  20.843  52.957  0.00  0.00    +0.120 A 
ATOM     39  N   UNL     1      14.489  20.349  52.799  0.00  0.00    -0.263 NA
ATOM     40  C   UNL     1      14.821  19.010  53.054  0.00  0.00    +0.111 A 
ENDBRANCH   4   3
ENDBRANCH  10   9
BRANCH  12  13
ATOM     13  N   UNL     1       5.602  24.706  57.867  0.00  0.00    -0.281 N 
ATOM     14  C   UNL     1       5.102  23.556  58.454  0.00  0.00    +0.248 C 
ATOM     30  O   UNL     1       5.012  22.475  57.891  0.00  0.00    -0.270 OA
ATOM     31  H   UNL     1       5.441  25.575  58.376  0.00  0.00    +0.155 HD
BRANCH  14  15
ATOM     15  C   UNL     1       4.618  23.618  59.867  0.00  0.00    +0.037 A 
ATOM     16  C   UNL     1       5.496  23.269  60.987  0.00  0.00    +0.013 A 
ATOM     17  C   UNL     1       5.000  23.321  62.339  0.00  0.00    +0.005 A 
ATOM     18  C   UNL     1       3.616  23.725  62.579  0.00  0.00    -0.033 A 
ATOM     28  C   UNL     1       2.769  24.071  61.450  0.00  0.00    +0.005 A 
ATOM     29  C   UNL     1       3.252  24.020  60.123  0.00  0.00    +0.013 A 
BRANCH  18  19
ATOM     19  C   UNL     1       2.996  23.789  63.987  0.00  0.00    +0.119 C 
BRANCH  19  20
ATOM     20  N   UNL     1       3.306  22.667  64.922  0.00  0.00    -0.302 NA
ATOM     21  C   UNL     1       2.646  21.355  64.485  0.00  0.00    +0.066 C 
ATOM     22  C   UNL     1       3.000  20.187  65.462  0.00  0.00    -0.064 C 
ATOM     23  N   UNL     1       2.568  20.564  66.880  0.00  0.00    +0.379 N 
ATOM     24  C   UNL     1       2.846  19.444  67.791  0.00  0.00    -0.096 C 
ATOM     25  H   UNL     1       1.465  20.723  66.866  0.00  0.00    -0.082 HD
ATOM     26  C   UNL     1       3.217  21.868  67.322  0.00  0.00    -0.064 C 
ATOM     27  C   UNL     1       2.884  23.016  66.328  0.00  0.00    +0.066 C 
ENDBRANCH  19  20
ENDBRANCH  18  19
ENDBRANCH  14  15
ENDBRANCH  12  13
TORSDOF 6
ENDMDL
MODEL 5
REMARK VINA RESULT:      -8.7     12.712     19.205
REMARK  Name = C:\Users\Docking\Desktop\test protocol\1iep_ligandH.pdb
REMARK  8 active torsions:
REMARK  status: ('A' for Active; 'I' for Inactive)
REMARK    1  A    between atoms: _5  and  _11
REMARK    2  A    between atoms: _19  and  _21
REMARK    3  A    between atoms: _22  and  _66
REMARK    4  A    between atoms: _27  and  _30
REMARK    5  A    between atoms: _32  and  _33
REMARK    6  A    between atoms: _38  and  _43
REMARK    7  A    between atoms: _43  and  _46
REMARK    8  A    between atoms: _53  and  _55
REMARK                            x       y       z     vdW  Elec       q    Type
REMARK                         _______ _______ _______ _____ _____    ______ ____
ROOT
ATOM     10  C   UNL     1       5.987  23.212  57.933  0.00  0.00    +0.038 A 
ATOM     11  C   UNL     1       5.758  23.575  59.285  0.00  0.00    +0.047 A 
ATOM     12  C   UNL     1       4.770  22.879  60.094  0.00  0.00    +0.035 A 
ATOM     32  C   UNL     1       4.033  21.816  59.494  0.00  0.00    +0.024 A 
ATOM     33  C   UNL     1       4.252  21.435  58.121  0.00  0.00    +0.007 A 
ATOM     34  C   UNL     1       5.224  22.119  57.318  0.00  0.00    -0.029 A 
ATOM     35  C   UNL     1       5.412  21.673  55.849  0.00  0.00    +0.045 C 
ENDROOT
BRANCH  10   9
ATOM      4  C   UNL     1       7.414  27.009  55.368  0.00  0.00    +0.077 A 
ATOM      5  C   UNL     1       6.127  27.635  55.468  0.00  0.00    +0.048 A 
ATOM      6  C   UNL     1       5.123  26.944  56.182  0.00  0.00    +0.116 A 
ATOM      7  N   UNL     1       5.397  25.718  56.750  0.00  0.00    -0.223 NA
ATOM      8  C   UNL     1       6.649  25.142  56.633  0.00  0.00    +0.220 A 
ATOM      9  N   UNL     1       6.949  23.914  57.203  0.00  0.00    -0.283 N 
ATOM     36  H   UNL     1       7.882  23.519  57.088  0.00  0.00    +0.155 HD
ATOM     37  N   UNL     1       7.624  25.781  55.955  0.00  0.00    -0.214 NA
BRANCH   4   3
ATOM      1  C   UNL     1      10.115  29.542  54.107  0.00  0.00    +0.020 A 
ATOM      2  C   UNL     1       8.983  29.005  54.826  0.00  0.00    +0.013 A 
ATOM      3  C   UNL     1       8.578  27.616  54.648  0.00  0.00    +0.019 A 
ATOM     38  C   UNL     1       9.348  26.791  53.729  0.00  0.00    +0.120 A 
ATOM     39  N   UNL     1      10.433  27.336  53.050  0.00  0.00    -0.263 NA
ATOM     40  C   UNL     1      10.830  28.671  53.212  0.00  0.00    +0.111 A 
ENDBRANCH   4   3
ENDBRANCH  10   9
BRANCH  12  13
ATOM     13  N   UNL     1       4.489  23.208  61.470  0.00  0.00    -0.281 N 
ATOM     14  C   UNL     1       3.348  23.800  61.987  0.00  0.00    +0.248 C 
ATOM     30  O   UNL     1       2.480  24.335  61.314  0.00  0.00    -0.270 OA
ATOM     31  H   UNL     1       5.219  22.976  62.143  0.00  0.00    +0.155 HD
BRANCH  14  15
ATOM     15  C   UNL     1       3.151  23.814  63.469  0.00  0.00    +0.037 A 
ATOM     16  C   UNL     1       2.172  22.935  64.113  0.00  0.00    +0.013 A 
ATOM     17  C   UNL     1       1.989  22.980  65.542  0.00  0.00    +0.005 A 
ATOM     18  C   UNL     1       2.790  23.908  66.338  0.00  0.00    -0.033 A 
ATOM     28  C   UNL     1       3.758  24.765  65.673  0.00  0.00    +0.005 A 
ATOM     29  C   UNL     1       3.939  24.724  64.273  0.00  0.00    +0.013 A 
BRANCH  18  19
ATOM     19  C   UNL     1       2.647  24.039  67.865  0.00  0.00    +0.119 C 
BRANCH  19  20
ATOM     20  N   UNL     1       2.109  25.328  68.394  0.00  0.00    -0.302 NA
ATOM     21  C   UNL     1       2.453  25.530  69.872  0.00  0.00    +0.066 C 
ATOM     22  C   UNL     1       1.902  26.894  70.403  0.00  0.00    -0.064 C 
ATOM     23  N   UNL     1       0.389  26.948  70.187  0.00  0.00    +0.379 N 
ATOM     24  C   UNL     1      -0.140  28.205  70.737  0.00  0.00    -0.096 C 
ATOM     25  H   UNL     1      -0.065  26.109  70.762  0.00  0.00    -0.082 HD
ATOM     26  C   UNL     1       0.038  26.745  68.719  0.00  0.00    -0.064 C 
ATOM     27  C   UNL     1       0.615  25.401  68.194  0.00  0.00    +0.066 C 
ENDBRANCH  19  20
ENDBRANCH  18  19
ENDBRANCH  14  15
ENDBRANCH  12  13
TORSDOF 6
ENDMDL
