MODEL 1
REMARK VINA RESULT:      -8.1      0.000      0.000
REMARK  Name = C:\Users\Docking\Desktop\test protocol\1iep_ligandH.pdb
REMARK  8 active torsions:
REMARK  status: ('A' for Active; 'I' for Inactive)
REMARK    1  A    between atoms: _5  and  _11
REMARK    2  A    between atoms: _19  and  _21
REMARK    3  A    between atoms: _22  and  _66
REMARK    4  A    between atoms: _27  and  _30
REMARK    5  A    between atoms: _32  and  _33
REMARK    6  A    between atoms: _38  and  _43
REMARK    7  A    between atoms: _43  and  _46
REMARK    8  A    between atoms: _53  and  _55
REMARK                            x       y       z     vdW  Elec       q    Type
REMARK                         _______ _______ _______ _____ _____    ______ ____
ROOT
ATOM     10  C   UNL     1       0.173   3.174  -1.540  0.00  0.00    +0.038 A 
ATOM     11  C   UNL     1      -0.657   2.386  -0.703  0.00  0.00    +0.047 A 
ATOM     12  C   UNL     1      -1.324   1.196  -1.209  0.00  0.00    +0.035 A 
ATOM     32  C   UNL     1      -1.122   0.837  -2.573  0.00  0.00    +0.024 A 
ATOM     33  C   UNL     1      -0.283   1.628  -3.439  0.00  0.00    +0.007 A 
ATOM     34  C   UNL     1       0.376   2.803  -2.946  0.00  0.00    -0.029 A 
ATOM     35  C   UNL     1       1.259   3.617  -3.921  0.00  0.00    +0.045 C 
ENDROOT
BRANCH  10   9
ATOM      4  C   UNL     1       0.225   7.845  -0.438  0.00  0.00    +0.077 A 
ATOM      5  C   UNL     1      -1.075   8.054  -1.006  0.00  0.00    +0.048 A 
ATOM      6  C   UNL     1      -1.721   6.935  -1.579  0.00  0.00    +0.116 A 
ATOM      7  N   UNL     1      -1.102   5.704  -1.577  0.00  0.00    -0.223 NA
ATOM      8  C   UNL     1       0.153   5.537  -1.022  0.00  0.00    +0.220 A 
ATOM      9  N   UNL     1       0.790   4.305  -1.002  0.00  0.00    -0.283 N 
ATOM     36  H   UNL     1       1.719   4.225  -0.589  0.00  0.00    +0.155 HD
ATOM     37  N   UNL     1       0.791   6.590  -0.470  0.00  0.00    -0.214 NA
BRANCH   4   3
ATOM      1  C   UNL     1       1.257  11.118   1.439  0.00  0.00    +0.020 A 
ATOM      2  C   UNL     1       0.431  10.101   0.829  0.00  0.00    +0.013 A 
ATOM      3  C   UNL     1       1.033   8.928   0.207  0.00  0.00    +0.019 A 
ATOM     38  C   UNL     1       2.483   8.813   0.220  0.00  0.00    +0.120 A 
ATOM     39  N   UNL     1       3.252   9.809   0.814  0.00  0.00    -0.263 NA
ATOM     40  C   UNL     1       2.685  10.944   1.414  0.00  0.00    +0.111 A 
ENDBRANCH   4   3
ENDBRANCH  10   9
BRANCH  12  13
ATOM     13  N   UNL     1      -2.185   0.362  -0.407  0.00  0.00    -0.281 N 
ATOM     14  C   UNL     1      -2.267   0.302   0.974  0.00  0.00    +0.248 C 
ATOM     30  O   UNL     1      -1.457   0.807   1.737  0.00  0.00    -0.270 OA
ATOM     31  H   UNL     1      -2.809  -0.261  -0.921  0.00  0.00    +0.155 HD
BRANCH  14  15
ATOM     15  C   UNL     1      -3.406  -0.438   1.598  0.00  0.00    +0.037 A 
ATOM     16  C   UNL     1      -4.225   0.173   2.648  0.00  0.00    +0.013 A 
ATOM     17  C   UNL     1      -5.307  -0.569   3.245  0.00  0.00    +0.005 A 
ATOM     18  C   UNL     1      -5.577  -1.932   2.791  0.00  0.00    -0.033 A 
ATOM     28  C   UNL     1      -4.752  -2.512   1.745  0.00  0.00    +0.005 A 
ATOM     29  C   UNL     1      -3.690  -1.788   1.158  0.00  0.00    +0.013 A 
BRANCH  18  19
ATOM     19  C   UNL     1      -6.698  -2.805   3.387  0.00  0.00    +0.119 C 
BRANCH  19  20
ATOM     20  N   UNL     1      -6.739  -4.239   2.973  0.00  0.00    -0.302 NA
ATOM     21  C   UNL     1      -8.063  -4.603   2.294  0.00  0.00    +0.066 C 
ATOM     22  C   UNL     1      -8.081  -6.101   1.848  0.00  0.00    -0.064 C 
ATOM     23  N   UNL     1      -7.832  -6.996   3.064  0.00  0.00    +0.379 N 
ATOM     24  C   UNL     1      -7.906  -8.407   2.658  0.00  0.00    -0.096 C 
ATOM     25  H   UNL     1      -8.654  -6.810   3.794  0.00  0.00    -0.082 HD
ATOM     26  C   UNL     1      -6.519  -6.639   3.747  0.00  0.00    -0.064 C 
ATOM     27  C   UNL     1      -6.500  -5.141   4.159  0.00  0.00    +0.066 C 
ENDBRANCH  19  20
ENDBRANCH  18  19
ENDBRANCH  14  15
ENDBRANCH  12  13
TORSDOF 6
ENDMDL
MODEL 2
REMARK VINA RESULT:      -7.7      7.088     13.858
REMARK  Name = C:\Users\Docking\Desktop\test protocol\1iep_ligandH.pdb
REMARK  8 active torsions:
REMARK  status: ('A' for Active; 'I' for Inactive)
REMARK    1  A    between atoms: _5  and  _11
REMARK    2  A    between atoms: _19  and  _21
REMARK    3  A    between atoms: _22  and  _66
REMARK    4  A    between atoms: _27  and  _30
REMARK    5  A    between atoms: _32  and  _33
REMARK    6  A    between atoms: _38  and  _43
REMARK    7  A    between atoms: _43  and  _46
REMARK    8  A    between atoms: _53  and  _55
REMARK                            x       y       z     vdW  Elec       q    Type
REMARK                         _______ _______ _______ _____ _____    ______ ____
ROOT
ATOM     10  C   UNL     1      -9.624  -3.026  -3.423  0.00  0.00    +0.038 A 
ATOM     11  C   UNL     1      -9.360  -1.779  -4.044  0.00  0.00    +0.047 A 
ATOM     12  C   UNL     1      -9.579  -1.586  -5.469  0.00  0.00    +0.035 A 
ATOM     32  C   UNL     1     -10.072  -2.685  -6.232  0.00  0.00    +0.024 A 
ATOM     33  C   UNL     1     -10.345  -3.960  -5.617  0.00  0.00    +0.007 A 
ATOM     34  C   UNL     1     -10.128  -4.157  -4.212  0.00  0.00    -0.029 A 
ATOM     35  C   UNL     1     -10.433  -5.547  -3.607  0.00  0.00    +0.045 C 
ENDROOT
BRANCH  10   9
ATOM      4  C   UNL     1      -6.701  -3.294   0.374  0.00  0.00    +0.077 A 
ATOM      5  C   UNL     1      -5.529  -3.195  -0.447  0.00  0.00    +0.048 A 
ATOM      6  C   UNL     1      -5.721  -3.084  -1.843  0.00  0.00    +0.116 A 
ATOM      7  N   UNL     1      -6.996  -3.073  -2.367  0.00  0.00    -0.223 NA
ATOM      8  C   UNL     1      -8.105  -3.172  -1.547  0.00  0.00    +0.220 A 
ATOM      9  N   UNL     1      -9.396  -3.156  -2.052  0.00  0.00    -0.283 N 
ATOM     36  H   UNL     1     -10.188  -3.238  -1.414  0.00  0.00    +0.155 HD
ATOM     37  N   UNL     1      -7.947  -3.281  -0.211  0.00  0.00    -0.214 NA
BRANCH   4   3
ATOM      1  C   UNL     1      -6.254  -2.481   4.174  0.00  0.00    +0.020 A 
ATOM      2  C   UNL     1      -6.275  -2.313   2.739  0.00  0.00    +0.013 A 
ATOM      3  C   UNL     1      -6.661  -3.414   1.866  0.00  0.00    +0.019 A 
ATOM     38  C   UNL     1      -7.024  -4.682   2.481  0.00  0.00    +0.120 A 
ATOM     39  N   UNL     1      -6.993  -4.815   3.866  0.00  0.00    -0.263 NA
ATOM     40  C   UNL     1      -6.621  -3.763   4.716  0.00  0.00    +0.111 A 
ENDBRANCH   4   3
ENDBRANCH  10   9
BRANCH  12  13
ATOM     13  N   UNL     1      -9.320  -0.345  -6.156  0.00  0.00    -0.281 N 
ATOM     14  C   UNL     1     -10.057   0.827  -6.104  0.00  0.00    +0.248 C 
ATOM     30  O   UNL     1     -11.175   0.919  -5.621  0.00  0.00    -0.270 OA
ATOM     31  H   UNL     1      -8.494  -0.329  -6.754  0.00  0.00    +0.155 HD
BRANCH  14  15
ATOM     15  C   UNL     1      -9.472   2.074  -6.684  0.00  0.00    +0.037 A 
ATOM     16  C   UNL     1      -9.408   2.281  -8.133  0.00  0.00    +0.013 A 
ATOM     17  C   UNL     1      -8.823   3.485  -8.667  0.00  0.00    +0.005 A 
ATOM     18  C   UNL     1      -8.298   4.494  -7.749  0.00  0.00    -0.033 A 
ATOM     28  C   UNL     1      -8.379   4.265  -6.316  0.00  0.00    +0.005 A 
ATOM     29  C   UNL     1      -8.951   3.086  -5.789  0.00  0.00    +0.013 A 
BRANCH  18  19
ATOM     19  C   UNL     1      -7.638   5.799  -8.231  0.00  0.00    +0.119 C 
BRANCH  19  20
ATOM     20  N   UNL     1      -7.429   6.875  -7.216  0.00  0.00    -0.302 NA
ATOM     21  C   UNL     1      -7.982   8.223  -7.686  0.00  0.00    +0.066 C 
ATOM     22  C   UNL     1      -7.775   9.332  -6.603  0.00  0.00    -0.064 C 
ATOM     23  N   UNL     1      -6.287   9.443  -6.268  0.00  0.00    +0.379 N 
ATOM     24  C   UNL     1      -6.083  10.524  -5.293  0.00  0.00    -0.096 C 
ATOM     25  H   UNL     1      -5.750   9.726  -7.204  0.00  0.00    -0.082 HD
ATOM     26  C   UNL     1      -5.729   8.106  -5.802  0.00  0.00    -0.064 C 
ATOM     27  C   UNL     1      -5.966   7.005  -6.873  0.00  0.00    +0.066 C 
ENDBRANCH  19  20
ENDBRANCH  18  19
ENDBRANCH  14  15
ENDBRANCH  12  13
TORSDOF 6
ENDMDL
MODEL 3
REMARK VINA RESULT:      -7.5      2.732      3.745
REMARK  Name = C:\Users\Docking\Desktop\test protocol\1iep_ligandH.pdb
REMARK  8 active torsions:
REMARK  status: ('A' for Active; 'I' for Inactive)
REMARK    1  A    between atoms: _5  and  _11
REMARK    2  A    between atoms: _19  and  _21
REMARK    3  A    between atoms: _22  and  _66
REMARK    4  A    between atoms: _27  and  _30
REMARK    5  A    between atoms: _32  and  _33
REMARK    6  A    between atoms: _38  and  _43
REMARK    7  A    between atoms: _43  and  _46
REMARK    8  A    between atoms: _53  and  _55
REMARK                            x       y       z     vdW  Elec       q    Type
REMARK                         _______ _______ _______ _____ _____    ______ ____
ROOT
ATOM     10  C   UNL     1      -0.930   4.964  -1.317  0.00  0.00    +0.038 A 
ATOM     11  C   UNL     1      -1.781   3.959  -0.792  0.00  0.00    +0.047 A 
ATOM     12  C   UNL     1      -1.405   2.554  -0.841  0.00  0.00    +0.035 A 
ATOM     32  C   UNL     1      -0.154   2.210  -1.431  0.00  0.00    +0.024 A 
ATOM     33  C   UNL     1       0.722   3.219  -1.971  0.00  0.00    +0.007 A 
ATOM     34  C   UNL     1       0.356   4.606  -1.927  0.00  0.00    -0.029 A 
ATOM     35  C   UNL     1       1.332   5.645  -2.528  0.00  0.00    +0.045 C 
ENDROOT
BRANCH  10   9
ATOM      4  C   UNL     1      -3.447   8.714  -2.942  0.00  0.00    +0.077 A 
ATOM      5  C   UNL     1      -3.967   7.962  -4.047  0.00  0.00    +0.048 A 
ATOM      6  C   UNL     1      -3.557   6.615  -4.166  0.00  0.00    +0.116 A 
ATOM      7  N   UNL     1      -2.691   6.072  -3.242  0.00  0.00    -0.223 NA
ATOM      8  C   UNL     1      -2.207   6.826  -2.189  0.00  0.00    +0.220 A 
ATOM      9  N   UNL     1      -1.341   6.297  -1.243  0.00  0.00    -0.283 N 
ATOM     36  H   UNL     1      -1.000   6.888  -0.485  0.00  0.00    +0.155 HD
ATOM     37  N   UNL     1      -2.582   8.115  -2.054  0.00  0.00    -0.214 NA
BRANCH   4   3
ATOM      1  C   UNL     1      -5.402  11.981  -2.042  0.00  0.00    +0.020 A 
ATOM      2  C   UNL     1      -5.123  10.584  -2.284  0.00  0.00    +0.013 A 
ATOM      3  C   UNL     1      -3.790  10.148  -2.680  0.00  0.00    +0.019 A 
ATOM     38  C   UNL     1      -2.753  11.159  -2.823  0.00  0.00    +0.120 A 
ATOM     39  N   UNL     1      -3.051  12.497  -2.585  0.00  0.00    -0.263 NA
ATOM     40  C   UNL     1      -4.331  12.928  -2.205  0.00  0.00    +0.111 A 
ENDBRANCH   4   3
ENDBRANCH  10   9
BRANCH  12  13
ATOM     13  N   UNL     1      -2.231   1.488  -0.331  0.00  0.00    -0.281 N 
ATOM     14  C   UNL     1      -2.133   0.845   0.892  0.00  0.00    +0.248 C 
ATOM     30  O   UNL     1      -1.180   0.945   1.651  0.00  0.00    -0.270 OA
ATOM     31  H   UNL     1      -2.980   1.169  -0.946  0.00  0.00    +0.155 HD
BRANCH  14  15
ATOM     15  C   UNL     1      -3.247  -0.049   1.330  0.00  0.00    +0.037 A 
ATOM     16  C   UNL     1      -3.969  -0.888   0.370  0.00  0.00    +0.013 A 
ATOM     17  C   UNL     1      -5.052  -1.729   0.816  0.00  0.00    +0.005 A 
ATOM     18  C   UNL     1      -5.418  -1.736   2.231  0.00  0.00    -0.033 A 
ATOM     28  C   UNL     1      -4.681  -0.898   3.162  0.00  0.00    +0.005 A 
ATOM     29  C   UNL     1      -3.620  -0.071   2.728  0.00  0.00    +0.013 A 
BRANCH  18  19
ATOM     19  C   UNL     1      -6.573  -2.586   2.792  0.00  0.00    +0.119 C 
BRANCH  19  20
ATOM     20  N   UNL     1      -6.258  -3.505   3.926  0.00  0.00    -0.302 NA
ATOM     21  C   UNL     1      -6.711  -4.940   3.646  0.00  0.00    +0.066 C 
ATOM     22  C   UNL     1      -6.353  -5.892   4.834  0.00  0.00    -0.064 C 
ATOM     23  N   UNL     1      -6.993  -5.363   6.119  0.00  0.00    +0.379 N 
ATOM     24  C   UNL     1      -6.707  -6.286   7.226  0.00  0.00    -0.096 C 
ATOM     25  H   UNL     1      -8.097  -5.350   5.966  0.00  0.00    -0.082 HD
ATOM     26  C   UNL     1      -6.550  -3.935   6.403  0.00  0.00    -0.064 C 
ATOM     27  C   UNL     1      -6.883  -3.003   5.204  0.00  0.00    +0.066 C 
ENDBRANCH  19  20
ENDBRANCH  18  19
ENDBRANCH  14  15
ENDBRANCH  12  13
TORSDOF 6
ENDMDL
MODEL 4
REMARK VINA RESULT:      -7.4      8.884     15.320
REMARK  Name = C:\Users\Docking\Desktop\test protocol\1iep_ligandH.pdb
REMARK  8 active torsions:
REMARK  status: ('A' for Active; 'I' for Inactive)
REMARK    1  A    between atoms: _5  and  _11
REMARK    2  A    between atoms: _19  and  _21
REMARK    3  A    between atoms: _22  and  _66
REMARK    4  A    between atoms: _27  and  _30
REMARK    5  A    between atoms: _32  and  _33
REMARK    6  A    between atoms: _38  and  _43
REMARK    7  A    between atoms: _43  and  _46
REMARK    8  A    between atoms: _53  and  _55
REMARK                            x       y       z     vdW  Elec       q    Type
REMARK                         _______ _______ _______ _____ _____    ______ ____
ROOT
ATOM     10  C   UNL     1       5.691   9.687   2.968  0.00  0.00    +0.038 A 
ATOM     11  C   UNL     1       6.683   8.767   3.396  0.00  0.00    +0.047 A 
ATOM     12  C   UNL     1       8.007   9.219   3.793  0.00  0.00    +0.035 A 
ATOM     32  C   UNL     1       8.287  10.616   3.745  0.00  0.00    +0.024 A 
ATOM     33  C   UNL     1       7.291  11.565   3.311  0.00  0.00    +0.007 A 
ATOM     34  C   UNL     1       5.984  11.124   2.916  0.00  0.00    -0.029 A 
ATOM     35  C   UNL     1       4.957  12.185   2.454  0.00  0.00    +0.045 C 
ENDROOT
BRANCH  10   9
ATOM      4  C   UNL     1       2.622   7.929  -0.277  0.00  0.00    +0.077 A 
ATOM      5  C   UNL     1       3.592   8.018  -1.330  0.00  0.00    +0.048 A 
ATOM      6  C   UNL     1       4.867   8.528  -0.996  0.00  0.00    +0.116 A 
ATOM      7  N   UNL     1       5.140   8.917   0.297  0.00  0.00    -0.223 NA
ATOM      8  C   UNL     1       4.181   8.820   1.289  0.00  0.00    +0.220 A 
ATOM      9  N   UNL     1       4.436   9.197   2.598  0.00  0.00    -0.283 N 
ATOM     36  H   UNL     1       3.700   9.117   3.299  0.00  0.00    +0.155 HD
ATOM     37  N   UNL     1       2.956   8.337   0.995  0.00  0.00    -0.214 NA
BRANCH   4   3
ATOM      1  C   UNL     1      -1.275   7.595  -0.266  0.00  0.00    +0.020 A 
ATOM      2  C   UNL     1       0.045   8.143  -0.054  0.00  0.00    +0.013 A 
ATOM      3  C   UNL     1       1.232   7.408  -0.471  0.00  0.00    +0.019 A 
ATOM     38  C   UNL     1       1.048   6.111  -1.105  0.00  0.00    +0.120 A 
ATOM     39  N   UNL     1      -0.236   5.608  -1.294  0.00  0.00    -0.263 NA
ATOM     40  C   UNL     1      -1.385   6.305  -0.895  0.00  0.00    +0.111 A 
ENDBRANCH   4   3
ENDBRANCH  10   9
BRANCH  12  13
ATOM     13  N   UNL     1       9.057   8.332   4.228  0.00  0.00    -0.281 N 
ATOM     14  C   UNL     1       9.094   7.554   5.374  0.00  0.00    +0.248 C 
ATOM     30  O   UNL     1       8.318   7.667   6.311  0.00  0.00    -0.270 OA
ATOM     31  H   UNL     1       9.871   8.269   3.617  0.00  0.00    +0.155 HD
BRANCH  14  15
ATOM     15  C   UNL     1      10.155   6.510   5.504  0.00  0.00    +0.037 A 
ATOM     16  C   UNL     1       9.819   5.121   5.825  0.00  0.00    +0.013 A 
ATOM     17  C   UNL     1      10.864   4.137   5.961  0.00  0.00    +0.005 A 
ATOM     18  C   UNL     1      12.256   4.540   5.775  0.00  0.00    -0.033 A 
ATOM     28  C   UNL     1      12.561   5.924   5.452  0.00  0.00    +0.005 A 
ATOM     29  C   UNL     1      11.539   6.891   5.318  0.00  0.00    +0.013 A 
BRANCH  18  19
ATOM     19  C   UNL     1      13.436   3.561   5.922  0.00  0.00    +0.119 C 
BRANCH  19  20
ATOM     20  N   UNL     1      14.575   3.716   4.969  0.00  0.00    -0.302 NA
ATOM     21  C   UNL     1      14.181   3.345   3.536  0.00  0.00    +0.066 C 
ATOM     22  C   UNL     1      15.378   3.534   2.549  0.00  0.00    -0.064 C 
ATOM     23  N   UNL     1      16.563   2.690   3.020  0.00  0.00    +0.379 N 
ATOM     24  C   UNL     1      17.670   2.820   2.062  0.00  0.00    -0.096 C 
ATOM     25  H   UNL     1      16.239   1.623   3.020  0.00  0.00    -0.082 HD
ATOM     26  C   UNL     1      16.960   3.051   4.444  0.00  0.00    -0.064 C 
ATOM     27  C   UNL     1      15.756   2.887   5.413  0.00  0.00    +0.066 C 
ENDBRANCH  19  20
ENDBRANCH  18  19
ENDBRANCH  14  15
ENDBRANCH  12  13
TORSDOF 6
ENDMDL
MODEL 5
REMARK VINA RESULT:      -7.4     14.940     20.102
REMARK  Name = C:\Users\Docking\Desktop\test protocol\1iep_ligandH.pdb
REMARK  8 active torsions:
REMARK  status: ('A' for Active; 'I' for Inactive)
REMARK    1  A    between atoms: _5  and  _11
REMARK    2  A    between atoms: _19  and  _21
REMARK    3  A    between atoms: _22  and  _66
REMARK    4  A    between atoms: _27  and  _30
REMARK    5  A    between atoms: _32  and  _33
REMARK    6  A    between atoms: _38  and  _43
REMARK    7  A    between atoms: _43  and  _46
REMARK    8  A    between atoms: _53  and  _55
REMARK                            x       y       z     vdW  Elec       q    Type
REMARK                         _______ _______ _______ _____ _____    ______ ____
ROOT
ATOM     10  C   UNL     1      11.333   6.261   4.951  0.00  0.00    +0.038 A 
ATOM     11  C   UNL     1      12.592   5.624   5.096  0.00  0.00    +0.047 A 
ATOM     12  C   UNL     1      12.696   4.276   5.634  0.00  0.00    +0.035 A 
ATOM     32  C   UNL     1      11.496   3.605   6.012  0.00  0.00    +0.024 A 
ATOM     33  C   UNL     1      10.208   4.238   5.872  0.00  0.00    +0.007 A 
ATOM     34  C   UNL     1      10.100   5.569   5.344  0.00  0.00    -0.029 A 
ATOM     35  C   UNL     1       8.694   6.200   5.222  0.00  0.00    +0.045 C 
ENDROOT
BRANCH  10   9
ATOM      4  C   UNL     1      11.263  11.032   5.466  0.00  0.00    +0.077 A 
ATOM      5  C   UNL     1      11.284  10.937   6.897  0.00  0.00    +0.048 A 
ATOM      6  C   UNL     1      11.305   9.642   7.461  0.00  0.00    +0.116 A 
ATOM      7  N   UNL     1      11.305   8.532   6.645  0.00  0.00    -0.223 NA
ATOM      8  C   UNL     1      11.283   8.659   5.269  0.00  0.00    +0.220 A 
ATOM      9  N   UNL     1      11.292   7.556   4.429  0.00  0.00    -0.283 N 
ATOM     36  H   UNL     1      11.267   7.691   3.418  0.00  0.00    +0.155 HD
ATOM     37  N   UNL     1      11.262   9.885   4.705  0.00  0.00    -0.214 NA
BRANCH   4   3
ATOM      1  C   UNL     1      11.837  14.769   4.460  0.00  0.00    +0.020 A 
ATOM      2  C   UNL     1      11.885  13.540   5.220  0.00  0.00    +0.013 A 
ATOM      3  C   UNL     1      11.243  12.331   4.721  0.00  0.00    +0.019 A 
ATOM     38  C   UNL     1      10.555  12.398   3.441  0.00  0.00    +0.120 A 
ATOM     39  N   UNL     1      10.524  13.596   2.732  0.00  0.00    -0.263 NA
ATOM     40  C   UNL     1      11.137  14.766   3.203  0.00  0.00    +0.111 A 
ENDBRANCH   4   3
ENDBRANCH  10   9
BRANCH  12  13
ATOM     13  N   UNL     1      13.947   3.582   5.812  0.00  0.00    -0.281 N 
ATOM     14  C   UNL     1      14.553   2.685   4.948  0.00  0.00    +0.248 C 
ATOM     30  O   UNL     1      14.004   2.178   3.981  0.00  0.00    -0.270 OA
ATOM     31  H   UNL     1      14.446   3.775   6.681  0.00  0.00    +0.155 HD
BRANCH  14  15
ATOM     15  C   UNL     1      15.969   2.281   5.204  0.00  0.00    +0.037 A 
ATOM     16  C   UNL     1      16.297   0.960   5.746  0.00  0.00    +0.013 A 
ATOM     17  C   UNL     1      17.670   0.603   5.999  0.00  0.00    +0.005 A 
ATOM     18  C   UNL     1      18.727   1.569   5.709  0.00  0.00    -0.033 A 
ATOM     28  C   UNL     1      18.374   2.870   5.166  0.00  0.00    +0.005 A 
ATOM     29  C   UNL     1      17.029   3.224   4.918  0.00  0.00    +0.013 A 
BRANCH  18  19
ATOM     19  C   UNL     1      20.218   1.280   5.967  0.00  0.00    +0.119 C 
BRANCH  19  20
ATOM     20  N   UNL     1      20.902   2.102   7.010  0.00  0.00    -0.302 NA
ATOM     21  C   UNL     1      22.348   2.429   6.626  0.00  0.00    +0.066 C 
ATOM     22  C   UNL     1      23.042   3.308   7.716  0.00  0.00    -0.064 C 
ATOM     23  N   UNL     1      22.990   2.582   9.062  0.00  0.00    +0.379 N 
ATOM     24  C   UNL     1      23.692   3.380  10.077  0.00  0.00    -0.096 C 
ATOM     25  H   UNL     1      23.540   1.619   8.947  0.00  0.00    -0.082 HD
ATOM     26  C   UNL     1      21.556   2.251   9.450  0.00  0.00    -0.064 C 
ATOM     27  C   UNL     1      20.866   1.402   8.346  0.00  0.00    +0.066 C 
ENDBRANCH  19  20
ENDBRANCH  18  19
ENDBRANCH  14  15
ENDBRANCH  12  13
TORSDOF 6
ENDMDL
