MODEL 1
REMARK VINA RESULT:      -8.1      0.000      0.000
REMARK  Name = C:\Users\Docking\Desktop\test protocol\1iep_ligandH.pdb
REMARK  8 active torsions:
REMARK  status: ('A' for Active; 'I' for Inactive)
REMARK    1  A    between atoms: _5  and  _11
REMARK    2  A    between atoms: _19  and  _21
REMARK    3  A    between atoms: _22  and  _66
REMARK    4  A    between atoms: _27  and  _30
REMARK    5  A    between atoms: _32  and  _33
REMARK    6  A    between atoms: _38  and  _43
REMARK    7  A    between atoms: _43  and  _46
REMARK    8  A    between atoms: _53  and  _55
REMARK                            x       y       z     vdW  Elec       q    Type
REMARK                         _______ _______ _______ _____ _____    ______ ____
ROOT
ATOM     10  C   UNL     1       2.912   0.131 -27.223  0.00  0.00    +0.038 A 
ATOM     11  C   UNL     1       2.119   0.955 -26.384  0.00  0.00    +0.047 A 
ATOM     12  C   UNL     1       0.920   1.607 -26.887  0.00  0.00    +0.035 A 
ATOM     32  C   UNL     1       0.557   1.397 -28.249  0.00  0.00    +0.024 A 
ATOM     33  C   UNL     1       1.352   0.563 -29.116  0.00  0.00    +0.007 A 
ATOM     34  C   UNL     1       2.537  -0.081 -28.627  0.00  0.00    -0.029 A 
ATOM     35  C   UNL     1       3.355  -0.958 -29.603  0.00  0.00    +0.045 C 
ENDROOT
BRANCH  10   9
ATOM      4  C   UNL     1       7.577   0.157 -26.092  0.00  0.00    +0.077 A 
ATOM      5  C   UNL     1       7.762   1.471 -26.637  0.00  0.00    +0.048 A 
ATOM      6  C   UNL     1       6.634   2.103 -27.205  0.00  0.00    +0.116 A 
ATOM      7  N   UNL     1       5.415   1.459 -27.222  0.00  0.00    -0.223 NA
ATOM      8  C   UNL     1       5.271   0.191 -26.690  0.00  0.00    +0.220 A 
ATOM      9  N   UNL     1       4.054  -0.472 -26.689  0.00  0.00    -0.283 N 
ATOM     36  H   UNL     1       3.990  -1.409 -26.293  0.00  0.00    +0.155 HD
ATOM     37  N   UNL     1       6.334  -0.434 -26.143  0.00  0.00    -0.214 NA
BRANCH   4   3
ATOM      1  C   UNL     1      10.832  -0.839 -24.165  0.00  0.00    +0.020 A 
ATOM      2  C   UNL     1       9.800  -0.024 -24.765  0.00  0.00    +0.013 A 
ATOM      3  C   UNL     1       8.673  -0.639 -25.455  0.00  0.00    +0.019 A 
ATOM     38  C   UNL     1       8.619  -2.092 -25.520  0.00  0.00    +0.120 A 
ATOM     39  N   UNL     1       9.628  -2.850 -24.935  0.00  0.00    -0.263 NA
ATOM     40  C   UNL     1      10.718  -2.270 -24.270  0.00  0.00    +0.111 A 
ENDBRANCH   4   3
ENDBRANCH  10   9
BRANCH  12  13
ATOM     13  N   UNL     1       0.080   2.461 -26.084  0.00  0.00    -0.281 N 
ATOM     14  C   UNL     1       0.240   2.804 -24.752  0.00  0.00    +0.248 C 
ATOM     30  O   UNL     1       1.017   2.255 -23.985  0.00  0.00    -0.270 OA
ATOM     31  H   UNL     1      -0.731   2.861 -26.556  0.00  0.00    +0.155 HD
BRANCH  14  15
ATOM     15  C   UNL     1      -0.594   3.908 -24.185  0.00  0.00    +0.037 A 
ATOM     16  C   UNL     1      -0.444   4.334 -22.791  0.00  0.00    +0.013 A 
ATOM     17  C   UNL     1      -1.273   5.390 -22.265  0.00  0.00    +0.005 A 
ATOM     18  C   UNL     1      -2.259   6.027 -23.135  0.00  0.00    -0.033 A 
ATOM     28  C   UNL     1      -2.382   5.588 -24.515  0.00  0.00    +0.005 A 
ATOM     29  C   UNL     1      -1.572   4.553 -25.034  0.00  0.00    +0.013 A 
BRANCH  18  19
ATOM     19  C   UNL     1      -3.200   7.147 -22.652  0.00  0.00    +0.119 C 
BRANCH  19  20
ATOM     20  N   UNL     1      -4.632   6.788 -22.430  0.00  0.00    -0.302 NA
ATOM     21  C   UNL     1      -5.584   7.773 -23.115  0.00  0.00    +0.066 C 
ATOM     22  C   UNL     1      -7.078   7.369 -22.891  0.00  0.00    -0.064 C 
ATOM     23  N   UNL     1      -7.364   7.293 -21.390  0.00  0.00    +0.379 N 
ATOM     24  C   UNL     1      -8.782   6.971 -21.177  0.00  0.00    -0.096 C 
ATOM     25  H   UNL     1      -7.178   8.305 -20.959  0.00  0.00    -0.082 HD
ATOM     26  C   UNL     1      -6.420   6.318 -20.701  0.00  0.00    -0.064 C 
ATOM     27  C   UNL     1      -4.938   6.711 -20.954  0.00  0.00    +0.066 C 
ENDBRANCH  19  20
ENDBRANCH  18  19
ENDBRANCH  14  15
ENDBRANCH  12  13
TORSDOF 6
ENDMDL
MODEL 2
REMARK VINA RESULT:      -7.9      7.036     13.874
REMARK  Name = C:\Users\Docking\Desktop\test protocol\1iep_ligandH.pdb
REMARK  8 active torsions:
REMARK  status: ('A' for Active; 'I' for Inactive)
REMARK    1  A    between atoms: _5  and  _11
REMARK    2  A    between atoms: _19  and  _21
REMARK    3  A    between atoms: _22  and  _66
REMARK    4  A    between atoms: _27  and  _30
REMARK    5  A    between atoms: _32  and  _33
REMARK    6  A    between atoms: _38  and  _43
REMARK    7  A    between atoms: _43  and  _46
REMARK    8  A    between atoms: _53  and  _55
REMARK                            x       y       z     vdW  Elec       q    Type
REMARK                         _______ _______ _______ _____ _____    ______ ____
ROOT
ATOM     10  C   UNL     1      -2.783   9.683 -29.152  0.00  0.00    +0.038 A 
ATOM     11  C   UNL     1      -1.557   9.357 -29.787  0.00  0.00    +0.047 A 
ATOM     12  C   UNL     1      -1.370   9.564 -31.214  0.00  0.00    +0.035 A 
ATOM     32  C   UNL     1      -2.452  10.109 -31.965  0.00  0.00    +0.024 A 
ATOM     33  C   UNL     1      -3.705  10.446 -31.337  0.00  0.00    +0.007 A 
ATOM     34  C   UNL     1      -3.896  10.241 -29.930  0.00  0.00    -0.029 A 
ATOM     35  C   UNL     1      -5.263  10.614 -29.310  0.00  0.00    +0.045 C 
ENDROOT
BRANCH  10   9
ATOM      4  C   UNL     1      -3.303   6.788 -25.360  0.00  0.00    +0.077 A 
ATOM      5  C   UNL     1      -3.358   5.617 -26.187  0.00  0.00    +0.048 A 
ATOM      6  C   UNL     1      -3.256   5.804 -27.583  0.00  0.00    +0.116 A 
ATOM      7  N   UNL     1      -3.109   7.071 -28.103  0.00  0.00    -0.223 NA
ATOM      8  C   UNL     1      -3.062   8.180 -27.278  0.00  0.00    +0.220 A 
ATOM      9  N   UNL     1      -2.907   9.463 -27.779  0.00  0.00    -0.283 N 
ATOM     36  H   UNL     1      -2.885  10.255 -27.137  0.00  0.00    +0.155 HD
ATOM     37  N   UNL     1      -3.159   8.028 -25.941  0.00  0.00    -0.214 NA
BRANCH   4   3
ATOM      1  C   UNL     1      -2.427   6.323 -21.576  0.00  0.00    +0.020 A 
ATOM      2  C   UNL     1      -2.287   6.337 -23.014  0.00  0.00    +0.013 A 
ATOM      3  C   UNL     1      -3.394   6.754 -23.866  0.00  0.00    +0.019 A 
ATOM     38  C   UNL     1      -4.639   7.154 -23.226  0.00  0.00    +0.120 A 
ATOM     39  N   UNL     1      -4.745   7.128 -21.839  0.00  0.00    -0.263 NA
ATOM     40  C   UNL     1      -3.687   6.728 -21.009  0.00  0.00    +0.111 A 
ENDBRANCH   4   3
ENDBRANCH  10   9
BRANCH  12  13
ATOM     13  N   UNL     1      -0.151   9.244 -31.915  0.00  0.00    -0.281 N 
ATOM     14  C   UNL     1       0.916  10.083 -32.195  0.00  0.00    +0.248 C 
ATOM     30  O   UNL     1       0.890  11.298 -32.072  0.00  0.00    -0.270 OA
ATOM     31  H   UNL     1      -0.063   8.283 -32.244  0.00  0.00    +0.155 HD
BRANCH  14  15
ATOM     15  C   UNL     1       2.190   9.486 -32.699  0.00  0.00    +0.037 A 
ATOM     16  C   UNL     1       2.483   9.420 -34.133  0.00  0.00    +0.013 A 
ATOM     17  C   UNL     1       3.712   8.824 -34.594  0.00  0.00    +0.005 A 
ATOM     18  C   UNL     1       4.659   8.291 -33.617  0.00  0.00    -0.033 A 
ATOM     28  C   UNL     1       4.346   8.375 -32.200  0.00  0.00    +0.005 A 
ATOM     29  C   UNL     1       3.142   8.957 -31.746  0.00  0.00    +0.013 A 
BRANCH  18  19
ATOM     19  C   UNL     1       5.985   7.619 -34.019  0.00  0.00    +0.119 C 
BRANCH  19  20
ATOM     20  N   UNL     1       7.009   7.432 -32.948  0.00  0.00    -0.302 NA
ATOM     21  C   UNL     1       8.377   7.984 -33.358  0.00  0.00    +0.066 C 
ATOM     22  C   UNL     1       9.431   7.801 -32.217  0.00  0.00    -0.064 C 
ATOM     23  N   UNL     1       9.532   6.318 -31.854  0.00  0.00    +0.379 N 
ATOM     24  C   UNL     1      10.563   6.135 -30.823  0.00  0.00    -0.096 C 
ATOM     25  H   UNL     1       9.864   5.769 -32.766  0.00  0.00    -0.082 HD
ATOM     26  C   UNL     1       8.175   5.760 -31.448  0.00  0.00    -0.064 C 
ATOM     27  C   UNL     1       7.129   5.974 -32.577  0.00  0.00    +0.066 C 
ENDBRANCH  19  20
ENDBRANCH  18  19
ENDBRANCH  14  15
ENDBRANCH  12  13
TORSDOF 6
ENDMDL
MODEL 3
REMARK VINA RESULT:      -7.5     15.110     19.989
REMARK  Name = C:\Users\Docking\Desktop\test protocol\1iep_ligandH.pdb
REMARK  8 active torsions:
REMARK  status: ('A' for Active; 'I' for Inactive)
REMARK    1  A    between atoms: _5  and  _11
REMARK    2  A    between atoms: _19  and  _21
REMARK    3  A    between atoms: _22  and  _66
REMARK    4  A    between atoms: _27  and  _30
REMARK    5  A    between atoms: _32  and  _33
REMARK    6  A    between atoms: _38  and  _43
REMARK    7  A    between atoms: _43  and  _46
REMARK    8  A    between atoms: _53  and  _55
REMARK                            x       y       z     vdW  Elec       q    Type
REMARK                         _______ _______ _______ _____ _____    ______ ____
ROOT
ATOM     10  C   UNL     1       6.437 -10.978 -20.420  0.00  0.00    +0.038 A 
ATOM     11  C   UNL     1       5.721 -12.202 -20.386  0.00  0.00    +0.047 A 
ATOM     12  C   UNL     1       4.385 -12.276 -19.816  0.00  0.00    +0.035 A 
ATOM     32  C   UNL     1       3.807 -11.083 -19.292  0.00  0.00    +0.024 A 
ATOM     33  C   UNL     1       4.521  -9.831 -19.318  0.00  0.00    +0.007 A 
ATOM     34  C   UNL     1       5.840  -9.752 -19.876  0.00  0.00    -0.029 A 
ATOM     35  C   UNL     1       6.561  -8.384 -19.871  0.00  0.00    +0.045 C 
ENDROOT
BRANCH  10   9
ATOM      4  C   UNL     1      11.209 -11.369 -20.079  0.00  0.00    +0.077 A 
ATOM      5  C   UNL     1      11.149 -11.593 -18.664  0.00  0.00    +0.048 A 
ATOM      6  C   UNL     1       9.871 -11.594 -18.061  0.00  0.00    +0.116 A 
ATOM      7  N   UNL     1       8.744 -11.384 -18.826  0.00  0.00    -0.223 NA
ATOM      8  C   UNL     1       8.838 -11.169 -20.189  0.00  0.00    +0.220 A 
ATOM      9  N   UNL     1       7.717 -10.964 -20.979  0.00  0.00    -0.283 N 
ATOM     36  H   UNL     1       7.829 -10.801 -21.979  0.00  0.00    +0.155 HD
ATOM     37  N   UNL     1      10.047 -11.162 -20.788  0.00  0.00    -0.214 NA
BRANCH   4   3
ATOM      1  C   UNL     1      14.953 -11.791 -21.130  0.00  0.00    +0.020 A 
ATOM      2  C   UNL     1      13.749 -11.839 -20.333  0.00  0.00    +0.013 A 
ATOM      3  C   UNL     1      12.485 -11.343 -20.862  0.00  0.00    +0.019 A 
ATOM     38  C   UNL     1      12.473 -10.801 -22.212  0.00  0.00    +0.120 A 
ATOM     39  N   UNL     1      13.649 -10.766 -22.956  0.00  0.00    -0.263 NA
ATOM     40  C   UNL     1      14.871 -11.239 -22.457  0.00  0.00    +0.111 A 
ENDBRANCH   4   3
ENDBRANCH  10   9
BRANCH  12  13
ATOM     13  N   UNL     1       3.613 -13.492 -19.747  0.00  0.00    -0.281 N 
ATOM     14  C   UNL     1       2.857 -14.079 -20.748  0.00  0.00    +0.248 C 
ATOM     30  O   UNL     1       2.556 -13.532 -21.798  0.00  0.00    -0.270 OA
ATOM     31  H   UNL     1       3.626 -13.979 -18.851  0.00  0.00    +0.155 HD
BRANCH  14  15
ATOM     15  C   UNL     1       2.350 -15.471 -20.548  0.00  0.00    +0.037 A 
ATOM     16  C   UNL     1       0.945 -15.728 -20.221  0.00  0.00    +0.013 A 
ATOM     17  C   UNL     1       0.486 -17.079 -20.016  0.00  0.00    +0.005 A 
ATOM     18  C   UNL     1       1.434 -18.184 -20.140  0.00  0.00    -0.033 A 
ATOM     28  C   UNL     1       2.821 -17.901 -20.470  0.00  0.00    +0.005 A 
ATOM     29  C   UNL     1       3.275 -16.578 -20.670  0.00  0.00    +0.013 A 
BRANCH  18  19
ATOM     19  C   UNL     1       1.036 -19.655 -19.917  0.00  0.00    +0.119 C 
BRANCH  19  20
ATOM     20  N   UNL     1       1.774 -20.411 -18.861  0.00  0.00    -0.302 NA
ATOM     21  C   UNL     1       2.143 -21.825 -19.318  0.00  0.00    +0.066 C 
ATOM     22  C   UNL     1       2.934 -22.593 -18.209  0.00  0.00    -0.064 C 
ATOM     23  N   UNL     1       2.097 -22.639 -16.929  0.00  0.00    +0.379 N 
ATOM     24  C   UNL     1       2.813 -23.410 -15.902  0.00  0.00    -0.096 C 
ATOM     25  H   UNL     1       1.152 -23.181 -17.163  0.00  0.00    -0.082 HD
ATOM     26  C   UNL     1       1.723 -21.237 -16.469  0.00  0.00    -0.064 C 
ATOM     27  C   UNL     1       0.964 -20.472 -17.589  0.00  0.00    +0.066 C 
ENDBRANCH  19  20
ENDBRANCH  18  19
ENDBRANCH  14  15
ENDBRANCH  12  13
TORSDOF 6
ENDMDL
MODEL 4
REMARK VINA RESULT:      -7.4      9.185     14.062
REMARK  Name = C:\Users\Docking\Desktop\test protocol\1iep_ligandH.pdb
REMARK  8 active torsions:
REMARK  status: ('A' for Active; 'I' for Inactive)
REMARK    1  A    between atoms: _5  and  _11
REMARK    2  A    between atoms: _19  and  _21
REMARK    3  A    between atoms: _22  and  _66
REMARK    4  A    between atoms: _27  and  _30
REMARK    5  A    between atoms: _32  and  _33
REMARK    6  A    between atoms: _38  and  _43
REMARK    7  A    between atoms: _43  and  _46
REMARK    8  A    between atoms: _53  and  _55
REMARK                            x       y       z     vdW  Elec       q    Type
REMARK                         _______ _______ _______ _____ _____    ______ ____
ROOT
ATOM     10  C   UNL     1      11.419  -2.382 -23.225  0.00  0.00    +0.038 A 
ATOM     11  C   UNL     1      10.436  -3.235 -22.660  0.00  0.00    +0.047 A 
ATOM     12  C   UNL     1      10.801  -4.506 -22.055  0.00  0.00    +0.035 A 
ATOM     32  C   UNL     1      12.177  -4.877 -22.040  0.00  0.00    +0.024 A 
ATOM     33  C   UNL     1      13.189  -4.023 -22.611  0.00  0.00    +0.007 A 
ATOM     34  C   UNL     1      12.835  -2.769 -23.211  0.00  0.00    -0.029 A 
ATOM     35  C   UNL     1      13.960  -1.896 -23.814  0.00  0.00    +0.045 C 
ENDROOT
BRANCH  10   9
ATOM      4  C   UNL     1       9.242   0.157 -26.668  0.00  0.00    +0.077 A 
ATOM      5  C   UNL     1       8.911  -1.024 -27.412  0.00  0.00    +0.048 A 
ATOM      6  C   UNL     1       9.325  -2.265 -26.877  0.00  0.00    +0.116 A 
ATOM      7  N   UNL     1      10.018  -2.309 -25.687  0.00  0.00    -0.223 NA
ATOM      8  C   UNL     1      10.323  -1.151 -24.996  0.00  0.00    +0.220 A 
ATOM      9  N   UNL     1      11.012  -1.173 -23.793  0.00  0.00    -0.283 N 
ATOM     36  H   UNL     1      11.224  -0.296 -23.318  0.00  0.00    +0.155 HD
ATOM     37  N   UNL     1       9.940   0.046 -25.486  0.00  0.00    -0.214 NA
BRANCH   4   3
ATOM      1  C   UNL     1       7.302   3.515 -27.178  0.00  0.00    +0.020 A 
ATOM      2  C   UNL     1       7.611   2.175 -26.734  0.00  0.00    +0.013 A 
ATOM      3  C   UNL     1       8.871   1.541 -27.101  0.00  0.00    +0.019 A 
ATOM     38  C   UNL     1       9.804   2.297 -27.923  0.00  0.00    +0.120 A 
ATOM     39  N   UNL     1       9.479   3.585 -28.337  0.00  0.00    -0.263 NA
ATOM     40  C   UNL     1       8.268   4.204 -27.992  0.00  0.00    +0.111 A 
ENDBRANCH   4   3
ENDBRANCH  10   9
BRANCH  12  13
ATOM     13  N   UNL     1       9.847  -5.417 -21.473  0.00  0.00    -0.281 N 
ATOM     14  C   UNL     1       8.920  -6.213 -22.127  0.00  0.00    +0.248 C 
ATOM     30  O   UNL     1       8.626  -6.102 -23.308  0.00  0.00    -0.270 OA
ATOM     31  H   UNL     1       9.855  -5.483 -20.455  0.00  0.00    +0.155 HD
BRANCH  14  15
ATOM     15  C   UNL     1       8.208  -7.275 -21.355  0.00  0.00    +0.037 A 
ATOM     16  C   UNL     1       8.816  -7.894 -20.174  0.00  0.00    +0.013 A 
ATOM     17  C   UNL     1       8.114  -8.929 -19.457  0.00  0.00    +0.005 A 
ATOM     18  C   UNL     1       6.794  -9.351 -19.919  0.00  0.00    -0.033 A 
ATOM     28  C   UNL     1       6.212  -8.717 -21.090  0.00  0.00    +0.005 A 
ATOM     29  C   UNL     1       6.897  -7.703 -21.796  0.00  0.00    +0.013 A 
BRANCH  18  19
ATOM     19  C   UNL     1       5.982 -10.462 -19.228  0.00  0.00    +0.119 C 
BRANCH  19  20
ATOM     20  N   UNL     1       5.027 -11.238 -20.074  0.00  0.00    -0.302 NA
ATOM     21  C   UNL     1       3.569 -10.890 -19.760  0.00  0.00    +0.066 C 
ATOM     22  C   UNL     1       2.583 -11.694 -20.670  0.00  0.00    -0.064 C 
ATOM     23  N   UNL     1       2.834 -13.192 -20.489  0.00  0.00    +0.379 N 
ATOM     24  C   UNL     1       1.871 -13.952 -21.299  0.00  0.00    -0.096 C 
ATOM     25  H   UNL     1       2.646 -13.440 -19.419  0.00  0.00    -0.082 HD
ATOM     26  C   UNL     1       4.282 -13.546 -20.797  0.00  0.00    -0.064 C 
ATOM     27  C   UNL     1       5.254 -12.720 -19.908  0.00  0.00    +0.066 C 
ENDBRANCH  19  20
ENDBRANCH  18  19
ENDBRANCH  14  15
ENDBRANCH  12  13
TORSDOF 6
ENDMDL
MODEL 5
REMARK VINA RESULT:      -7.4     15.198     20.078
REMARK  Name = C:\Users\Docking\Desktop\test protocol\1iep_ligandH.pdb
REMARK  8 active torsions:
REMARK  status: ('A' for Active; 'I' for Inactive)
REMARK    1  A    between atoms: _5  and  _11
REMARK    2  A    between atoms: _19  and  _21
REMARK    3  A    between atoms: _22  and  _66
REMARK    4  A    between atoms: _27  and  _30
REMARK    5  A    between atoms: _32  and  _33
REMARK    6  A    between atoms: _38  and  _43
REMARK    7  A    between atoms: _43  and  _46
REMARK    8  A    between atoms: _53  and  _55
REMARK                            x       y       z     vdW  Elec       q    Type
REMARK                         _______ _______ _______ _____ _____    ______ ____
ROOT
ATOM     10  C   UNL     1       6.396 -10.952 -19.368  0.00  0.00    +0.038 A 
ATOM     11  C   UNL     1       5.648 -12.157 -19.376  0.00  0.00    +0.047 A 
ATOM     12  C   UNL     1       4.229 -12.159 -19.696  0.00  0.00    +0.035 A 
ATOM     32  C   UNL     1       3.603 -10.916 -20.005  0.00  0.00    +0.024 A 
ATOM     33  C   UNL     1       4.348  -9.682 -20.000  0.00  0.00    +0.007 A 
ATOM     34  C   UNL     1       5.748  -9.673 -19.683  0.00  0.00    -0.029 A 
ATOM     35  C   UNL     1       6.495  -8.319 -19.687  0.00  0.00    +0.045 C 
ENDROOT
BRANCH  10   9
ATOM      4  C   UNL     1      10.954 -11.976 -20.466  0.00  0.00    +0.077 A 
ATOM      5  C   UNL     1      10.593 -12.466 -21.765  0.00  0.00    +0.048 A 
ATOM      6  C   UNL     1       9.223 -12.444 -22.109  0.00  0.00    +0.116 A 
ATOM      7  N   UNL     1       8.292 -11.965 -21.213  0.00  0.00    -0.223 NA
ATOM      8  C   UNL     1       8.674 -11.501 -19.968  0.00  0.00    +0.220 A 
ATOM      9  N   UNL     1       7.755 -11.007 -19.054  0.00  0.00    -0.283 N 
ATOM     36  H   UNL     1       8.076 -10.681 -18.143  0.00  0.00    +0.155 HD
ATOM     37  N   UNL     1       9.976 -11.513 -19.615  0.00  0.00    -0.214 NA
BRANCH   4   3
ATOM      1  C   UNL     1      14.086 -12.136 -18.128  0.00  0.00    +0.020 A 
ATOM      2  C   UNL     1      12.711 -12.191 -18.567  0.00  0.00    +0.013 A 
ATOM      3  C   UNL     1      12.362 -11.931 -19.958  0.00  0.00    +0.019 A 
ATOM     38  C   UNL     1      13.437 -11.616 -20.887  0.00  0.00    +0.120 A 
ATOM     39  N   UNL     1      14.752 -11.568 -20.435  0.00  0.00    -0.263 NA
ATOM     40  C   UNL     1      15.100 -11.815 -19.098  0.00  0.00    +0.111 A 
ENDBRANCH   4   3
ENDBRANCH  10   9
BRANCH  12  13
ATOM     13  N   UNL     1       3.416 -13.350 -19.712  0.00  0.00    -0.281 N 
ATOM     14  C   UNL     1       3.031 -14.103 -20.809  0.00  0.00    +0.248 C 
ATOM     30  O   UNL     1       3.150 -13.743 -21.971  0.00  0.00    -0.270 OA
ATOM     31  H   UNL     1       3.084 -13.678 -18.805  0.00  0.00    +0.155 HD
BRANCH  14  15
ATOM     15  C   UNL     1       2.409 -15.444 -20.583  0.00  0.00    +0.037 A 
ATOM     16  C   UNL     1       0.964 -15.589 -20.392  0.00  0.00    +0.013 A 
ATOM     17  C   UNL     1       0.393 -16.891 -20.158  0.00  0.00    +0.005 A 
ATOM     18  C   UNL     1       1.268 -18.060 -20.116  0.00  0.00    -0.033 A 
ATOM     28  C   UNL     1       2.698 -17.888 -20.313  0.00  0.00    +0.005 A 
ATOM     29  C   UNL     1       3.261 -16.613 -20.542  0.00  0.00    +0.013 A 
BRANCH  18  19
ATOM     19  C   UNL     1       0.748 -19.485 -19.851  0.00  0.00    +0.119 C 
BRANCH  19  20
ATOM     20  N   UNL     1       1.571 -20.360 -18.963  0.00  0.00    -0.302 NA
ATOM     21  C   UNL     1       1.860 -21.720 -19.605  0.00  0.00    +0.066 C 
ATOM     22  C   UNL     1       2.741 -22.613 -18.673  0.00  0.00    -0.064 C 
ATOM     23  N   UNL     1       2.038 -22.789 -17.326  0.00  0.00    +0.379 N 
ATOM     24  C   UNL     1       2.836 -23.676 -16.467  0.00  0.00    -0.096 C 
ATOM     25  H   UNL     1       1.062 -23.292 -17.518  0.00  0.00    -0.082 HD
ATOM     26  C   UNL     1       1.744 -21.442 -16.682  0.00  0.00    -0.064 C 
ATOM     27  C   UNL     1       0.893 -20.550 -17.629  0.00  0.00    +0.066 C 
ENDBRANCH  19  20
ENDBRANCH  18  19
ENDBRANCH  14  15
ENDBRANCH  12  13
TORSDOF 6
ENDMDL
