MODEL 1
REMARK VINA RESULT:      -8.3      0.000      0.000
REMARK  Name = C:\Users\Docking\Desktop\test protocol\1iep_ligandH.pdb
REMARK  8 active torsions:
REMARK  status: ('A' for Active; 'I' for Inactive)
REMARK    1  A    between atoms: _5  and  _11
REMARK    2  A    between atoms: _19  and  _21
REMARK    3  A    between atoms: _22  and  _66
REMARK    4  A    between atoms: _27  and  _30
REMARK    5  A    between atoms: _32  and  _33
REMARK    6  A    between atoms: _38  and  _43
REMARK    7  A    between atoms: _43  and  _46
REMARK    8  A    between atoms: _53  and  _55
REMARK                            x       y       z     vdW  Elec       q    Type
REMARK                         _______ _______ _______ _____ _____    ______ ____
ROOT
ATOM     10  C   UNL     1       0.069   2.866  -1.761  0.00  0.00    +0.038 A 
ATOM     11  C   UNL     1      -0.766   2.111  -0.899  0.00  0.00    +0.047 A 
ATOM     12  C   UNL     1      -1.446   0.914  -1.369  0.00  0.00    +0.035 A 
ATOM     32  C   UNL     1      -1.250   0.512  -2.722  0.00  0.00    +0.024 A 
ATOM     33  C   UNL     1      -0.405   1.269  -3.613  0.00  0.00    +0.007 A 
ATOM     34  C   UNL     1       0.266   2.452  -3.155  0.00  0.00    -0.029 A 
ATOM     35  C   UNL     1       1.155   3.228  -4.155  0.00  0.00    +0.045 C 
ENDROOT
BRANCH  10   9
ATOM      4  C   UNL     1       0.057   7.499  -0.505  0.00  0.00    +0.077 A 
ATOM      5  C   UNL     1      -1.308   7.666  -0.913  0.00  0.00    +0.048 A 
ATOM      6  C   UNL     1      -1.969   6.538  -1.447  0.00  0.00    +0.116 A 
ATOM      7  N   UNL     1      -1.305   5.336  -1.560  0.00  0.00    -0.223 NA
ATOM      8  C   UNL     1       0.012   5.208  -1.160  0.00  0.00    +0.220 A 
ATOM      9  N   UNL     1       0.698   4.007  -1.257  0.00  0.00    -0.283 N 
ATOM     36  H   UNL     1       1.671   3.956  -0.958  0.00  0.00    +0.155 HD
ATOM     37  N   UNL     1       0.666   6.272  -0.648  0.00  0.00    -0.214 NA
BRANCH   4   3
ATOM      1  C   UNL     1       1.162  10.834   1.213  0.00  0.00    +0.020 A 
ATOM      2  C   UNL     1       0.314   9.804   0.660  0.00  0.00    +0.013 A 
ATOM      3  C   UNL     1       0.889   8.597   0.080  0.00  0.00    +0.019 A 
ATOM     38  C   UNL     1       2.338   8.462   0.077  0.00  0.00    +0.120 A 
ATOM     39  N   UNL     1       3.130   9.471   0.616  0.00  0.00    -0.263 NA
ATOM     40  C   UNL     1       2.587  10.638   1.175  0.00  0.00    +0.111 A 
ENDBRANCH   4   3
ENDBRANCH  10   9
BRANCH  12  13
ATOM     13  N   UNL     1      -2.313   0.111  -0.542  0.00  0.00    -0.281 N 
ATOM     14  C   UNL     1      -2.760   0.385   0.740  0.00  0.00    +0.248 C 
ATOM     30  O   UNL     1      -2.308   1.266   1.456  0.00  0.00    -0.270 OA
ATOM     31  H   UNL     1      -2.636  -0.765  -0.952  0.00  0.00    +0.155 HD
BRANCH  14  15
ATOM     15  C   UNL     1      -3.859  -0.449   1.315  0.00  0.00    +0.037 A 
ATOM     16  C   UNL     1      -4.173  -0.411   2.746  0.00  0.00    +0.013 A 
ATOM     17  C   UNL     1      -5.226  -1.239   3.278  0.00  0.00    +0.005 A 
ATOM     18  C   UNL     1      -5.975  -2.111   2.376  0.00  0.00    -0.033 A 
ATOM     28  C   UNL     1      -5.647  -2.126   0.961  0.00  0.00    +0.005 A 
ATOM     29  C   UNL     1      -4.614  -1.316   0.436  0.00  0.00    +0.013 A 
BRANCH  18  19
ATOM     19  C   UNL     1      -7.101  -3.044   2.860  0.00  0.00    +0.119 C 
BRANCH  19  20
ATOM     20  N   UNL     1      -6.745  -4.074   3.881  0.00  0.00    -0.302 NA
ATOM     21  C   UNL     1      -7.330  -5.448   3.540  0.00  0.00    +0.066 C 
ATOM     22  C   UNL     1      -6.929  -6.518   4.606  0.00  0.00    -0.064 C 
ATOM     23  N   UNL     1      -7.397  -6.058   5.988  0.00  0.00    +0.379 N 
ATOM     24  C   UNL     1      -7.073  -7.089   6.984  0.00  0.00    -0.096 C 
ATOM     25  H   UNL     1      -8.507  -5.959   5.953  0.00  0.00    -0.082 HD
ATOM     26  C   UNL     1      -6.822  -4.692   6.334  0.00  0.00    -0.064 C 
ATOM     27  C   UNL     1      -7.202  -3.642   5.252  0.00  0.00    +0.066 C 
ENDBRANCH  19  20
ENDBRANCH  18  19
ENDBRANCH  14  15
ENDBRANCH  12  13
TORSDOF 6
ENDMDL
MODEL 2
REMARK VINA RESULT:      -7.7      1.363      2.072
REMARK  Name = C:\Users\Docking\Desktop\test protocol\1iep_ligandH.pdb
REMARK  8 active torsions:
REMARK  status: ('A' for Active; 'I' for Inactive)
REMARK    1  A    between atoms: _5  and  _11
REMARK    2  A    between atoms: _19  and  _21
REMARK    3  A    between atoms: _22  and  _66
REMARK    4  A    between atoms: _27  and  _30
REMARK    5  A    between atoms: _32  and  _33
REMARK    6  A    between atoms: _38  and  _43
REMARK    7  A    between atoms: _43  and  _46
REMARK    8  A    between atoms: _53  and  _55
REMARK                            x       y       z     vdW  Elec       q    Type
REMARK                         _______ _______ _______ _____ _____    ______ ____
ROOT
ATOM     10  C   UNL     1      -0.009   2.784  -1.716  0.00  0.00    +0.038 A 
ATOM     11  C   UNL     1      -0.786   2.019  -0.809  0.00  0.00    +0.047 A 
ATOM     12  C   UNL     1      -1.493   0.825  -1.246  0.00  0.00    +0.035 A 
ATOM     32  C   UNL     1      -1.385   0.438  -2.614  0.00  0.00    +0.024 A 
ATOM     33  C   UNL     1      -0.601   1.206  -3.549  0.00  0.00    +0.007 A 
ATOM     34  C   UNL     1       0.097   2.385  -3.125  0.00  0.00    -0.029 A 
ATOM     35  C   UNL     1       0.918   3.173  -4.173  0.00  0.00    +0.045 C 
ENDROOT
BRANCH  10   9
ATOM      4  C   UNL     1       0.104   7.448  -0.588  0.00  0.00    +0.077 A 
ATOM      5  C   UNL     1      -1.256   7.642  -1.002  0.00  0.00    +0.048 A 
ATOM      6  C   UNL     1      -1.947   6.517  -1.506  0.00  0.00    +0.116 A 
ATOM      7  N   UNL     1      -1.316   5.295  -1.586  0.00  0.00    -0.223 NA
ATOM      8  C   UNL     1      -0.003   5.143  -1.179  0.00  0.00    +0.220 A 
ATOM      9  N   UNL     1       0.650   3.922  -1.243  0.00  0.00    -0.283 N 
ATOM     36  H   UNL     1       1.621   3.852  -0.940  0.00  0.00    +0.155 HD
ATOM     37  N   UNL     1       0.679   6.202  -0.696  0.00  0.00    -0.214 NA
BRANCH   4   3
ATOM      1  C   UNL     1       3.204   9.537   0.564  0.00  0.00    +0.020 A 
ATOM      2  C   UNL     1       2.419   8.455   0.016  0.00  0.00    +0.013 A 
ATOM      3  C   UNL     1       0.965   8.539  -0.031  0.00  0.00    +0.019 A 
ATOM     38  C   UNL     1       0.331   9.742   0.487  0.00  0.00    +0.120 A 
ATOM     39  N   UNL     1       1.113  10.767   1.011  0.00  0.00    -0.263 NA
ATOM     40  C   UNL     1       2.513  10.696   1.063  0.00  0.00    +0.111 A 
ENDBRANCH   4   3
ENDBRANCH  10   9
BRANCH  12  13
ATOM     13  N   UNL     1      -2.303   0.013  -0.373  0.00  0.00    -0.281 N 
ATOM     14  C   UNL     1      -2.780   0.332   0.888  0.00  0.00    +0.248 C 
ATOM     30  O   UNL     1      -2.401   1.288   1.548  0.00  0.00    -0.270 OA
ATOM     31  H   UNL     1      -2.556  -0.910  -0.727  0.00  0.00    +0.155 HD
BRANCH  14  15
ATOM     15  C   UNL     1      -3.817  -0.545   1.512  0.00  0.00    +0.037 A 
ATOM     16  C   UNL     1      -4.609  -0.090   2.656  0.00  0.00    +0.013 A 
ATOM     17  C   UNL     1      -5.591  -0.963   3.250  0.00  0.00    +0.005 A 
ATOM     18  C   UNL     1      -5.786  -2.301   2.697  0.00  0.00    -0.033 A 
ATOM     28  C   UNL     1      -4.990  -2.726   1.558  0.00  0.00    +0.005 A 
ATOM     29  C   UNL     1      -4.026  -1.873   0.975  0.00  0.00    +0.013 A 
BRANCH  18  19
ATOM     19  C   UNL     1      -6.796  -3.307   3.280  0.00  0.00    +0.119 C 
BRANCH  19  20
ATOM     20  N   UNL     1      -7.163  -4.479   2.430  0.00  0.00    -0.302 NA
ATOM     21  C   UNL     1      -8.266  -4.136   1.424  0.00  0.00    +0.066 C 
ATOM     22  C   UNL     1      -8.621  -5.366   0.527  0.00  0.00    -0.064 C 
ATOM     23  N   UNL     1      -9.044  -6.537   1.417  0.00  0.00    +0.379 N 
ATOM     24  C   UNL     1      -9.434  -7.677   0.574  0.00  0.00    -0.096 C 
ATOM     25  H   UNL     1      -9.944  -6.217   1.991  0.00  0.00    -0.082 HD
ATOM     26  C   UNL     1      -7.954  -6.883   2.421  0.00  0.00    -0.064 C 
ATOM     27  C   UNL     1      -7.588  -5.645   3.287  0.00  0.00    +0.066 C 
ENDBRANCH  19  20
ENDBRANCH  18  19
ENDBRANCH  14  15
ENDBRANCH  12  13
TORSDOF 6
ENDMDL
MODEL 3
REMARK VINA RESULT:      -7.7     15.221     20.000
REMARK  Name = C:\Users\Docking\Desktop\test protocol\1iep_ligandH.pdb
REMARK  8 active torsions:
REMARK  status: ('A' for Active; 'I' for Inactive)
REMARK    1  A    between atoms: _5  and  _11
REMARK    2  A    between atoms: _19  and  _21
REMARK    3  A    between atoms: _22  and  _66
REMARK    4  A    between atoms: _27  and  _30
REMARK    5  A    between atoms: _32  and  _33
REMARK    6  A    between atoms: _38  and  _43
REMARK    7  A    between atoms: _43  and  _46
REMARK    8  A    between atoms: _53  and  _55
REMARK                            x       y       z     vdW  Elec       q    Type
REMARK                         _______ _______ _______ _____ _____    ______ ____
ROOT
ATOM     10  C   UNL     1      10.835   6.079   6.430  0.00  0.00    +0.038 A 
ATOM     11  C   UNL     1      12.078   5.397   6.441  0.00  0.00    +0.047 A 
ATOM     12  C   UNL     1      12.159   3.976   6.140  0.00  0.00    +0.035 A 
ATOM     32  C   UNL     1      10.954   3.281   5.828  0.00  0.00    +0.024 A 
ATOM     33  C   UNL     1       9.682   3.959   5.813  0.00  0.00    +0.007 A 
ATOM     34  C   UNL     1       9.595   5.360   6.112  0.00  0.00    -0.029 A 
ATOM     35  C   UNL     1       8.203   6.034   6.087  0.00  0.00    +0.045 C 
ENDROOT
BRANCH  10   9
ATOM      4  C   UNL     1      11.877  10.650   5.401  0.00  0.00    +0.077 A 
ATOM      5  C   UNL     1      12.540  10.287   4.182  0.00  0.00    +0.048 A 
ATOM      6  C   UNL     1      12.598   8.912   3.860  0.00  0.00    +0.116 A 
ATOM      7  N   UNL     1      12.030   7.980   4.701  0.00  0.00    -0.223 NA
ATOM      8  C   UNL     1      11.399   8.364   5.870  0.00  0.00    +0.220 A 
ATOM      9  N   UNL     1      10.815   7.444   6.727  0.00  0.00    -0.283 N 
ATOM     36  H   UNL     1      10.365   7.767   7.583  0.00  0.00    +0.155 HD
ATOM     37  N   UNL     1      11.332   9.670   6.201  0.00  0.00    -0.214 NA
BRANCH   4   3
ATOM      1  C   UNL     1      11.694  13.819   7.687  0.00  0.00    +0.020 A 
ATOM      2  C   UNL     1      11.843  12.441   7.280  0.00  0.00    +0.013 A 
ATOM      3  C   UNL     1      11.731  12.062   5.877  0.00  0.00    +0.019 A 
ATOM     38  C   UNL     1      11.467  13.111   4.903  0.00  0.00    +0.120 A 
ATOM     39  N   UNL     1      11.326  14.429   5.324  0.00  0.00    -0.263 NA
ATOM     40  C   UNL     1      11.431  14.805   6.672  0.00  0.00    +0.111 A 
ENDBRANCH   4   3
ENDBRANCH  10   9
BRANCH  12  13
ATOM     13  N   UNL     1      13.392   3.228   6.144  0.00  0.00    -0.281 N 
ATOM     14  C   UNL     1      14.437   3.303   5.237  0.00  0.00    +0.248 C 
ATOM     30  O   UNL     1      14.376   3.874   4.158  0.00  0.00    -0.270 OA
ATOM     31  H   UNL     1      13.509   2.563   6.908  0.00  0.00    +0.155 HD
BRANCH  14  15
ATOM     15  C   UNL     1      15.731   2.634   5.569  0.00  0.00    +0.037 A 
ATOM     16  C   UNL     1      15.770   1.414   6.379  0.00  0.00    +0.013 A 
ATOM     17  C   UNL     1      17.033   0.798   6.700  0.00  0.00    +0.005 A 
ATOM     18  C   UNL     1      18.269   1.402   6.208  0.00  0.00    -0.033 A 
ATOM     28  C   UNL     1      18.202   2.610   5.402  0.00  0.00    +0.005 A 
ATOM     29  C   UNL     1      16.965   3.216   5.087  0.00  0.00    +0.013 A 
BRANCH  18  19
ATOM     19  C   UNL     1      19.663   0.825   6.519  0.00  0.00    +0.119 C 
BRANCH  19  20
ATOM     20  N   UNL     1      20.492   1.547   7.529  0.00  0.00    -0.302 NA
ATOM     21  C   UNL     1      21.972   1.586   7.137  0.00  0.00    +0.066 C 
ATOM     22  C   UNL     1      22.821   2.365   8.194  0.00  0.00    -0.064 C 
ATOM     23  N   UNL     1      22.642   1.715   9.567  0.00  0.00    +0.379 N 
ATOM     24  C   UNL     1      23.484   2.409  10.552  0.00  0.00    -0.096 C 
ATOM     25  H   UNL     1      23.004   0.664   9.493  0.00  0.00    -0.082 HD
ATOM     26  C   UNL     1      21.173   1.670   9.964  0.00  0.00    -0.064 C 
ATOM     27  C   UNL     1      20.334   0.919   8.892  0.00  0.00    +0.066 C 
ENDBRANCH  19  20
ENDBRANCH  18  19
ENDBRANCH  14  15
ENDBRANCH  12  13
TORSDOF 6
ENDMDL
MODEL 4
REMARK VINA RESULT:      -7.7      7.233     14.015
REMARK  Name = C:\Users\Docking\Desktop\test protocol\1iep_ligandH.pdb
REMARK  8 active torsions:
REMARK  status: ('A' for Active; 'I' for Inactive)
REMARK    1  A    between atoms: _5  and  _11
REMARK    2  A    between atoms: _19  and  _21
REMARK    3  A    between atoms: _22  and  _66
REMARK    4  A    between atoms: _27  and  _30
REMARK    5  A    between atoms: _32  and  _33
REMARK    6  A    between atoms: _38  and  _43
REMARK    7  A    between atoms: _43  and  _46
REMARK    8  A    between atoms: _53  and  _55
REMARK                            x       y       z     vdW  Elec       q    Type
REMARK                         _______ _______ _______ _____ _____    ______ ____
ROOT
ATOM     10  C   UNL     1      -9.799  -3.174  -3.762  0.00  0.00    +0.038 A 
ATOM     11  C   UNL     1      -9.493  -1.935  -4.382  0.00  0.00    +0.047 A 
ATOM     12  C   UNL     1      -9.682  -1.742  -5.811  0.00  0.00    +0.035 A 
ATOM     32  C   UNL     1     -10.189  -2.831  -6.579  0.00  0.00    +0.024 A 
ATOM     33  C   UNL     1     -10.505  -4.097  -5.965  0.00  0.00    +0.007 A 
ATOM     34  C   UNL     1     -10.317  -4.294  -4.556  0.00  0.00    -0.029 A 
ATOM     35  C   UNL     1     -10.667  -5.675  -3.953  0.00  0.00    +0.045 C 
ENDROOT
BRANCH  10   9
ATOM      4  C   UNL     1      -6.951  -3.473   0.090  0.00  0.00    +0.077 A 
ATOM      5  C   UNL     1      -5.762  -3.389  -0.709  0.00  0.00    +0.048 A 
ATOM      6  C   UNL     1      -5.928  -3.278  -2.108  0.00  0.00    +0.116 A 
ATOM      7  N   UNL     1      -7.192  -3.252  -2.656  0.00  0.00    -0.223 NA
ATOM      8  C   UNL     1      -8.317  -3.336  -1.857  0.00  0.00    +0.220 A 
ATOM      9  N   UNL     1      -9.598  -3.304  -2.386  0.00  0.00    -0.283 N 
ATOM     36  H   UNL     1     -10.403  -3.376  -1.763  0.00  0.00    +0.155 HD
ATOM     37  N   UNL     1      -8.186  -3.445  -0.518  0.00  0.00    -0.214 NA
BRANCH   4   3
ATOM      1  C   UNL     1      -6.529  -2.672   3.895  0.00  0.00    +0.020 A 
ATOM      2  C   UNL     1      -6.520  -2.507   2.460  0.00  0.00    +0.013 A 
ATOM      3  C   UNL     1      -6.941  -3.591   1.582  0.00  0.00    +0.019 A 
ATOM     38  C   UNL     1      -7.369  -4.841   2.193  0.00  0.00    +0.120 A 
ATOM     39  N   UNL     1      -7.366  -4.972   3.578  0.00  0.00    -0.263 NA
ATOM     40  C   UNL     1      -6.962  -3.935   4.433  0.00  0.00    +0.111 A 
ENDBRANCH   4   3
ENDBRANCH  10   9
BRANCH  12  13
ATOM     13  N   UNL     1      -9.381  -0.510  -6.497  0.00  0.00    -0.281 N 
ATOM     14  C   UNL     1     -10.123   0.660  -6.512  0.00  0.00    +0.248 C 
ATOM     30  O   UNL     1     -11.272   0.755  -6.107  0.00  0.00    -0.270 OA
ATOM     31  H   UNL     1      -8.516  -0.499  -7.037  0.00  0.00    +0.155 HD
BRANCH  14  15
ATOM     15  C   UNL     1      -9.503   1.901  -7.069  0.00  0.00    +0.037 A 
ATOM     16  C   UNL     1      -9.407   2.119  -8.515  0.00  0.00    +0.013 A 
ATOM     17  C   UNL     1      -8.789   3.316  -9.026  0.00  0.00    +0.005 A 
ATOM     18  C   UNL     1      -8.263   4.307  -8.089  0.00  0.00    -0.033 A 
ATOM     28  C   UNL     1      -8.377   4.068  -6.660  0.00  0.00    +0.005 A 
ATOM     29  C   UNL     1      -8.980   2.894  -6.155  0.00  0.00    +0.013 A 
BRANCH  18  19
ATOM     19  C   UNL     1      -7.569   5.604  -8.546  0.00  0.00    +0.119 C 
BRANCH  19  20
ATOM     20  N   UNL     1      -7.458   6.708  -7.547  0.00  0.00    -0.302 NA
ATOM     21  C   UNL     1      -8.020   8.027  -8.083  0.00  0.00    +0.066 C 
ATOM     22  C   UNL     1      -7.916   9.166  -7.016  0.00  0.00    -0.064 C 
ATOM     23  N   UNL     1      -6.455   9.332  -6.593  0.00  0.00    +0.379 N 
ATOM     24  C   UNL     1      -6.346  10.440  -5.633  0.00  0.00    -0.096 C 
ATOM     25  H   UNL     1      -5.870   9.610  -7.500  0.00  0.00    -0.082 HD
ATOM     26  C   UNL     1      -5.887   8.024  -6.061  0.00  0.00    -0.064 C 
ATOM     27  C   UNL     1      -6.023   6.892  -7.118  0.00  0.00    +0.066 C 
ENDBRANCH  19  20
ENDBRANCH  18  19
ENDBRANCH  14  15
ENDBRANCH  12  13
TORSDOF 6
ENDMDL
MODEL 5
REMARK VINA RESULT:      -7.6      4.822     13.551
REMARK  Name = C:\Users\Docking\Desktop\test protocol\1iep_ligandH.pdb
REMARK  8 active torsions:
REMARK  status: ('A' for Active; 'I' for Inactive)
REMARK    1  A    between atoms: _5  and  _11
REMARK    2  A    between atoms: _19  and  _21
REMARK    3  A    between atoms: _22  and  _66
REMARK    4  A    between atoms: _27  and  _30
REMARK    5  A    between atoms: _32  and  _33
REMARK    6  A    between atoms: _38  and  _43
REMARK    7  A    between atoms: _43  and  _46
REMARK    8  A    between atoms: _53  and  _55
REMARK                            x       y       z     vdW  Elec       q    Type
REMARK                         _______ _______ _______ _____ _____    ______ ____
ROOT
ATOM     10  C   UNL     1      -7.161  -3.841   0.218  0.00  0.00    +0.038 A 
ATOM     11  C   UNL     1      -6.227  -2.842  -0.155  0.00  0.00    +0.047 A 
ATOM     12  C   UNL     1      -5.640  -1.953   0.836  0.00  0.00    +0.035 A 
ATOM     32  C   UNL     1      -6.027  -2.111   2.199  0.00  0.00    +0.024 A 
ATOM     33  C   UNL     1      -6.976  -3.122   2.595  0.00  0.00    +0.007 A 
ATOM     34  C   UNL     1      -7.559  -4.000   1.622  0.00  0.00    -0.029 A 
ATOM     35  C   UNL     1      -8.577  -5.061   2.103  0.00  0.00    +0.045 C 
ENDROOT
BRANCH  10   9
ATOM      4  C   UNL     1     -10.236  -4.717  -3.362  0.00  0.00    +0.077 A 
ATOM      5  C   UNL     1     -10.853  -3.429  -3.226  0.00  0.00    +0.048 A 
ATOM      6  C   UNL     1     -10.355  -2.574  -2.218  0.00  0.00    +0.116 A 
ATOM      7  N   UNL     1      -9.316  -2.986  -1.412  0.00  0.00    -0.223 NA
ATOM      8  C   UNL     1      -8.744  -4.236  -1.569  0.00  0.00    +0.220 A 
ATOM      9  N   UNL     1      -7.693  -4.668  -0.775  0.00  0.00    -0.283 N 
ATOM     36  H   UNL     1      -7.303  -5.599  -0.917  0.00  0.00    +0.155 HD
ATOM     37  N   UNL     1      -9.203  -5.071  -2.524  0.00  0.00    -0.214 NA
BRANCH   4   3
ATOM      1  C   UNL     1     -11.012  -6.490  -6.762  0.00  0.00    +0.020 A 
ATOM      2  C   UNL     1     -10.603  -5.476  -5.818  0.00  0.00    +0.013 A 
ATOM      3  C   UNL     1     -10.648  -5.731  -4.383  0.00  0.00    +0.019 A 
ATOM     38  C   UNL     1     -11.116  -7.034  -3.934  0.00  0.00    +0.120 A 
ATOM     39  N   UNL     1     -11.506  -7.990  -4.867  0.00  0.00    -0.263 NA
ATOM     40  C   UNL     1     -11.468  -7.755  -6.249  0.00  0.00    +0.111 A 
ENDBRANCH   4   3
ENDBRANCH  10   9
BRANCH  12  13
ATOM     13  N   UNL     1      -4.693  -0.914   0.515  0.00  0.00    -0.281 N 
ATOM     14  C   UNL     1      -3.333  -0.891   0.779  0.00  0.00    +0.248 C 
ATOM     30  O   UNL     1      -2.760  -1.672   1.525  0.00  0.00    -0.270 OA
ATOM     31  H   UNL     1      -5.070  -0.096   0.036  0.00  0.00    +0.155 HD
BRANCH  14  15
ATOM     15  C   UNL     1      -2.490   0.160   0.132  0.00  0.00    +0.037 A 
ATOM     16  C   UNL     1      -2.098   0.059  -1.277  0.00  0.00    +0.013 A 
ATOM     17  C   UNL     1      -1.270   1.077  -1.872  0.00  0.00    +0.005 A 
ATOM     18  C   UNL     1      -0.829   2.208  -1.058  0.00  0.00    -0.033 A 
ATOM     28  C   UNL     1      -1.237   2.285   0.335  0.00  0.00    +0.005 A 
ATOM     29  C   UNL     1      -2.047   1.288   0.922  0.00  0.00    +0.013 A 
BRANCH  18  19
ATOM     19  C   UNL     1       0.074   3.330  -1.604  0.00  0.00    +0.119 C 
BRANCH  19  20
ATOM     20  N   UNL     1       0.044   4.640  -0.888  0.00  0.00    -0.302 NA
ATOM     21  C   UNL     1      -0.978   5.604  -1.497  0.00  0.00    +0.066 C 
ATOM     22  C   UNL     1      -1.011   6.962  -0.722  0.00  0.00    -0.064 C 
ATOM     23  N   UNL     1       0.387   7.582  -0.725  0.00  0.00    +0.379 N 
ATOM     24  C   UNL     1       0.346   8.886  -0.048  0.00  0.00    -0.096 C 
ATOM     25  H   UNL     1       0.674   7.761  -1.787  0.00  0.00    -0.082 HD
ATOM     26  C   UNL     1       1.410   6.629  -0.125  0.00  0.00    -0.064 C 
ATOM     27  C   UNL     1       1.414   5.273  -0.883  0.00  0.00    +0.066 C 
ENDBRANCH  19  20
ENDBRANCH  18  19
ENDBRANCH  14  15
ENDBRANCH  12  13
TORSDOF 6
ENDMDL
