MODEL 1
REMARK VINA RESULT:      -8.6      0.000      0.000
REMARK  Name = C:\Users\Docking\Desktop\test protocol\1iep_ligandH.pdb
REMARK  8 active torsions:
REMARK  status: ('A' for Active; 'I' for Inactive)
REMARK    1  A    between atoms: _5  and  _11
REMARK    2  A    between atoms: _19  and  _21
REMARK    3  A    between atoms: _22  and  _66
REMARK    4  A    between atoms: _27  and  _30
REMARK    5  A    between atoms: _32  and  _33
REMARK    6  A    between atoms: _38  and  _43
REMARK    7  A    between atoms: _43  and  _46
REMARK    8  A    between atoms: _53  and  _55
REMARK                            x       y       z     vdW  Elec       q    Type
REMARK                         _______ _______ _______ _____ _____    ______ ____
ROOT
ATOM     10  C   UNL     1      25.494  11.725  26.208  0.00  0.00    +0.038 A 
ATOM     11  C   UNL     1      24.824  10.519  25.879  0.00  0.00    +0.047 A 
ATOM     12  C   UNL     1      24.970   9.329  26.702  0.00  0.00    +0.035 A 
ATOM     32  C   UNL     1      25.804   9.404  27.856  0.00  0.00    +0.024 A 
ATOM     33  C   UNL     1      26.492  10.621  28.204  0.00  0.00    +0.007 A 
ATOM     34  C   UNL     1      26.354  11.798  27.395  0.00  0.00    -0.029 A 
ATOM     35  C   UNL     1      27.121  13.074  27.813  0.00  0.00    +0.045 C 
ENDROOT
BRANCH  10   9
ATOM      4  C   UNL     1      26.816  14.525  22.540  0.00  0.00    +0.077 A 
ATOM      5  C   UNL     1      27.969  13.718  22.263  0.00  0.00    +0.048 A 
ATOM      6  C   UNL     1      28.190  12.596  23.092  0.00  0.00    +0.116 A 
ATOM      7  N   UNL     1      27.316  12.311  24.119  0.00  0.00    -0.223 NA
ATOM      8  C   UNL     1      26.214  13.110  24.360  0.00  0.00    +0.220 A 
ATOM      9  N   UNL     1      25.318  12.838  25.382  0.00  0.00    -0.283 N 
ATOM     36  H   UNL     1      24.521  13.456  25.532  0.00  0.00    +0.155 HD
ATOM     37  N   UNL     1      25.982  14.189  23.583  0.00  0.00    -0.214 NA
BRANCH   4   3
ATOM      1  C   UNL     1      24.786  17.190  20.521  0.00  0.00    +0.020 A 
ATOM      2  C   UNL     1      25.091  15.998  21.279  0.00  0.00    +0.013 A 
ATOM      3  C   UNL     1      26.445  15.742  21.751  0.00  0.00    +0.019 A 
ATOM     38  C   UNL     1      27.477  16.720  21.437  0.00  0.00    +0.120 A 
ATOM     39  N   UNL     1      27.154  17.857  20.704  0.00  0.00    -0.263 NA
ATOM     40  C   UNL     1      25.854  18.113  20.243  0.00  0.00    +0.111 A 
ENDBRANCH   4   3
ENDBRANCH  10   9
BRANCH  12  13
ATOM     13  N   UNL     1      24.321   8.074  26.414  0.00  0.00    -0.281 N 
ATOM     14  C   UNL     1      23.681   7.695  25.245  0.00  0.00    +0.248 C 
ATOM     30  O   UNL     1      23.382   8.461  24.341  0.00  0.00    -0.270 OA
ATOM     31  H   UNL     1      24.336   7.381  27.162  0.00  0.00    +0.155 HD
BRANCH  14  15
ATOM     15  C   UNL     1      23.306   6.260  25.059  0.00  0.00    +0.037 A 
ATOM     16  C   UNL     1      22.442   5.837  23.955  0.00  0.00    +0.013 A 
ATOM     17  C   UNL     1      22.082   4.449  23.809  0.00  0.00    +0.005 A 
ATOM     18  C   UNL     1      22.588   3.473  24.771  0.00  0.00    -0.033 A 
ATOM     28  C   UNL     1      23.448   3.919  25.854  0.00  0.00    +0.005 A 
ATOM     29  C   UNL     1      23.802   5.279  26.001  0.00  0.00    +0.013 A 
BRANCH  18  19
ATOM     19  C   UNL     1      22.238   1.974  24.704  0.00  0.00    +0.119 C 
BRANCH  19  20
ATOM     20  N   UNL     1      23.203   1.077  24.002  0.00  0.00    -0.302 NA
ATOM     21  C   UNL     1      22.492   0.047  23.119  0.00  0.00    +0.066 C 
ATOM     22  C   UNL     1      23.517  -0.868  22.374  0.00  0.00    -0.064 C 
ATOM     23  N   UNL     1      24.416  -1.562  23.399  0.00  0.00    +0.379 N 
ATOM     24  C   UNL     1      25.343  -2.468  22.705  0.00  0.00    -0.096 C 
ATOM     25  H   UNL     1      23.763  -2.183  24.055  0.00  0.00    -0.082 HD
ATOM     26  C   UNL     1      25.125  -0.545  24.283  0.00  0.00    -0.064 C 
ATOM     27  C   UNL     1      24.098   0.379  24.995  0.00  0.00    +0.066 C 
ENDBRANCH  19  20
ENDBRANCH  18  19
ENDBRANCH  14  15
ENDBRANCH  12  13
TORSDOF 6
ENDMDL
MODEL 2
REMARK VINA RESULT:      -7.8      6.710     12.387
REMARK  Name = C:\Users\Docking\Desktop\test protocol\1iep_ligandH.pdb
REMARK  8 active torsions:
REMARK  status: ('A' for Active; 'I' for Inactive)
REMARK    1  A    between atoms: _5  and  _11
REMARK    2  A    between atoms: _19  and  _21
REMARK    3  A    between atoms: _22  and  _66
REMARK    4  A    between atoms: _27  and  _30
REMARK    5  A    between atoms: _32  and  _33
REMARK    6  A    between atoms: _38  and  _43
REMARK    7  A    between atoms: _43  and  _46
REMARK    8  A    between atoms: _53  and  _55
REMARK                            x       y       z     vdW  Elec       q    Type
REMARK                         _______ _______ _______ _____ _____    ______ ____
ROOT
ATOM     10  C   UNL     1      23.333  -0.730  23.477  0.00  0.00    +0.038 A 
ATOM     11  C   UNL     1      22.116  -1.406  23.750  0.00  0.00    +0.047 A 
ATOM     12  C   UNL     1      22.073  -2.855  23.877  0.00  0.00    +0.035 A 
ATOM     32  C   UNL     1      23.289  -3.583  23.724  0.00  0.00    +0.024 A 
ATOM     33  C   UNL     1      24.534  -2.912  23.445  0.00  0.00    +0.007 A 
ATOM     34  C   UNL     1      24.582  -1.484  23.316  0.00  0.00    -0.029 A 
ATOM     35  C   UNL     1      25.944  -0.817  23.010  0.00  0.00    +0.045 C 
ENDROOT
BRANCH  10   9
ATOM      4  C   UNL     1      23.021   3.667  25.377  0.00  0.00    +0.077 A 
ATOM      5  C   UNL     1      22.848   3.146  26.702  0.00  0.00    +0.048 A 
ATOM      6  C   UNL     1      22.838   1.741  26.851  0.00  0.00    +0.116 A 
ATOM      7  N   UNL     1      22.991   0.927  25.750  0.00  0.00    -0.223 NA
ATOM      8  C   UNL     1      23.154   1.462  24.485  0.00  0.00    +0.220 A 
ATOM      9  N   UNL     1      23.317   0.662  23.364  0.00  0.00    -0.283 N 
ATOM     36  H   UNL     1      23.426   1.095  22.447  0.00  0.00    +0.155 HD
ATOM     37  N   UNL     1      23.165   2.800  24.316  0.00  0.00    -0.214 NA
BRANCH   4   3
ATOM      1  C   UNL     1      22.341   7.143  23.717  0.00  0.00    +0.020 A 
ATOM      2  C   UNL     1      22.271   5.725  23.983  0.00  0.00    +0.013 A 
ATOM      3  C   UNL     1      23.056   5.129  25.058  0.00  0.00    +0.019 A 
ATOM     38  C   UNL     1      23.907   6.003  25.851  0.00  0.00    +0.120 A 
ATOM     39  N   UNL     1      23.955   7.365  25.570  0.00  0.00    -0.263 NA
ATOM     40  C   UNL     1      23.206   7.949  24.538  0.00  0.00    +0.111 A 
ENDBRANCH   4   3
ENDBRANCH  10   9
BRANCH  12  13
ATOM     13  N   UNL     1      20.866  -3.597  24.146  0.00  0.00    -0.281 N 
ATOM     14  C   UNL     1      20.011  -3.470  25.228  0.00  0.00    +0.248 C 
ATOM     30  O   UNL     1      20.270  -2.841  26.243  0.00  0.00    -0.270 OA
ATOM     31  H   UNL     1      20.612  -4.302  23.454  0.00  0.00    +0.155 HD
BRANCH  14  15
ATOM     15  C   UNL     1      18.681  -4.150  25.181  0.00  0.00    +0.037 A 
ATOM     16  C   UNL     1      18.016  -4.602  26.406  0.00  0.00    +0.013 A 
ATOM     17  C   UNL     1      16.741  -5.272  26.332  0.00  0.00    +0.005 A 
ATOM     18  C   UNL     1      16.123  -5.492  25.026  0.00  0.00    -0.033 A 
ATOM     28  C   UNL     1      16.803  -5.029  23.828  0.00  0.00    +0.005 A 
ATOM     29  C   UNL     1      18.053  -4.373  23.897  0.00  0.00    +0.013 A 
BRANCH  18  19
ATOM     19  C   UNL     1      14.775  -6.216  24.851  0.00  0.00    +0.119 C 
BRANCH  19  20
ATOM     20  N   UNL     1      13.685  -5.472  24.152  0.00  0.00    -0.302 NA
ATOM     21  C   UNL     1      13.329  -4.167  24.870  0.00  0.00    +0.066 C 
ATOM     22  C   UNL     1      12.203  -3.390  24.114  0.00  0.00    -0.064 C 
ATOM     23  N   UNL     1      10.971  -4.287  23.978  0.00  0.00    +0.379 N 
ATOM     24  C   UNL     1       9.890  -3.540  23.319  0.00  0.00    -0.096 C 
ATOM     25  H   UNL     1      10.626  -4.545  25.007  0.00  0.00    -0.082 HD
ATOM     26  C   UNL     1      11.317  -5.588  23.268  0.00  0.00    -0.064 C 
ATOM     27  C   UNL     1      12.457  -6.338  24.011  0.00  0.00    +0.066 C 
ENDBRANCH  19  20
ENDBRANCH  18  19
ENDBRANCH  14  15
ENDBRANCH  12  13
TORSDOF 6
ENDMDL
MODEL 3
REMARK VINA RESULT:      -7.8      3.672     13.530
REMARK  Name = C:\Users\Docking\Desktop\test protocol\1iep_ligandH.pdb
REMARK  8 active torsions:
REMARK  status: ('A' for Active; 'I' for Inactive)
REMARK    1  A    between atoms: _5  and  _11
REMARK    2  A    between atoms: _19  and  _21
REMARK    3  A    between atoms: _22  and  _66
REMARK    4  A    between atoms: _27  and  _30
REMARK    5  A    between atoms: _32  and  _33
REMARK    6  A    between atoms: _38  and  _43
REMARK    7  A    between atoms: _43  and  _46
REMARK    8  A    between atoms: _53  and  _55
REMARK                            x       y       z     vdW  Elec       q    Type
REMARK                         _______ _______ _______ _____ _____    ______ ____
ROOT
ATOM     10  C   UNL     1      27.551  11.393  23.955  0.00  0.00    +0.038 A 
ATOM     11  C   UNL     1      27.006  12.654  23.603  0.00  0.00    +0.047 A 
ATOM     12  C   UNL     1      27.771  13.879  23.777  0.00  0.00    +0.035 A 
ATOM     32  C   UNL     1      29.089  13.782  24.311  0.00  0.00    +0.024 A 
ATOM     33  C   UNL     1      29.658  12.508  24.676  0.00  0.00    +0.007 A 
ATOM     34  C   UNL     1      28.907  11.297  24.508  0.00  0.00    -0.029 A 
ATOM     35  C   UNL     1      29.564   9.960  24.922  0.00  0.00    +0.045 C 
ENDROOT
BRANCH  10   9
ATOM      4  C   UNL     1      24.326   8.171  25.460  0.00  0.00    +0.077 A 
ATOM      5  C   UNL     1      24.202   8.806  26.740  0.00  0.00    +0.048 A 
ATOM      6  C   UNL     1      24.991   9.955  26.974  0.00  0.00    +0.116 A 
ATOM      7  N   UNL     1      25.837  10.425  25.993  0.00  0.00    -0.223 NA
ATOM      8  C   UNL     1      25.934   9.788  24.770  0.00  0.00    +0.220 A 
ATOM      9  N   UNL     1      26.772  10.249  23.766  0.00  0.00    -0.283 N 
ATOM     36  H   UNL     1      26.820   9.747  22.880  0.00  0.00    +0.155 HD
ATOM     37  N   UNL     1      25.192   8.689  24.522  0.00  0.00    -0.214 NA
BRANCH   4   3
ATOM      1  C   UNL     1      21.909   5.727  23.594  0.00  0.00    +0.020 A 
ATOM      2  C   UNL     1      22.627   6.932  23.938  0.00  0.00    +0.013 A 
ATOM      3  C   UNL     1      23.556   6.951  25.060  0.00  0.00    +0.019 A 
ATOM     38  C   UNL     1      23.738   5.723  25.820  0.00  0.00    +0.120 A 
ATOM     39  N   UNL     1      23.032   4.578  25.466  0.00  0.00    -0.263 NA
ATOM     40  C   UNL     1      22.134   4.548  24.389  0.00  0.00    +0.111 A 
ENDBRANCH   4   3
ENDBRANCH  10   9
BRANCH  12  13
ATOM     13  N   UNL     1      27.268  15.189  23.445  0.00  0.00    -0.281 N 
ATOM     14  C   UNL     1      27.377  15.863  22.240  0.00  0.00    +0.248 C 
ATOM     30  O   UNL     1      28.114  15.527  21.324  0.00  0.00    -0.270 OA
ATOM     31  H   UNL     1      26.771  15.679  24.189  0.00  0.00    +0.155 HD
BRANCH  14  15
ATOM     15  C   UNL     1      26.561  17.096  22.025  0.00  0.00    +0.037 A 
ATOM     16  C   UNL     1      25.175  17.018  21.556  0.00  0.00    +0.013 A 
ATOM     17  C   UNL     1      24.415  18.224  21.341  0.00  0.00    +0.005 A 
ATOM     18  C   UNL     1      25.040  19.519  21.597  0.00  0.00    -0.033 A 
ATOM     28  C   UNL     1      26.415  19.567  22.066  0.00  0.00    +0.005 A 
ATOM     29  C   UNL     1      27.163  18.388  22.277  0.00  0.00    +0.013 A 
BRANCH  18  19
ATOM     19  C   UNL     1      24.311  20.858  21.375  0.00  0.00    +0.119 C 
BRANCH  19  20
ATOM     20  N   UNL     1      23.046  21.082  22.136  0.00  0.00    -0.302 NA
ATOM     21  C   UNL     1      22.364  22.396  21.742  0.00  0.00    +0.066 C 
ATOM     22  C   UNL     1      21.031  22.604  22.532  0.00  0.00    -0.064 C 
ATOM     23  N   UNL     1      21.321  22.573  24.034  0.00  0.00    +0.379 N 
ATOM     24  C   UNL     1      20.079  22.827  24.779  0.00  0.00    -0.096 C 
ATOM     25  H   UNL     1      22.027  23.407  24.258  0.00  0.00    -0.082 HD
ATOM     26  C   UNL     1      22.002  21.272  24.434  0.00  0.00    -0.064 C 
ATOM     27  C   UNL     1      23.311  21.061  23.622  0.00  0.00    +0.066 C 
ENDBRANCH  19  20
ENDBRANCH  18  19
ENDBRANCH  14  15
ENDBRANCH  12  13
TORSDOF 6
ENDMDL
MODEL 4
REMARK VINA RESULT:      -7.8     28.184     34.095
REMARK  Name = C:\Users\Docking\Desktop\test protocol\1iep_ligandH.pdb
REMARK  8 active torsions:
REMARK  status: ('A' for Active; 'I' for Inactive)
REMARK    1  A    between atoms: _5  and  _11
REMARK    2  A    between atoms: _19  and  _21
REMARK    3  A    between atoms: _22  and  _66
REMARK    4  A    between atoms: _27  and  _30
REMARK    5  A    between atoms: _32  and  _33
REMARK    6  A    between atoms: _38  and  _43
REMARK    7  A    between atoms: _43  and  _46
REMARK    8  A    between atoms: _53  and  _55
REMARK                            x       y       z     vdW  Elec       q    Type
REMARK                         _______ _______ _______ _____ _____    ______ ____
ROOT
ATOM     10  C   UNL     1      25.807  -9.808  -3.536  0.00  0.00    +0.038 A 
ATOM     11  C   UNL     1      24.559  -9.504  -4.137  0.00  0.00    +0.047 A 
ATOM     12  C   UNL     1      24.339  -9.707  -5.560  0.00  0.00    +0.035 A 
ATOM     32  C   UNL     1      25.413 -10.224  -6.343  0.00  0.00    +0.024 A 
ATOM     33  C   UNL     1      26.688 -10.537  -5.749  0.00  0.00    +0.007 A 
ATOM     34  C   UNL     1      26.912 -10.337  -4.346  0.00  0.00    -0.029 A 
ATOM     35  C   UNL     1      28.302 -10.684  -3.764  0.00  0.00    +0.045 C 
ENDROOT
BRANCH  10   9
ATOM      4  C   UNL     1      26.197  -6.922   0.279  0.00  0.00    +0.077 A 
ATOM      5  C   UNL     1      26.110  -5.742  -0.531  0.00  0.00    +0.048 A 
ATOM      6  C   UNL     1      25.973  -5.920  -1.926  0.00  0.00    +0.116 A 
ATOM      7  N   UNL     1      25.927  -7.190  -2.460  0.00  0.00    -0.223 NA
ATOM      8  C   UNL     1      26.015  -8.307  -1.650  0.00  0.00    +0.220 A 
ATOM      9  N   UNL     1      25.963  -9.594  -2.165  0.00  0.00    -0.283 N 
ATOM     36  H   UNL     1      26.039 -10.392  -1.536  0.00  0.00    +0.155 HD
ATOM     37  N   UNL     1      26.148  -8.164  -0.315  0.00  0.00    -0.214 NA
BRANCH   4   3
ATOM      1  C   UNL     1      25.454  -6.491   4.095  0.00  0.00    +0.020 A 
ATOM      2  C   UNL     1      25.263  -6.497   2.663  0.00  0.00    +0.013 A 
ATOM      3  C   UNL     1      26.342  -6.898   1.769  0.00  0.00    +0.019 A 
ATOM     38  C   UNL     1      27.612  -7.291   2.361  0.00  0.00    +0.120 A 
ATOM     39  N   UNL     1      27.767  -7.274   3.744  0.00  0.00    -0.263 NA
ATOM     40  C   UNL     1      26.736  -6.888   4.614  0.00  0.00    +0.111 A 
ENDBRANCH   4   3
ENDBRANCH  10   9
BRANCH  12  13
ATOM     13  N   UNL     1      23.096  -9.409  -6.227  0.00  0.00    -0.281 N 
ATOM     14  C   UNL     1      21.949 -10.184  -6.277  0.00  0.00    +0.248 C 
ATOM     30  O   UNL     1      21.891 -11.355  -5.932  0.00  0.00    -0.270 OA
ATOM     31  H   UNL     1      23.056  -8.518  -6.722  0.00  0.00    +0.155 HD
BRANCH  14  15
ATOM     15  C   UNL     1      20.688  -9.575  -6.798  0.00  0.00    +0.037 A 
ATOM     16  C   UNL     1      20.422  -9.493  -8.237  0.00  0.00    +0.013 A 
ATOM     17  C   UNL     1      19.205  -8.885  -8.714  0.00  0.00    +0.005 A 
ATOM     18  C   UNL     1      18.243  -8.355  -7.750  0.00  0.00    -0.033 A 
ATOM     28  C   UNL     1      18.530  -8.455  -6.328  0.00  0.00    +0.005 A 
ATOM     29  C   UNL     1      19.722  -9.049  -5.857  0.00  0.00    +0.013 A 
BRANCH  18  19
ATOM     19  C   UNL     1      16.929  -7.671  -8.170  0.00  0.00    +0.119 C 
BRANCH  19  20
ATOM     20  N   UNL     1      15.805  -7.687  -7.186  0.00  0.00    -0.302 NA
ATOM     21  C   UNL     1      14.514  -8.240  -7.797  0.00  0.00    +0.066 C 
ATOM     22  C   UNL     1      13.355  -8.271  -6.748  0.00  0.00    -0.064 C 
ATOM     23  N   UNL     1      13.133  -6.861  -6.196  0.00  0.00    +0.379 N 
ATOM     24  C   UNL     1      12.006  -6.876  -5.252  0.00  0.00    -0.096 C 
ATOM     25  H   UNL     1      12.851  -6.204  -7.051  0.00  0.00    -0.082 HD
ATOM     26  C   UNL     1      14.413  -6.303  -5.589  0.00  0.00    -0.064 C 
ATOM     27  C   UNL     1      15.566  -6.305  -6.631  0.00  0.00    +0.066 C 
ENDBRANCH  19  20
ENDBRANCH  18  19
ENDBRANCH  14  15
ENDBRANCH  12  13
TORSDOF 6
ENDMDL
MODEL 5
REMARK VINA RESULT:      -7.7     26.627     31.053
REMARK  Name = C:\Users\Docking\Desktop\test protocol\1iep_ligandH.pdb
REMARK  8 active torsions:
REMARK  status: ('A' for Active; 'I' for Inactive)
REMARK    1  A    between atoms: _5  and  _11
REMARK    2  A    between atoms: _19  and  _21
REMARK    3  A    between atoms: _22  and  _66
REMARK    4  A    between atoms: _27  and  _30
REMARK    5  A    between atoms: _32  and  _33
REMARK    6  A    between atoms: _38  and  _43
REMARK    7  A    between atoms: _43  and  _46
REMARK    8  A    between atoms: _53  and  _55
REMARK                            x       y       z     vdW  Elec       q    Type
REMARK                         _______ _______ _______ _____ _____    ______ ____
ROOT
ATOM     10  C   UNL     1      26.678  -7.151   0.292  0.00  0.00    +0.038 A 
ATOM     11  C   UNL     1      25.666  -6.230  -0.080  0.00  0.00    +0.047 A 
ATOM     12  C   UNL     1      24.802  -5.617   0.917  0.00  0.00    +0.035 A 
ATOM     32  C   UNL     1      24.999  -5.964   2.285  0.00  0.00    +0.024 A 
ATOM     33  C   UNL     1      26.022  -6.899   2.681  0.00  0.00    +0.007 A 
ATOM     34  C   UNL     1      26.875  -7.509   1.702  0.00  0.00    -0.029 A 
ATOM     35  C   UNL     1      27.952  -8.509   2.183  0.00  0.00    +0.045 C 
ENDROOT
BRANCH  10   9
ATOM      4  C   UNL     1      27.451 -10.299  -3.248  0.00  0.00    +0.077 A 
ATOM      5  C   UNL     1      26.160 -10.900  -3.075  0.00  0.00    +0.048 A 
ATOM      6  C   UNL     1      25.330 -10.375  -2.059  0.00  0.00    +0.116 A 
ATOM      7  N   UNL     1      25.769  -9.325  -1.281  0.00  0.00    -0.223 NA
ATOM      8  C   UNL     1      27.020  -8.770  -1.473  0.00  0.00    +0.220 A 
ATOM      9  N   UNL     1      27.479  -7.709  -0.707  0.00  0.00    -0.283 N 
ATOM     36  H   UNL     1      28.411  -7.332  -0.875  0.00  0.00    +0.155 HD
ATOM     37  N   UNL     1      27.832  -9.254  -2.436  0.00  0.00    -0.214 NA
BRANCH   4   3
ATOM      1  C   UNL     1      30.767 -10.839  -5.252  0.00  0.00    +0.020 A 
ATOM      2  C   UNL     1      29.853 -10.386  -4.229  0.00  0.00    +0.013 A 
ATOM      3  C   UNL     1      28.440 -10.740  -4.282  0.00  0.00    +0.019 A 
ATOM     38  C   UNL     1      27.981 -11.562  -5.391  0.00  0.00    +0.120 A 
ATOM     39  N   UNL     1      28.884 -11.982  -6.363  0.00  0.00    -0.263 NA
ATOM     40  C   UNL     1      30.245 -11.646  -6.323  0.00  0.00    +0.111 A 
ENDBRANCH   4   3
ENDBRANCH  10   9
BRANCH  12  13
ATOM     13  N   UNL     1      23.753  -4.682   0.598  0.00  0.00    -0.281 N 
ATOM     14  C   UNL     1      23.681  -3.338   0.926  0.00  0.00    +0.248 C 
ATOM     30  O   UNL     1      24.412  -2.784   1.733  0.00  0.00    -0.270 OA
ATOM     31  H   UNL     1      22.967  -5.055   0.065  0.00  0.00    +0.155 HD
BRANCH  14  15
ATOM     15  C   UNL     1      22.636  -2.490   0.275  0.00  0.00    +0.037 A 
ATOM     16  C   UNL     1      22.646  -2.248  -1.170  0.00  0.00    +0.013 A 
ATOM     17  C   UNL     1      21.636  -1.413  -1.770  0.00  0.00    +0.005 A 
ATOM     18  C   UNL     1      20.606  -0.814  -0.924  0.00  0.00    -0.033 A 
ATOM     28  C   UNL     1      20.617  -1.075   0.506  0.00  0.00    +0.005 A 
ATOM     29  C   UNL     1      21.606  -1.892   1.098  0.00  0.00    +0.013 A 
BRANCH  18  19
ATOM     19  C   UNL     1      19.503   0.108  -1.476  0.00  0.00    +0.119 C 
BRANCH  19  20
ATOM     20  N   UNL     1      18.222   0.175  -0.710  0.00  0.00    -0.302 NA
ATOM     21  C   UNL     1      17.265  -0.957  -1.092  0.00  0.00    +0.066 C 
ATOM     22  C   UNL     1      15.939  -0.884  -0.265  0.00  0.00    -0.064 C 
ATOM     23  N   UNL     1      15.280   0.479  -0.483  0.00  0.00    +0.379 N 
ATOM     24  C   UNL     1      14.005   0.529   0.247  0.00  0.00    -0.096 C 
ATOM     25  H   UNL     1      15.052   0.574  -1.570  0.00  0.00    -0.082 HD
ATOM     26  C   UNL     1      16.226   1.611  -0.108  0.00  0.00    -0.064 C 
ATOM     27  C   UNL     1      17.552   1.512  -0.914  0.00  0.00    +0.066 C 
ENDBRANCH  19  20
ENDBRANCH  18  19
ENDBRANCH  14  15
ENDBRANCH  12  13
TORSDOF 6
ENDMDL
