MODEL 1
REMARK VINA RESULT:      -7.9      0.000      0.000
REMARK  Name = C:\Users\Docking\Desktop\test protocol\1iep_ligandH.pdb
REMARK  8 active torsions:
REMARK  status: ('A' for Active; 'I' for Inactive)
REMARK    1  A    between atoms: _5  and  _11
REMARK    2  A    between atoms: _19  and  _21
REMARK    3  A    between atoms: _22  and  _66
REMARK    4  A    between atoms: _27  and  _30
REMARK    5  A    between atoms: _32  and  _33
REMARK    6  A    between atoms: _38  and  _43
REMARK    7  A    between atoms: _43  and  _46
REMARK    8  A    between atoms: _53  and  _55
REMARK                            x       y       z     vdW  Elec       q    Type
REMARK                         _______ _______ _______ _____ _____    ______ ____
ROOT
ATOM     10  C   UNL     1       2.326  11.395 -26.648  0.00  0.00    +0.038 A 
ATOM     11  C   UNL     1       1.579  12.548 -26.296  0.00  0.00    +0.047 A 
ATOM     12  C   UNL     1       1.666  13.770 -27.080  0.00  0.00    +0.035 A 
ATOM     32  C   UNL     1       2.523  13.782 -28.219  0.00  0.00    +0.024 A 
ATOM     33  C   UNL     1       3.291  12.619 -28.591  0.00  0.00    +0.007 A 
ATOM     34  C   UNL     1       3.211  11.412 -27.820  0.00  0.00    -0.029 A 
ATOM     35  C   UNL     1       4.061  10.198 -28.261  0.00  0.00    +0.045 C 
ENDROOT
BRANCH  10   9
ATOM      4  C   UNL     1       3.804   8.522 -23.098  0.00  0.00    +0.077 A 
ATOM      5  C   UNL     1       4.929   9.363 -22.807  0.00  0.00    +0.048 A 
ATOM      6  C   UNL     1       5.096  10.521 -23.599  0.00  0.00    +0.116 A 
ATOM      7  N   UNL     1       4.198  10.808 -24.604  0.00  0.00    -0.223 NA
ATOM      8  C   UNL     1       3.124   9.975 -24.859  0.00  0.00    +0.220 A 
ATOM      9  N   UNL     1       2.204  10.249 -25.860  0.00  0.00    -0.283 N 
ATOM     36  H   UNL     1       1.430   9.605 -26.022  0.00  0.00    +0.155 HD
ATOM     37  N   UNL     1       2.944   8.862 -24.118  0.00  0.00    -0.214 NA
BRANCH   4   3
ATOM      1  C   UNL     1       1.892   5.682 -21.207  0.00  0.00    +0.020 A 
ATOM      2  C   UNL     1       2.141   6.908 -21.929  0.00  0.00    +0.013 A 
ATOM      3  C   UNL     1       3.491   7.265 -22.347  0.00  0.00    +0.019 A 
ATOM     38  C   UNL     1       4.575   6.353 -22.017  0.00  0.00    +0.120 A 
ATOM     39  N   UNL     1       4.305   5.179 -21.319  0.00  0.00    -0.263 NA
ATOM     40  C   UNL     1       3.011   4.826 -20.910  0.00  0.00    +0.111 A 
ENDBRANCH   4   3
ENDBRANCH  10   9
BRANCH  12  13
ATOM     13  N   UNL     1       0.937  14.974 -26.766  0.00  0.00    -0.281 N 
ATOM     14  C   UNL     1       0.998  15.728 -25.606  0.00  0.00    +0.248 C 
ATOM     30  O   UNL     1       1.532  15.361 -24.570  0.00  0.00    -0.270 OA
ATOM     31  H   UNL     1       0.300  15.311 -27.488  0.00  0.00    +0.155 HD
BRANCH  14  15
ATOM     15  C   UNL     1       0.359  17.079 -25.589  0.00  0.00    +0.037 A 
ATOM     16  C   UNL     1       0.547  18.022 -26.694  0.00  0.00    +0.013 A 
ATOM     17  C   UNL     1      -0.066  19.326 -26.645  0.00  0.00    +0.005 A 
ATOM     18  C   UNL     1      -0.875  19.693 -25.485  0.00  0.00    -0.033 A 
ATOM     28  C   UNL     1      -1.049  18.736 -24.405  0.00  0.00    +0.005 A 
ATOM     29  C   UNL     1      -0.449  17.458 -24.449  0.00  0.00    +0.013 A 
BRANCH  18  19
ATOM     19  C   UNL     1      -1.549  21.070 -25.338  0.00  0.00    +0.119 C 
BRANCH  19  20
ATOM     20  N   UNL     1      -0.907  22.050 -24.411  0.00  0.00    -0.302 NA
ATOM     21  C   UNL     1      -1.798  23.270 -24.159  0.00  0.00    +0.066 C 
ATOM     22  C   UNL     1      -1.121  24.274 -23.169  0.00  0.00    -0.064 C 
ATOM     23  N   UNL     1       0.237  24.701 -23.730  0.00  0.00    +0.379 N 
ATOM     24  C   UNL     1       0.850  25.689 -22.830  0.00  0.00    -0.096 C 
ATOM     25  H   UNL     1       0.056  25.201 -24.709  0.00  0.00    -0.082 HD
ATOM     26  C   UNL     1       1.127  23.493 -23.985  0.00  0.00    -0.064 C 
ATOM     27  C   UNL     1       0.433  22.488 -24.947  0.00  0.00    +0.066 C 
ENDBRANCH  19  20
ENDBRANCH  18  19
ENDBRANCH  14  15
ENDBRANCH  12  13
TORSDOF 6
ENDMDL
MODEL 2
REMARK VINA RESULT:      -7.6     21.762     26.272
REMARK  Name = C:\Users\Docking\Desktop\test protocol\1iep_ligandH.pdb
REMARK  8 active torsions:
REMARK  status: ('A' for Active; 'I' for Inactive)
REMARK    1  A    between atoms: _5  and  _11
REMARK    2  A    between atoms: _19  and  _21
REMARK    3  A    between atoms: _22  and  _66
REMARK    4  A    between atoms: _27  and  _30
REMARK    5  A    between atoms: _32  and  _33
REMARK    6  A    between atoms: _38  and  _43
REMARK    7  A    between atoms: _43  and  _46
REMARK    8  A    between atoms: _53  and  _55
REMARK                            x       y       z     vdW  Elec       q    Type
REMARK                         _______ _______ _______ _____ _____    ______ ____
ROOT
ATOM     10  C   UNL     1      -9.627  17.187  -2.998  0.00  0.00    +0.038 A 
ATOM     11  C   UNL     1      -8.698  16.242  -3.504  0.00  0.00    +0.047 A 
ATOM     12  C   UNL     1      -9.130  14.926  -3.947  0.00  0.00    +0.035 A 
ATOM     32  C   UNL     1     -10.516  14.605  -3.862  0.00  0.00    +0.024 A 
ATOM     33  C   UNL     1     -11.474  15.553  -3.349  0.00  0.00    +0.007 A 
ATOM     34  C   UNL     1     -11.053  16.853  -2.908  0.00  0.00    -0.029 A 
ATOM     35  C   UNL     1     -12.123  17.826  -2.361  0.00  0.00    +0.045 C 
ENDROOT
BRANCH  10   9
ATOM      4  C   UNL     1      -7.645  20.102   0.260  0.00  0.00    +0.077 A 
ATOM      5  C   UNL     1      -7.563  19.053   1.236  0.00  0.00    +0.048 A 
ATOM      6  C   UNL     1      -8.048  17.780   0.861  0.00  0.00    +0.116 A 
ATOM      7  N   UNL     1      -8.574  17.581  -0.397  0.00  0.00    -0.223 NA
ATOM      8  C   UNL     1      -8.640  18.615  -1.313  0.00  0.00    +0.220 A 
ATOM      9  N   UNL     1      -9.157  18.437  -2.587  0.00  0.00    -0.283 N 
ATOM     36  H   UNL     1      -9.195  19.226  -3.231  0.00  0.00    +0.155 HD
ATOM     37  N   UNL     1      -8.184  19.841  -0.979  0.00  0.00    -0.214 NA
BRANCH   4   3
ATOM      1  C   UNL     1      -7.391  24.005   0.295  0.00  0.00    +0.020 A 
ATOM      2  C   UNL     1      -7.892  22.676   0.032  0.00  0.00    +0.013 A 
ATOM      3  C   UNL     1      -7.171  21.501   0.505  0.00  0.00    +0.019 A 
ATOM     38  C   UNL     1      -5.937  21.707   1.248  0.00  0.00    +0.120 A 
ATOM     39  N   UNL     1      -5.478  22.999   1.485  0.00  0.00    -0.263 NA
ATOM     40  C   UNL     1      -6.163  24.137   1.033  0.00  0.00    +0.111 A 
ENDBRANCH   4   3
ENDBRANCH  10   9
BRANCH  12  13
ATOM     13  N   UNL     1      -8.232  13.922  -4.463  0.00  0.00    -0.281 N 
ATOM     14  C   UNL     1      -7.575  13.913  -5.682  0.00  0.00    +0.248 C 
ATOM     30  O   UNL     1      -7.829  14.668  -6.609  0.00  0.00    -0.270 OA
ATOM     31  H   UNL     1      -8.059  13.122  -3.855  0.00  0.00    +0.155 HD
BRANCH  14  15
ATOM     15  C   UNL     1      -6.489  12.912  -5.910  0.00  0.00    +0.037 A 
ATOM     16  C   UNL     1      -5.124  13.332  -6.237  0.00  0.00    +0.013 A 
ATOM     17  C   UNL     1      -4.100  12.345  -6.468  0.00  0.00    +0.005 A 
ATOM     18  C   UNL     1      -4.437  10.926  -6.373  0.00  0.00    -0.033 A 
ATOM     28  C   UNL     1      -5.798  10.538  -6.043  0.00  0.00    +0.005 A 
ATOM     29  C   UNL     1      -6.805  11.502  -5.816  0.00  0.00    +0.013 A 
BRANCH  18  19
ATOM     19  C   UNL     1      -3.413   9.804  -6.626  0.00  0.00    +0.119 C 
BRANCH  19  20
ATOM     20  N   UNL     1      -3.224   8.794  -5.542  0.00  0.00    -0.302 NA
ATOM     21  C   UNL     1      -2.385   9.343  -4.385  0.00  0.00    +0.066 C 
ATOM     22  C   UNL     1      -2.217   8.281  -3.250  0.00  0.00    -0.064 C 
ATOM     23  N   UNL     1      -1.579   7.017  -3.829  0.00  0.00    +0.379 N 
ATOM     24  C   UNL     1      -1.366   6.038  -2.753  0.00  0.00    -0.096 C 
ATOM     25  H   UNL     1      -0.579   7.298  -4.234  0.00  0.00    -0.082 HD
ATOM     26  C   UNL     1      -2.406   6.466  -4.982  0.00  0.00    -0.064 C 
ATOM     27  C   UNL     1      -2.592   7.539  -6.091  0.00  0.00    +0.066 C 
ENDBRANCH  19  20
ENDBRANCH  18  19
ENDBRANCH  14  15
ENDBRANCH  12  13
TORSDOF 6
ENDMDL
MODEL 3
REMARK VINA RESULT:      -7.5     23.066     25.105
REMARK  Name = C:\Users\Docking\Desktop\test protocol\1iep_ligandH.pdb
REMARK  8 active torsions:
REMARK  status: ('A' for Active; 'I' for Inactive)
REMARK    1  A    between atoms: _5  and  _11
REMARK    2  A    between atoms: _19  and  _21
REMARK    3  A    between atoms: _22  and  _66
REMARK    4  A    between atoms: _27  and  _30
REMARK    5  A    between atoms: _32  and  _33
REMARK    6  A    between atoms: _38  and  _43
REMARK    7  A    between atoms: _43  and  _46
REMARK    8  A    between atoms: _53  and  _55
REMARK                            x       y       z     vdW  Elec       q    Type
REMARK                         _______ _______ _______ _____ _____    ______ ____
ROOT
ATOM     10  C   UNL     1      -8.898  14.733  -3.107  0.00  0.00    +0.038 A 
ATOM     11  C   UNL     1      -8.559  16.021  -2.620  0.00  0.00    +0.047 A 
ATOM     12  C   UNL     1      -9.548  17.085  -2.552  0.00  0.00    +0.035 A 
ATOM     32  C   UNL     1     -10.876  16.801  -2.986  0.00  0.00    +0.024 A 
ATOM     33  C   UNL     1     -11.238  15.498  -3.485  0.00  0.00    +0.007 A 
ATOM     34  C   UNL     1     -10.266  14.446  -3.557  0.00  0.00    -0.029 A 
ATOM     35  C   UNL     1     -10.709  13.070  -4.107  0.00  0.00    +0.045 C 
ENDROOT
BRANCH  10   9
ATOM      4  C   UNL     1      -5.276  12.466  -5.294  0.00  0.00    +0.077 A 
ATOM      5  C   UNL     1      -5.383  13.296  -6.460  0.00  0.00    +0.048 A 
ATOM      6  C   UNL     1      -6.387  14.290  -6.459  0.00  0.00    +0.116 A 
ATOM      7  N   UNL     1      -7.218  14.434  -5.369  0.00  0.00    -0.223 NA
ATOM      8  C   UNL     1      -7.089  13.616  -4.262  0.00  0.00    +0.220 A 
ATOM      9  N   UNL     1      -7.908  13.749  -3.151  0.00  0.00    -0.283 N 
ATOM     36  H   UNL     1      -7.787  13.121  -2.357  0.00  0.00    +0.155 HD
ATOM     37  N   UNL     1      -6.139  12.659  -4.238  0.00  0.00    -0.214 NA
BRANCH   4   3
ATOM      1  C   UNL     1      -3.227   9.176  -5.818  0.00  0.00    +0.020 A 
ATOM      2  C   UNL     1      -4.227  10.202  -6.007  0.00  0.00    +0.013 A 
ATOM      3  C   UNL     1      -4.263  11.375  -5.142  0.00  0.00    +0.019 A 
ATOM     38  C   UNL     1      -3.265  11.481  -4.089  0.00  0.00    +0.120 A 
ATOM     39  N   UNL     1      -2.315  10.477  -3.930  0.00  0.00    -0.263 NA
ATOM     40  C   UNL     1      -2.271   9.343  -4.755  0.00  0.00    +0.111 A 
ENDBRANCH   4   3
ENDBRANCH  10   9
BRANCH  12  13
ATOM     13  N   UNL     1      -9.260  18.414  -2.074  0.00  0.00    -0.281 N 
ATOM     14  C   UNL     1      -9.144  18.841  -0.761  0.00  0.00    +0.248 C 
ATOM     30  O   UNL     1      -9.485  18.184   0.212  0.00  0.00    -0.270 OA
ATOM     31  H   UNL     1      -9.124  19.128  -2.790  0.00  0.00    +0.155 HD
BRANCH  14  15
ATOM     15  C   UNL     1      -8.583  20.199  -0.489  0.00  0.00    +0.037 A 
ATOM     16  C   UNL     1      -9.454  21.373  -0.379  0.00  0.00    +0.013 A 
ATOM     17  C   UNL     1      -8.885  22.674  -0.134  0.00  0.00    +0.005 A 
ATOM     18  C   UNL     1      -7.437  22.809   0.004  0.00  0.00    -0.033 A 
ATOM     28  C   UNL     1      -6.597  21.627  -0.104  0.00  0.00    +0.005 A 
ATOM     29  C   UNL     1      -7.151  20.350  -0.346  0.00  0.00    +0.013 A 
BRANCH  18  19
ATOM     19  C   UNL     1      -6.742  24.162   0.246  0.00  0.00    +0.119 C 
BRANCH  19  20
ATOM     20  N   UNL     1      -6.285  24.457   1.637  0.00  0.00    -0.302 NA
ATOM     21  C   UNL     1      -7.143  25.533   2.307  0.00  0.00    +0.066 C 
ATOM     22  C   UNL     1      -6.666  25.814   3.769  0.00  0.00    -0.064 C 
ATOM     23  N   UNL     1      -5.194  26.229   3.751  0.00  0.00    +0.379 N 
ATOM     24  C   UNL     1      -4.757  26.549   5.118  0.00  0.00    -0.096 C 
ATOM     25  H   UNL     1      -5.112  27.160   3.143  0.00  0.00    -0.082 HD
ATOM     26  C   UNL     1      -4.333  25.165   3.084  0.00  0.00    -0.064 C 
ATOM     27  C   UNL     1      -4.835  24.873   1.642  0.00  0.00    +0.066 C 
ENDBRANCH  19  20
ENDBRANCH  18  19
ENDBRANCH  14  15
ENDBRANCH  12  13
TORSDOF 6
ENDMDL
MODEL 4
REMARK VINA RESULT:      -7.5     26.891     31.195
REMARK  Name = C:\Users\Docking\Desktop\test protocol\1iep_ligandH.pdb
REMARK  8 active torsions:
REMARK  status: ('A' for Active; 'I' for Inactive)
REMARK    1  A    between atoms: _5  and  _11
REMARK    2  A    between atoms: _19  and  _21
REMARK    3  A    between atoms: _22  and  _66
REMARK    4  A    between atoms: _27  and  _30
REMARK    5  A    between atoms: _32  and  _33
REMARK    6  A    between atoms: _38  and  _43
REMARK    7  A    between atoms: _43  and  _46
REMARK    8  A    between atoms: _53  and  _55
REMARK                            x       y       z     vdW  Elec       q    Type
REMARK                         _______ _______ _______ _____ _____    ______ ____
ROOT
ATOM     10  C   UNL     1       4.037  29.816  -0.271  0.00  0.00    +0.038 A 
ATOM     11  C   UNL     1       3.021  28.890   0.077  0.00  0.00    +0.047 A 
ATOM     12  C   UNL     1       2.167  28.293  -0.938  0.00  0.00    +0.035 A 
ATOM     32  C   UNL     1       2.377  28.660  -2.299  0.00  0.00    +0.024 A 
ATOM     33  C   UNL     1       3.404  29.602  -2.671  0.00  0.00    +0.007 A 
ATOM     34  C   UNL     1       4.248  30.196  -1.673  0.00  0.00    -0.029 A 
ATOM     35  C   UNL     1       5.329  31.203  -2.129  0.00  0.00    +0.045 C 
ENDROOT
BRANCH  10   9
ATOM      4  C   UNL     1       4.740  32.842   3.388  0.00  0.00    +0.077 A 
ATOM      5  C   UNL     1       3.430  33.408   3.249  0.00  0.00    +0.048 A 
ATOM      6  C   UNL     1       2.608  32.898   2.218  0.00  0.00    +0.116 A 
ATOM      7  N   UNL     1       3.073  31.896   1.395  0.00  0.00    -0.223 NA
ATOM      8  C   UNL     1       4.343  31.373   1.555  0.00  0.00    +0.220 A 
ATOM      9  N   UNL     1       4.828  30.359   0.744  0.00  0.00    -0.283 N 
ATOM     36  H   UNL     1       5.774  30.005   0.890  0.00  0.00    +0.155 HD
ATOM     37  N   UNL     1       5.147  31.844   2.531  0.00  0.00    -0.214 NA
BRANCH   4   3
ATOM      1  C   UNL     1       8.043  33.352   5.421  0.00  0.00    +0.020 A 
ATOM      2  C   UNL     1       7.134  32.909   4.388  0.00  0.00    +0.013 A 
ATOM      3  C   UNL     1       5.724  33.273   4.431  0.00  0.00    +0.019 A 
ATOM     38  C   UNL     1       5.261  34.092   5.541  0.00  0.00    +0.120 A 
ATOM     39  N   UNL     1       6.158  34.503   6.522  0.00  0.00    -0.263 NA
ATOM     40  C   UNL     1       7.518  34.158   6.492  0.00  0.00    +0.111 A 
ENDBRANCH   4   3
ENDBRANCH  10   9
BRANCH  12  13
ATOM     13  N   UNL     1       1.115  27.353  -0.643  0.00  0.00    -0.281 N 
ATOM     14  C   UNL     1       1.082  25.996  -0.921  0.00  0.00    +0.248 C 
ATOM     30  O   UNL     1       1.869  25.423  -1.660  0.00  0.00    -0.270 OA
ATOM     31  H   UNL     1       0.293  27.734  -0.173  0.00  0.00    +0.155 HD
BRANCH  14  15
ATOM     15  C   UNL     1       0.013  25.157  -0.298  0.00  0.00    +0.037 A 
ATOM     16  C   UNL     1       0.091  24.746   1.106  0.00  0.00    +0.013 A 
ATOM     17  C   UNL     1      -0.945  23.922   1.677  0.00  0.00    +0.005 A 
ATOM     18  C   UNL     1      -2.069  23.505   0.843  0.00  0.00    -0.033 A 
ATOM     28  C   UNL     1      -2.124  23.932  -0.546  0.00  0.00    +0.005 A 
ATOM     29  C   UNL     1      -1.110  24.738  -1.109  0.00  0.00    +0.013 A 
BRANCH  18  19
ATOM     19  C   UNL     1      -3.209  22.609   1.362  0.00  0.00    +0.119 C 
BRANCH  19  20
ATOM     20  N   UNL     1      -4.514  22.674   0.639  0.00  0.00    -0.302 NA
ATOM     21  C   UNL     1      -5.441  23.743   1.223  0.00  0.00    +0.066 C 
ATOM     22  C   UNL     1      -6.793  23.813   0.440  0.00  0.00    -0.064 C 
ATOM     23  N   UNL     1      -7.466  22.440   0.467  0.00  0.00    +0.379 N 
ATOM     24  C   UNL     1      -8.765  22.517  -0.218  0.00  0.00    -0.096 C 
ATOM     25  H   UNL     1      -7.661  22.180   1.533  0.00  0.00    -0.082 HD
ATOM     26  C   UNL     1      -6.550  21.370  -0.109  0.00  0.00    -0.064 C 
ATOM     27  C   UNL     1      -5.198  21.329   0.657  0.00  0.00    +0.066 C 
ENDBRANCH  19  20
ENDBRANCH  18  19
ENDBRANCH  14  15
ENDBRANCH  12  13
TORSDOF 6
ENDMDL
MODEL 5
REMARK VINA RESULT:      -7.4     28.463     34.343
REMARK  Name = C:\Users\Docking\Desktop\test protocol\1iep_ligandH.pdb
REMARK  8 active torsions:
REMARK  status: ('A' for Active; 'I' for Inactive)
REMARK    1  A    between atoms: _5  and  _11
REMARK    2  A    between atoms: _19  and  _21
REMARK    3  A    between atoms: _22  and  _66
REMARK    4  A    between atoms: _27  and  _30
REMARK    5  A    between atoms: _32  and  _33
REMARK    6  A    between atoms: _38  and  _43
REMARK    7  A    between atoms: _43  and  _46
REMARK    8  A    between atoms: _53  and  _55
REMARK                            x       y       z     vdW  Elec       q    Type
REMARK                         _______ _______ _______ _____ _____    ______ ____
ROOT
ATOM     10  C   UNL     1       3.174  32.321   3.952  0.00  0.00    +0.038 A 
ATOM     11  C   UNL     1       1.914  32.021   4.531  0.00  0.00    +0.047 A 
ATOM     12  C   UNL     1       1.684  32.184   5.958  0.00  0.00    +0.035 A 
ATOM     32  C   UNL     1       2.758  32.659   6.766  0.00  0.00    +0.024 A 
ATOM     33  C   UNL     1       4.045  32.968   6.194  0.00  0.00    +0.007 A 
ATOM     34  C   UNL     1       4.279  32.806   4.788  0.00  0.00    -0.029 A 
ATOM     35  C   UNL     1       5.681  33.146   4.230  0.00  0.00    +0.045 C 
ENDROOT
BRANCH  10   9
ATOM      4  C   UNL     1       3.548  29.546   0.054  0.00  0.00    +0.077 A 
ATOM      5  C   UNL     1       3.430  28.343   0.826  0.00  0.00    +0.048 A 
ATOM      6  C   UNL     1       3.282  28.482   2.224  0.00  0.00    +0.116 A 
ATOM      7  N   UNL     1       3.254  29.735   2.797  0.00  0.00    -0.223 NA
ATOM      8  C   UNL     1       3.373  30.875   2.023  0.00  0.00    +0.220 A 
ATOM      9  N   UNL     1       3.340  32.146   2.576  0.00  0.00    -0.283 N 
ATOM     36  H   UNL     1       3.438  32.961   1.972  0.00  0.00    +0.155 HD
ATOM     37  N   UNL     1       3.517  30.769   0.686  0.00  0.00    -0.214 NA
BRANCH   4   3
ATOM      1  C   UNL     1       2.832  29.262  -3.781  0.00  0.00    +0.020 A 
ATOM      2  C   UNL     1       2.626  29.228  -2.352  0.00  0.00    +0.013 A 
ATOM      3  C   UNL     1       3.708  29.564  -1.435  0.00  0.00    +0.019 A 
ATOM     38  C   UNL     1       4.996  29.933  -2.002  0.00  0.00    +0.120 A 
ATOM     39  N   UNL     1       5.166  29.955  -3.382  0.00  0.00    -0.263 NA
ATOM     40  C   UNL     1       4.132  29.632  -4.274  0.00  0.00    +0.111 A 
ENDBRANCH   4   3
ENDBRANCH  10   9
BRANCH  12  13
ATOM     13  N   UNL     1       0.429  31.888   6.603  0.00  0.00    -0.281 N 
ATOM     14  C   UNL     1      -0.729  32.649   6.603  0.00  0.00    +0.248 C 
ATOM     30  O   UNL     1      -0.794  33.808   6.224  0.00  0.00    -0.270 OA
ATOM     31  H   UNL     1       0.389  31.011   7.122  0.00  0.00    +0.155 HD
BRANCH  14  15
ATOM     15  C   UNL     1      -1.995  32.037   7.112  0.00  0.00    +0.037 A 
ATOM     16  C   UNL     1      -2.263  31.930   8.549  0.00  0.00    +0.013 A 
ATOM     17  C   UNL     1      -3.484  31.320   9.013  0.00  0.00    +0.005 A 
ATOM     18  C   UNL     1      -4.447  30.814   8.038  0.00  0.00    -0.033 A 
ATOM     28  C   UNL     1      -4.158  30.938   6.619  0.00  0.00    +0.005 A 
ATOM     29  C   UNL     1      -2.962  31.534   6.160  0.00  0.00    +0.013 A 
BRANCH  18  19
ATOM     19  C   UNL     1      -5.766  30.130   8.443  0.00  0.00    +0.119 C 
BRANCH  19  20
ATOM     20  N   UNL     1      -6.785  29.919   7.372  0.00  0.00    -0.302 NA
ATOM     21  C   UNL     1      -8.181  30.369   7.810  0.00  0.00    +0.066 C 
ATOM     22  C   UNL     1      -9.230  30.162   6.669  0.00  0.00    -0.064 C 
ATOM     23  N   UNL     1      -9.241  28.691   6.251  0.00  0.00    +0.379 N 
ATOM     24  C   UNL     1     -10.267  28.483   5.219  0.00  0.00    -0.096 C 
ATOM     25  H   UNL     1      -9.531  28.088   7.143  0.00  0.00    -0.082 HD
ATOM     26  C   UNL     1      -7.856  28.235   5.816  0.00  0.00    -0.064 C 
ATOM     27  C   UNL     1      -6.816  28.472   6.946  0.00  0.00    +0.066 C 
ENDBRANCH  19  20
ENDBRANCH  18  19
ENDBRANCH  14  15
ENDBRANCH  12  13
TORSDOF 6
ENDMDL
