MODEL 1
REMARK VINA RESULT:      -7.4      0.000      0.000
REMARK  Name = C:\Users\Docking\Desktop\test protocol\1iep_ligandH.pdb
REMARK  8 active torsions:
REMARK  status: ('A' for Active; 'I' for Inactive)
REMARK    1  A    between atoms: _5  and  _11
REMARK    2  A    between atoms: _19  and  _21
REMARK    3  A    between atoms: _22  and  _66
REMARK    4  A    between atoms: _27  and  _30
REMARK    5  A    between atoms: _32  and  _33
REMARK    6  A    between atoms: _38  and  _43
REMARK    7  A    between atoms: _43  and  _46
REMARK    8  A    between atoms: _53  and  _55
REMARK                            x       y       z     vdW  Elec       q    Type
REMARK                         _______ _______ _______ _____ _____    ______ ____
ROOT
ATOM     10  C   UNL     1      16.302  11.061   5.483  0.00  0.00    +0.038 A 
ATOM     11  C   UNL     1      17.060  12.257   5.545  0.00  0.00    +0.047 A 
ATOM     12  C   UNL     1      18.450  12.246   5.976  0.00  0.00    +0.035 A 
ATOM     32  C   UNL     1      19.035  10.997   6.335  0.00  0.00    +0.024 A 
ATOM     33  C   UNL     1      18.278   9.771   6.279  0.00  0.00    +0.007 A 
ATOM     34  C   UNL     1      16.907   9.777   5.857  0.00  0.00    -0.029 A 
ATOM     35  C   UNL     1      16.142   8.433   5.822  0.00  0.00    +0.045 C 
ENDROOT
BRANCH  10   9
ATOM      4  C   UNL     1      11.594  11.383   6.363  0.00  0.00    +0.077 A 
ATOM      5  C   UNL     1      11.800  11.388   7.783  0.00  0.00    +0.048 A 
ATOM      6  C   UNL     1      13.132  11.298   8.246  0.00  0.00    +0.116 A 
ATOM      7  N   UNL     1      14.173  11.212   7.347  0.00  0.00    -0.223 NA
ATOM      8  C   UNL     1      13.940  11.208   5.984  0.00  0.00    +0.220 A 
ATOM      9  N   UNL     1      14.972  11.130   5.062  0.00  0.00    -0.283 N 
ATOM     36  H   UNL     1      14.758  11.123   4.065  0.00  0.00    +0.155 HD
ATOM     37  N   UNL     1      12.676  11.291   5.517  0.00  0.00    -0.214 NA
BRANCH   4   3
ATOM      1  C   UNL     1       7.795  12.076   5.739  0.00  0.00    +0.020 A 
ATOM      2  C   UNL     1       9.075  12.009   6.406  0.00  0.00    +0.013 A 
ATOM      3  C   UNL     1      10.245  11.475   5.720  0.00  0.00    +0.019 A 
ATOM     38  C   UNL     1      10.085  11.014   4.349  0.00  0.00    +0.120 A 
ATOM     39  N   UNL     1       8.840  11.089   3.733  0.00  0.00    -0.263 NA
ATOM     40  C   UNL     1       7.707  11.600   4.384  0.00  0.00    +0.111 A 
ENDBRANCH   4   3
ENDBRANCH  10   9
BRANCH  12  13
ATOM     13  N   UNL     1      19.267  13.430   6.067  0.00  0.00    -0.281 N 
ATOM     14  C   UNL     1      19.848  14.145   5.032  0.00  0.00    +0.248 C 
ATOM     30  O   UNL     1      19.928  13.750   3.878  0.00  0.00    -0.270 OA
ATOM     31  H   UNL     1      19.439  13.784   7.008  0.00  0.00    +0.155 HD
BRANCH  14  15
ATOM     15  C   UNL     1      20.437  15.488   5.324  0.00  0.00    +0.037 A 
ATOM     16  C   UNL     1      21.844  15.634   5.701  0.00  0.00    +0.013 A 
ATOM     17  C   UNL     1      22.383  16.939   5.994  0.00  0.00    +0.005 A 
ATOM     18  C   UNL     1      21.512  18.109   5.908  0.00  0.00    -0.033 A 
ATOM     28  C   UNL     1      20.120  17.936   5.526  0.00  0.00    +0.005 A 
ATOM     29  C   UNL     1      19.589  16.658   5.239  0.00  0.00    +0.013 A 
BRANCH  18  19
ATOM     19  C   UNL     1      21.996  19.537   6.223  0.00  0.00    +0.119 C 
BRANCH  19  20
ATOM     20  N   UNL     1      21.126  20.375   7.102  0.00  0.00    -0.302 NA
ATOM     21  C   UNL     1      20.607  21.620   6.377  0.00  0.00    +0.066 C 
ATOM     22  C   UNL     1      19.681  22.474   7.303  0.00  0.00    -0.064 C 
ATOM     23  N   UNL     1      20.449  22.864   8.568  0.00  0.00    +0.379 N 
ATOM     24  C   UNL     1      19.601  23.715   9.414  0.00  0.00    -0.096 C 
ATOM     25  H   UNL     1      21.331  23.470   8.254  0.00  0.00    -0.082 HD
ATOM     26  C   UNL     1      20.971  21.631   9.293  0.00  0.00    -0.064 C 
ATOM     27  C   UNL     1      21.866  20.775   8.355  0.00  0.00    +0.066 C 
ENDBRANCH  19  20
ENDBRANCH  18  19
ENDBRANCH  14  15
ENDBRANCH  12  13
TORSDOF 6
ENDMDL
MODEL 2
REMARK VINA RESULT:      -7.3     23.619     27.656
REMARK  Name = C:\Users\Docking\Desktop\test protocol\1iep_ligandH.pdb
REMARK  8 active torsions:
REMARK  status: ('A' for Active; 'I' for Inactive)
REMARK    1  A    between atoms: _5  and  _11
REMARK    2  A    between atoms: _19  and  _21
REMARK    3  A    between atoms: _22  and  _66
REMARK    4  A    between atoms: _27  and  _30
REMARK    5  A    between atoms: _32  and  _33
REMARK    6  A    between atoms: _38  and  _43
REMARK    7  A    between atoms: _43  and  _46
REMARK    8  A    between atoms: _53  and  _55
REMARK                            x       y       z     vdW  Elec       q    Type
REMARK                         _______ _______ _______ _____ _____    ______ ____
ROOT
ATOM     10  C   UNL     1      25.761  -9.805  -3.491  0.00  0.00    +0.038 A 
ATOM     11  C   UNL     1      24.508  -9.508  -4.086  0.00  0.00    +0.047 A 
ATOM     12  C   UNL     1      24.279  -9.724  -5.506  0.00  0.00    +0.035 A 
ATOM     32  C   UNL     1      25.348 -10.246  -6.291  0.00  0.00    +0.024 A 
ATOM     33  C   UNL     1      26.629 -10.552  -5.703  0.00  0.00    +0.007 A 
ATOM     34  C   UNL     1      26.861 -10.339  -4.303  0.00  0.00    -0.029 A 
ATOM     35  C   UNL     1      28.255 -10.679  -3.727  0.00  0.00    +0.045 C 
ENDROOT
BRANCH  10   9
ATOM      4  C   UNL     1      26.165  -6.885   0.297  0.00  0.00    +0.077 A 
ATOM      5  C   UNL     1      26.067  -5.712  -0.522  0.00  0.00    +0.048 A 
ATOM      6  C   UNL     1      25.920  -5.903  -1.915  0.00  0.00    +0.116 A 
ATOM      7  N   UNL     1      25.876  -7.177  -2.437  0.00  0.00    -0.223 NA
ATOM      8  C   UNL     1      25.975  -8.287  -1.619  0.00  0.00    +0.220 A 
ATOM      9  N   UNL     1      25.925  -9.578  -2.123  0.00  0.00    -0.283 N 
ATOM     36  H   UNL     1      26.009 -10.371  -1.487  0.00  0.00    +0.155 HD
ATOM     37  N   UNL     1      26.117  -8.131  -0.287  0.00  0.00    -0.214 NA
BRANCH   4   3
ATOM      1  C   UNL     1      25.423  -6.505   4.119  0.00  0.00    +0.020 A 
ATOM      2  C   UNL     1      25.221  -6.527   2.689  0.00  0.00    +0.013 A 
ATOM      3  C   UNL     1      26.319  -6.847   1.786  0.00  0.00    +0.019 A 
ATOM     38  C   UNL     1      27.620  -7.142   2.367  0.00  0.00    +0.120 A 
ATOM     39  N   UNL     1      27.786  -7.111   3.748  0.00  0.00    -0.263 NA
ATOM     40  C   UNL     1      26.736  -6.803   4.627  0.00  0.00    +0.111 A 
ENDBRANCH   4   3
ENDBRANCH  10   9
BRANCH  12  13
ATOM     13  N   UNL     1      23.031  -9.434  -6.167  0.00  0.00    -0.281 N 
ATOM     14  C   UNL     1      21.855 -10.166  -6.126  0.00  0.00    +0.248 C 
ATOM     30  O   UNL     1      21.763 -11.301  -5.684  0.00  0.00    -0.270 OA
ATOM     31  H   UNL     1      23.011  -8.586  -6.733  0.00  0.00    +0.155 HD
BRANCH  14  15
ATOM     15  C   UNL     1      20.604  -9.553  -6.668  0.00  0.00    +0.037 A 
ATOM     16  C   UNL     1      20.365  -9.465  -8.111  0.00  0.00    +0.013 A 
ATOM     17  C   UNL     1      19.157  -8.854  -8.608  0.00  0.00    +0.005 A 
ATOM     18  C   UNL     1      18.179  -8.327  -7.659  0.00  0.00    -0.033 A 
ATOM     28  C   UNL     1      18.439  -8.433  -6.233  0.00  0.00    +0.005 A 
ATOM     29  C   UNL     1      19.622  -9.030  -5.743  0.00  0.00    +0.013 A 
BRANCH  18  19
ATOM     19  C   UNL     1      16.873  -7.640  -8.100  0.00  0.00    +0.119 C 
BRANCH  19  20
ATOM     20  N   UNL     1      15.689  -7.780  -7.200  0.00  0.00    -0.302 NA
ATOM     21  C   UNL     1      14.474  -8.353  -7.935  0.00  0.00    +0.066 C 
ATOM     22  C   UNL     1      13.251  -8.514  -6.974  0.00  0.00    -0.064 C 
ATOM     23  N   UNL     1      12.917  -7.159  -6.347  0.00  0.00    +0.379 N 
ATOM     24  C   UNL     1      11.732  -7.295  -5.487  0.00  0.00    -0.096 C 
ATOM     25  H   UNL     1      12.656  -6.459  -7.175  0.00  0.00    -0.082 HD
ATOM     26  C   UNL     1      14.121  -6.581  -5.617  0.00  0.00    -0.064 C 
ATOM     27  C   UNL     1      15.339  -6.453  -6.574  0.00  0.00    +0.066 C 
ENDBRANCH  19  20
ENDBRANCH  18  19
ENDBRANCH  14  15
ENDBRANCH  12  13
TORSDOF 6
ENDMDL
MODEL 3
REMARK VINA RESULT:      -7.3      7.716     14.976
REMARK  Name = C:\Users\Docking\Desktop\test protocol\1iep_ligandH.pdb
REMARK  8 active torsions:
REMARK  status: ('A' for Active; 'I' for Inactive)
REMARK    1  A    between atoms: _5  and  _11
REMARK    2  A    between atoms: _19  and  _21
REMARK    3  A    between atoms: _22  and  _66
REMARK    4  A    between atoms: _27  and  _30
REMARK    5  A    between atoms: _32  and  _33
REMARK    6  A    between atoms: _38  and  _43
REMARK    7  A    between atoms: _43  and  _46
REMARK    8  A    between atoms: _53  and  _55
REMARK                            x       y       z     vdW  Elec       q    Type
REMARK                         _______ _______ _______ _____ _____    ______ ____
ROOT
ATOM     10  C   UNL     1      13.727   8.196   3.450  0.00  0.00    +0.038 A 
ATOM     11  C   UNL     1      14.122   6.942   2.918  0.00  0.00    +0.047 A 
ATOM     12  C   UNL     1      13.208   5.811   2.898  0.00  0.00    +0.035 A 
ATOM     32  C   UNL     1      11.897   5.993   3.426  0.00  0.00    +0.024 A 
ATOM     33  C   UNL     1      11.478   7.261   3.971  0.00  0.00    +0.007 A 
ATOM     34  C   UNL     1      12.377   8.379   3.996  0.00  0.00    -0.029 A 
ATOM     35  C   UNL     1      11.876   9.713   4.598  0.00  0.00    +0.045 C 
ENDROOT
BRANCH  10   9
ATOM      4  C   UNL     1      17.559  10.480   5.221  0.00  0.00    +0.077 A 
ATOM      5  C   UNL     1      17.730   9.509   6.263  0.00  0.00    +0.048 A 
ATOM      6  C   UNL     1      16.806   8.441   6.313  0.00  0.00    +0.116 A 
ATOM      7  N   UNL     1      15.791   8.360   5.384  0.00  0.00    -0.223 NA
ATOM      8  C   UNL     1      15.654   9.314   4.393  0.00  0.00    +0.220 A 
ATOM      9  N   UNL     1      14.645   9.248   3.444  0.00  0.00    -0.283 N 
ATOM     36  H   UNL     1      14.574   9.976   2.733  0.00  0.00    +0.155 HD
ATOM     37  N   UNL     1      16.522  10.344   4.325  0.00  0.00    -0.214 NA
BRANCH   4   3
ATOM      1  C   UNL     1      18.914  14.144   5.034  0.00  0.00    +0.020 A 
ATOM      2  C   UNL     1      18.006  13.037   5.226  0.00  0.00    +0.013 A 
ATOM      3  C   UNL     1      18.456  11.663   5.035  0.00  0.00    +0.019 A 
ATOM     38  C   UNL     1      19.842  11.444   4.648  0.00  0.00    +0.120 A 
ATOM     39  N   UNL     1      20.692  12.531   4.469  0.00  0.00    -0.263 NA
ATOM     40  C   UNL     1      20.270  13.856   4.648  0.00  0.00    +0.111 A 
ENDBRANCH   4   3
ENDBRANCH  10   9
BRANCH  12  13
ATOM     13  N   UNL     1      13.556   4.512   2.379  0.00  0.00    -0.281 N 
ATOM     14  C   UNL     1      13.430   4.053   1.078  0.00  0.00    +0.248 C 
ATOM     30  O   UNL     1      12.795   4.623   0.203  0.00  0.00    -0.270 OA
ATOM     31  H   UNL     1      13.943   3.850   3.052  0.00  0.00    +0.155 HD
BRANCH  14  15
ATOM     15  C   UNL     1      14.091   2.768   0.698  0.00  0.00    +0.037 A 
ATOM     16  C   UNL     1      13.349   1.505   0.687  0.00  0.00    +0.013 A 
ATOM     17  C   UNL     1      14.015   0.277   0.333  0.00  0.00    +0.005 A 
ATOM     18  C   UNL     1      15.434   0.306  -0.014  0.00  0.00    -0.033 A 
ATOM     28  C   UNL     1      16.145   1.574   0.000  0.00  0.00    +0.005 A 
ATOM     29  C   UNL     1      15.496   2.779   0.347  0.00  0.00    +0.013 A 
BRANCH  18  19
ATOM     19  C   UNL     1      16.231  -0.958  -0.384  0.00  0.00    +0.119 C 
BRANCH  19  20
ATOM     20  N   UNL     1      17.643  -0.770  -0.832  0.00  0.00    -0.302 NA
ATOM     21  C   UNL     1      18.118  -1.915  -1.732  0.00  0.00    +0.066 C 
ATOM     22  C   UNL     1      19.589  -1.691  -2.210  0.00  0.00    -0.064 C 
ATOM     23  N   UNL     1      20.502  -1.545  -0.991  0.00  0.00    +0.379 N 
ATOM     24  C   UNL     1      21.895  -1.392  -1.437  0.00  0.00    -0.096 C 
ATOM     25  H   UNL     1      20.436  -2.491  -0.405  0.00  0.00    -0.082 HD
ATOM     26  C   UNL     1      20.036  -0.411  -0.090  0.00  0.00    -0.064 C 
ATOM     27  C   UNL     1      18.563  -0.629   0.356  0.00  0.00    +0.066 C 
ENDBRANCH  19  20
ENDBRANCH  18  19
ENDBRANCH  14  15
ENDBRANCH  12  13
TORSDOF 6
ENDMDL
MODEL 4
REMARK VINA RESULT:      -7.2      8.587     16.020
REMARK  Name = C:\Users\Docking\Desktop\test protocol\1iep_ligandH.pdb
REMARK  8 active torsions:
REMARK  status: ('A' for Active; 'I' for Inactive)
REMARK    1  A    between atoms: _5  and  _11
REMARK    2  A    between atoms: _19  and  _21
REMARK    3  A    between atoms: _22  and  _66
REMARK    4  A    between atoms: _27  and  _30
REMARK    5  A    between atoms: _32  and  _33
REMARK    6  A    between atoms: _38  and  _43
REMARK    7  A    between atoms: _43  and  _46
REMARK    8  A    between atoms: _53  and  _55
REMARK                            x       y       z     vdW  Elec       q    Type
REMARK                         _______ _______ _______ _____ _____    ______ ____
ROOT
ATOM     10  C   UNL     1      13.715   7.831   3.106  0.00  0.00    +0.038 A 
ATOM     11  C   UNL     1      14.056   6.544   2.619  0.00  0.00    +0.047 A 
ATOM     12  C   UNL     1      13.082   5.463   2.602  0.00  0.00    +0.035 A 
ATOM     32  C   UNL     1      11.769   5.730   3.087  0.00  0.00    +0.024 A 
ATOM     33  C   UNL     1      11.405   7.032   3.587  0.00  0.00    +0.007 A 
ATOM     34  C   UNL     1      12.362   8.101   3.608  0.00  0.00    -0.029 A 
ATOM     35  C   UNL     1      11.918   9.476   4.160  0.00  0.00    +0.045 C 
ENDROOT
BRANCH  10   9
ATOM      4  C   UNL     1      17.395  10.170   5.112  0.00  0.00    +0.077 A 
ATOM      5  C   UNL     1      17.356   9.346   6.285  0.00  0.00    +0.048 A 
ATOM      6  C   UNL     1      16.370   8.336   6.336  0.00  0.00    +0.116 A 
ATOM      7  N   UNL     1      15.492   8.171   5.286  0.00  0.00    -0.223 NA
ATOM      8  C   UNL     1      15.556   8.985   4.170  0.00  0.00    +0.220 A 
ATOM      9  N   UNL     1      14.689   8.832   3.099  0.00  0.00    -0.283 N 
ATOM     36  H   UNL     1      14.763   9.457   2.297  0.00  0.00    +0.155 HD
ATOM     37  N   UNL     1      16.488   9.957   4.097  0.00  0.00    -0.214 NA
BRANCH   4   3
ATOM      1  C   UNL     1      19.349  13.541   5.461  0.00  0.00    +0.020 A 
ATOM      2  C   UNL     1      18.373  12.502   5.698  0.00  0.00    +0.013 A 
ATOM      3  C   UNL     1      18.382  11.277   4.908  0.00  0.00    +0.019 A 
ATOM     38  C   UNL     1      19.400  11.134   3.878  0.00  0.00    +0.120 A 
ATOM     39  N   UNL     1      20.326  12.151   3.672  0.00  0.00    -0.263 NA
ATOM     40  C   UNL     1      20.326  13.335   4.425  0.00  0.00    +0.111 A 
ENDBRANCH   4   3
ENDBRANCH  10   9
BRANCH  12  13
ATOM     13  N   UNL     1      13.373   4.133   2.127  0.00  0.00    -0.281 N 
ATOM     14  C   UNL     1      13.633   3.731   0.827  0.00  0.00    +0.248 C 
ATOM     30  O   UNL     1      13.444   4.424  -0.161  0.00  0.00    -0.270 OA
ATOM     31  H   UNL     1      13.390   3.399   2.835  0.00  0.00    +0.155 HD
BRANCH  14  15
ATOM     15  C   UNL     1      14.168   2.355   0.590  0.00  0.00    +0.037 A 
ATOM     16  C   UNL     1      15.601   2.120   0.398  0.00  0.00    +0.013 A 
ATOM     17  C   UNL     1      16.088   0.785   0.154  0.00  0.00    +0.005 A 
ATOM     18  C   UNL     1      15.140  -0.325   0.103  0.00  0.00    -0.033 A 
ATOM     28  C   UNL     1      13.724  -0.064   0.302  0.00  0.00    +0.005 A 
ATOM     29  C   UNL     1      13.243   1.243   0.541  0.00  0.00    +0.013 A 
BRANCH  18  19
ATOM     19  C   UNL     1      15.569  -1.778  -0.173  0.00  0.00    +0.119 C 
BRANCH  19  20
ATOM     20  N   UNL     1      16.082  -2.092  -1.540  0.00  0.00    -0.302 NA
ATOM     21  C   UNL     1      15.284  -3.214  -2.210  0.00  0.00    +0.066 C 
ATOM     22  C   UNL     1      15.820  -3.514  -3.648  0.00  0.00    -0.064 C 
ATOM     23  N   UNL     1      17.304  -3.877  -3.570  0.00  0.00    +0.379 N 
ATOM     24  C   UNL     1      17.797  -4.216  -4.913  0.00  0.00    -0.096 C 
ATOM     25  H   UNL     1      17.396  -4.789  -2.936  0.00  0.00    -0.082 HD
ATOM     26  C   UNL     1      18.104  -2.768  -2.903  0.00  0.00    -0.064 C 
ATOM     27  C   UNL     1      17.545  -2.457  -1.487  0.00  0.00    +0.066 C 
ENDBRANCH  19  20
ENDBRANCH  18  19
ENDBRANCH  14  15
ENDBRANCH  12  13
TORSDOF 6
ENDMDL
MODEL 5
REMARK VINA RESULT:      -7.2      1.061      1.511
REMARK  Name = C:\Users\Docking\Desktop\test protocol\1iep_ligandH.pdb
REMARK  8 active torsions:
REMARK  status: ('A' for Active; 'I' for Inactive)
REMARK    1  A    between atoms: _5  and  _11
REMARK    2  A    between atoms: _19  and  _21
REMARK    3  A    between atoms: _22  and  _66
REMARK    4  A    between atoms: _27  and  _30
REMARK    5  A    between atoms: _32  and  _33
REMARK    6  A    between atoms: _38  and  _43
REMARK    7  A    between atoms: _43  and  _46
REMARK    8  A    between atoms: _53  and  _55
REMARK                            x       y       z     vdW  Elec       q    Type
REMARK                         _______ _______ _______ _____ _____    ______ ____
ROOT
ATOM     10  C   UNL     1      16.165  10.951   5.466  0.00  0.00    +0.038 A 
ATOM     11  C   UNL     1      17.027  12.077   5.438  0.00  0.00    +0.047 A 
ATOM     12  C   UNL     1      18.428  11.962   5.809  0.00  0.00    +0.035 A 
ATOM     32  C   UNL     1      18.920  10.683   6.204  0.00  0.00    +0.024 A 
ATOM     33  C   UNL     1      18.058   9.528   6.240  0.00  0.00    +0.007 A 
ATOM     34  C   UNL     1      16.674   9.636   5.876  0.00  0.00    -0.029 A 
ATOM     35  C   UNL     1      15.794   8.366   5.940  0.00  0.00    +0.045 C 
ENDROOT
BRANCH  10   9
ATOM      4  C   UNL     1      11.522  11.529   6.537  0.00  0.00    +0.077 A 
ATOM      5  C   UNL     1      11.778  11.466   7.947  0.00  0.00    +0.048 A 
ATOM      6  C   UNL     1      13.118  11.276   8.355  0.00  0.00    +0.116 A 
ATOM      7  N   UNL     1      14.118  11.160   7.415  0.00  0.00    -0.223 NA
ATOM      8  C   UNL     1      13.837  11.224   6.062  0.00  0.00    +0.220 A 
ATOM      9  N   UNL     1      14.828  11.118   5.099  0.00  0.00    -0.283 N 
ATOM     36  H   UNL     1      14.578  11.163   4.111  0.00  0.00    +0.155 HD
ATOM     37  N   UNL     1      12.565  11.403   5.647  0.00  0.00    -0.214 NA
BRANCH   4   3
ATOM      1  C   UNL     1       7.717  12.337   6.122  0.00  0.00    +0.020 A 
ATOM      2  C   UNL     1       9.012  12.158   6.738  0.00  0.00    +0.013 A 
ATOM      3  C   UNL     1      10.160  11.729   5.949  0.00  0.00    +0.019 A 
ATOM     38  C   UNL     1       9.963  11.488   4.528  0.00  0.00    +0.120 A 
ATOM     39  N   UNL     1       8.704  11.667   3.962  0.00  0.00    -0.263 NA
ATOM     40  C   UNL     1       7.592  12.078   4.712  0.00  0.00    +0.111 A 
ENDBRANCH   4   3
ENDBRANCH  10   9
BRANCH  12  13
ATOM     13  N   UNL     1      19.349  13.072   5.807  0.00  0.00    -0.281 N 
ATOM     14  C   UNL     1      19.992  13.642   4.721  0.00  0.00    +0.248 C 
ATOM     30  O   UNL     1      20.038  13.145   3.606  0.00  0.00    -0.270 OA
ATOM     31  H   UNL     1      19.550  13.487   6.717  0.00  0.00    +0.155 HD
BRANCH  14  15
ATOM     15  C   UNL     1      20.698  14.947   4.904  0.00  0.00    +0.037 A 
ATOM     16  C   UNL     1      20.572  15.712   6.147  0.00  0.00    +0.013 A 
ATOM     17  C   UNL     1      21.251  16.975   6.291  0.00  0.00    +0.005 A 
ATOM     18  C   UNL     1      22.063  17.482   5.187  0.00  0.00    -0.033 A 
ATOM     28  C   UNL     1      22.175  16.700   3.967  0.00  0.00    +0.005 A 
ATOM     29  C   UNL     1      21.510  15.462   3.822  0.00  0.00    +0.013 A 
BRANCH  18  19
ATOM     19  C   UNL     1      22.804  18.830   5.245  0.00  0.00    +0.119 C 
BRANCH  19  20
ATOM     20  N   UNL     1      21.982  20.053   5.489  0.00  0.00    -0.302 NA
ATOM     21  C   UNL     1      21.817  20.346   6.983  0.00  0.00    +0.066 C 
ATOM     22  C   UNL     1      20.974  21.641   7.219  0.00  0.00    -0.064 C 
ATOM     23  N   UNL     1      19.610  21.488   6.543  0.00  0.00    +0.379 N 
ATOM     24  C   UNL     1      18.793  22.680   6.813  0.00  0.00    -0.096 C 
ATOM     25  H   UNL     1      19.098  20.614   7.009  0.00  0.00    -0.082 HD
ATOM     26  C   UNL     1      19.765  21.194   5.058  0.00  0.00    -0.064 C 
ATOM     27  C   UNL     1      20.629  19.922   4.833  0.00  0.00    +0.066 C 
ENDBRANCH  19  20
ENDBRANCH  18  19
ENDBRANCH  14  15
ENDBRANCH  12  13
TORSDOF 6
ENDMDL
