MODEL 1
REMARK VINA RESULT:      -7.4      0.000      0.000
REMARK  Name = C:\Users\Docking\Desktop\test protocol\1iep_ligandH.pdb
REMARK  8 active torsions:
REMARK  status: ('A' for Active; 'I' for Inactive)
REMARK    1  A    between atoms: _5  and  _11
REMARK    2  A    between atoms: _19  and  _21
REMARK    3  A    between atoms: _22  and  _66
REMARK    4  A    between atoms: _27  and  _30
REMARK    5  A    between atoms: _32  and  _33
REMARK    6  A    between atoms: _38  and  _43
REMARK    7  A    between atoms: _43  and  _46
REMARK    8  A    between atoms: _53  and  _55
REMARK                            x       y       z     vdW  Elec       q    Type
REMARK                         _______ _______ _______ _____ _____    ______ ____
ROOT
ATOM     10  C   UNL     1       3.976 -29.960   0.412  0.00  0.00    +0.038 A 
ATOM     11  C   UNL     1       2.939 -29.069   0.035  0.00  0.00    +0.047 A 
ATOM     12  C   UNL     1       2.112 -28.411   1.034  0.00  0.00    +0.035 A 
ATOM     32  C   UNL     1       2.370 -28.681   2.409  0.00  0.00    +0.024 A 
ATOM     33  C   UNL     1       3.420 -29.585   2.810  0.00  0.00    +0.007 A 
ATOM     34  C   UNL     1       4.238 -30.239   1.829  0.00  0.00    -0.029 A 
ATOM     35  C   UNL     1       5.344 -31.203   2.316  0.00  0.00    +0.045 C 
ENDROOT
BRANCH  10   9
ATOM      4  C   UNL     1       4.548 -33.138  -3.140  0.00  0.00    +0.077 A 
ATOM      5  C   UNL     1       3.221 -33.657  -2.968  0.00  0.00    +0.048 A 
ATOM      6  C   UNL     1       2.427 -33.083  -1.950  0.00  0.00    +0.116 A 
ATOM      7  N   UNL     1       2.931 -32.067  -1.168  0.00  0.00    -0.223 NA
ATOM      8  C   UNL     1       4.215 -31.591  -1.359  0.00  0.00    +0.220 A 
ATOM      9  N   UNL     1       4.740 -30.564  -0.589  0.00  0.00    -0.283 N 
ATOM     36  H   UNL     1       5.695 -30.246  -0.756  0.00  0.00    +0.155 HD
ATOM     37  N   UNL     1       4.995 -32.123  -2.323  0.00  0.00    -0.214 NA
BRANCH   4   3
ATOM      1  C   UNL     1       7.765 -33.674  -5.299  0.00  0.00    +0.020 A 
ATOM      2  C   UNL     1       6.879 -33.158  -4.281  0.00  0.00    +0.013 A 
ATOM      3  C   UNL     1       5.507 -33.638  -4.175  0.00  0.00    +0.019 A 
ATOM     38  C   UNL     1       5.060 -34.649  -5.120  0.00  0.00    +0.120 A 
ATOM     39  N   UNL     1       5.935 -35.127  -6.091  0.00  0.00    -0.263 NA
ATOM     40  C   UNL     1       7.257 -34.671  -6.204  0.00  0.00    +0.111 A 
ENDBRANCH   4   3
ENDBRANCH  10   9
BRANCH  12  13
ATOM     13  N   UNL     1       1.039 -27.503   0.710  0.00  0.00    -0.281 N 
ATOM     14  C   UNL     1       0.926 -26.165   1.049  0.00  0.00    +0.248 C 
ATOM     30  O   UNL     1       1.632 -25.596   1.868  0.00  0.00    -0.270 OA
ATOM     31  H   UNL     1       0.271 -27.895   0.166  0.00  0.00    +0.155 HD
BRANCH  14  15
ATOM     15  C   UNL     1      -0.136 -25.342   0.393  0.00  0.00    +0.037 A 
ATOM     16  C   UNL     1      -0.041 -24.964  -1.020  0.00  0.00    +0.013 A 
ATOM     17  C   UNL     1      -1.070 -24.156  -1.623  0.00  0.00    +0.005 A 
ATOM     18  C   UNL     1      -2.205 -23.720  -0.814  0.00  0.00    -0.033 A 
ATOM     28  C   UNL     1      -2.277 -24.113   0.584  0.00  0.00    +0.005 A 
ATOM     29  C   UNL     1      -1.270 -24.905   1.179  0.00  0.00    +0.013 A 
BRANCH  18  19
ATOM     19  C   UNL     1      -3.339 -22.838  -1.369  0.00  0.00    +0.119 C 
BRANCH  19  20
ATOM     20  N   UNL     1      -4.630 -22.832  -0.619  0.00  0.00    -0.302 NA
ATOM     21  C   UNL     1      -5.589 -23.916  -1.118  0.00  0.00    +0.066 C 
ATOM     22  C   UNL     1      -6.927 -23.910  -0.308  0.00  0.00    -0.064 C 
ATOM     23  N   UNL     1      -7.574 -22.528  -0.407  0.00  0.00    +0.379 N 
ATOM     24  C   UNL     1      -8.860 -22.536   0.305  0.00  0.00    -0.096 C 
ATOM     25  H   UNL     1      -7.784 -22.330  -1.484  0.00  0.00    -0.082 HD
ATOM     26  C   UNL     1      -6.626 -21.443   0.084  0.00  0.00    -0.064 C 
ATOM     27  C   UNL     1      -5.289 -21.477  -0.708  0.00  0.00    +0.066 C 
ENDBRANCH  19  20
ENDBRANCH  18  19
ENDBRANCH  14  15
ENDBRANCH  12  13
TORSDOF 6
ENDMDL
MODEL 2
REMARK VINA RESULT:      -7.4     19.134     24.272
REMARK  Name = C:\Users\Docking\Desktop\test protocol\1iep_ligandH.pdb
REMARK  8 active torsions:
REMARK  status: ('A' for Active; 'I' for Inactive)
REMARK    1  A    between atoms: _5  and  _11
REMARK    2  A    between atoms: _19  and  _21
REMARK    3  A    between atoms: _22  and  _66
REMARK    4  A    between atoms: _27  and  _30
REMARK    5  A    between atoms: _32  and  _33
REMARK    6  A    between atoms: _38  and  _43
REMARK    7  A    between atoms: _43  and  _46
REMARK    8  A    between atoms: _53  and  _55
REMARK                            x       y       z     vdW  Elec       q    Type
REMARK                         _______ _______ _______ _____ _____    ______ ____
ROOT
ATOM     10  C   UNL     1      -6.634 -11.741   5.495  0.00  0.00    +0.038 A 
ATOM     11  C   UNL     1      -5.862 -10.553   5.550  0.00  0.00    +0.047 A 
ATOM     12  C   UNL     1      -4.465 -10.582   5.955  0.00  0.00    +0.035 A 
ATOM     32  C   UNL     1      -3.885 -11.839   6.293  0.00  0.00    +0.024 A 
ATOM     33  C   UNL     1      -4.656 -13.056   6.243  0.00  0.00    +0.007 A 
ATOM     34  C   UNL     1      -6.035 -13.034   5.848  0.00  0.00    -0.029 A 
ATOM     35  C   UNL     1      -6.815 -14.369   5.818  0.00  0.00    +0.045 C 
ENDROOT
BRANCH  10   9
ATOM      4  C   UNL     1     -11.317 -11.329   6.466  0.00  0.00    +0.077 A 
ATOM      5  C   UNL     1     -11.082 -11.311   7.881  0.00  0.00    +0.048 A 
ATOM      6  C   UNL     1      -9.742 -11.416   8.318  0.00  0.00    +0.116 A 
ATOM      7  N   UNL     1      -8.722 -11.532   7.400  0.00  0.00    -0.223 NA
ATOM      8  C   UNL     1      -8.983 -11.548   6.042  0.00  0.00    +0.220 A 
ATOM      9  N   UNL     1      -7.971 -11.655   5.100  0.00  0.00    -0.283 N 
ATOM     36  H   UNL     1      -8.206 -11.671   4.108  0.00  0.00    +0.155 HD
ATOM     37  N   UNL     1     -10.254 -11.450   5.599  0.00  0.00    -0.214 NA
BRANCH   4   3
ATOM      1  C   UNL     1     -15.152 -10.752   5.962  0.00  0.00    +0.020 A 
ATOM      2  C   UNL     1     -13.862 -10.840   6.606  0.00  0.00    +0.013 A 
ATOM      3  C   UNL     1     -12.677 -11.223   5.850  0.00  0.00    +0.019 A 
ATOM     38  C   UNL     1     -12.832 -11.513   4.432  0.00  0.00    +0.120 A 
ATOM     39  N   UNL     1     -14.088 -11.421   3.839  0.00  0.00    -0.263 NA
ATOM     40  C   UNL     1     -15.236 -11.055   4.558  0.00  0.00    +0.111 A 
ENDBRANCH   4   3
ENDBRANCH  10   9
BRANCH  12  13
ATOM     13  N   UNL     1      -3.633  -9.407   6.037  0.00  0.00    -0.281 N 
ATOM     14  C   UNL     1      -3.083  -8.677   4.996  0.00  0.00    +0.248 C 
ATOM     30  O   UNL     1      -3.048  -9.051   3.833  0.00  0.00    -0.270 OA
ATOM     31  H   UNL     1      -3.424  -9.072   6.978  0.00  0.00    +0.155 HD
BRANCH  14  15
ATOM     15  C   UNL     1      -2.472  -7.346   5.291  0.00  0.00    +0.037 A 
ATOM     16  C   UNL     1      -1.065  -7.225   5.682  0.00  0.00    +0.013 A 
ATOM     17  C   UNL     1      -0.505  -5.931   5.978  0.00  0.00    +0.005 A 
ATOM     18  C   UNL     1      -1.352  -4.745   5.882  0.00  0.00    -0.033 A 
ATOM     28  C   UNL     1      -2.743  -4.892   5.487  0.00  0.00    +0.005 A 
ATOM     29  C   UNL     1      -3.296  -6.159   5.197  0.00  0.00    +0.013 A 
BRANCH  18  19
ATOM     19  C   UNL     1      -0.844  -3.326   6.199  0.00  0.00    +0.119 C 
BRANCH  19  20
ATOM     20  N   UNL     1      -1.713  -2.464   7.055  0.00  0.00    -0.302 NA
ATOM     21  C   UNL     1      -2.239  -1.243   6.293  0.00  0.00    +0.066 C 
ATOM     22  C   UNL     1      -3.165  -0.365   7.196  0.00  0.00    -0.064 C 
ATOM     23  N   UNL     1      -2.394   0.067   8.445  0.00  0.00    +0.379 N 
ATOM     24  C   UNL     1      -3.243   0.941   9.268  0.00  0.00    -0.096 C 
ATOM     25  H   UNL     1      -1.516   0.666   8.110  0.00  0.00    -0.082 HD
ATOM     26  C   UNL     1      -1.865  -1.140   9.206  0.00  0.00    -0.064 C 
ATOM     27  C   UNL     1      -0.970  -2.022   8.292  0.00  0.00    +0.066 C 
ENDBRANCH  19  20
ENDBRANCH  18  19
ENDBRANCH  14  15
ENDBRANCH  12  13
TORSDOF 6
ENDMDL
MODEL 3
REMARK VINA RESULT:      -7.2      5.671      8.454
REMARK  Name = C:\Users\Docking\Desktop\test protocol\1iep_ligandH.pdb
REMARK  8 active torsions:
REMARK  status: ('A' for Active; 'I' for Inactive)
REMARK    1  A    between atoms: _5  and  _11
REMARK    2  A    between atoms: _19  and  _21
REMARK    3  A    between atoms: _22  and  _66
REMARK    4  A    between atoms: _27  and  _30
REMARK    5  A    between atoms: _32  and  _33
REMARK    6  A    between atoms: _38  and  _43
REMARK    7  A    between atoms: _43  and  _46
REMARK    8  A    between atoms: _53  and  _55
REMARK                            x       y       z     vdW  Elec       q    Type
REMARK                         _______ _______ _______ _____ _____    ______ ____
ROOT
ATOM     10  C   UNL     1       2.924 -32.567  -3.784  0.00  0.00    +0.038 A 
ATOM     11  C   UNL     1       1.658 -32.223  -4.324  0.00  0.00    +0.047 A 
ATOM     12  C   UNL     1       1.368 -32.404  -5.738  0.00  0.00    +0.035 A 
ATOM     32  C   UNL     1       2.391 -32.941  -6.573  0.00  0.00    +0.024 A 
ATOM     33  C   UNL     1       3.683 -33.295  -6.042  0.00  0.00    +0.007 A 
ATOM     34  C   UNL     1       3.975 -33.116  -4.648  0.00  0.00    -0.029 A 
ATOM     35  C   UNL     1       5.381 -33.507  -4.134  0.00  0.00    +0.045 C 
ENDROOT
BRANCH  10   9
ATOM      4  C   UNL     1       3.396 -29.740   0.066  0.00  0.00    +0.077 A 
ATOM      5  C   UNL     1       3.209 -28.549  -0.711  0.00  0.00    +0.048 A 
ATOM      6  C   UNL     1       3.000 -28.707  -2.100  0.00  0.00    +0.116 A 
ATOM      7  N   UNL     1       2.983 -29.967  -2.658  0.00  0.00    -0.223 NA
ATOM      8  C   UNL     1       3.169 -31.095  -1.880  0.00  0.00    +0.220 A 
ATOM      9  N   UNL     1       3.147 -32.372  -2.419  0.00  0.00    -0.283 N 
ATOM     36  H   UNL     1       3.296 -33.178  -1.813  0.00  0.00    +0.155 HD
ATOM     37  N   UNL     1       3.371 -30.971  -0.552  0.00  0.00    -0.214 NA
BRANCH   4   3
ATOM      1  C   UNL     1       2.886 -29.315   3.921  0.00  0.00    +0.020 A 
ATOM      2  C   UNL     1       2.616 -29.297   2.502  0.00  0.00    +0.013 A 
ATOM      3  C   UNL     1       3.624 -29.738   1.546  0.00  0.00    +0.019 A 
ATOM     38  C   UNL     1       4.906 -30.194   2.063  0.00  0.00    +0.120 A 
ATOM     39  N   UNL     1       5.138 -30.199   3.435  0.00  0.00    -0.263 NA
ATOM     40  C   UNL     1       4.176 -29.776   4.364  0.00  0.00    +0.111 A 
ENDBRANCH   4   3
ENDBRANCH  10   9
BRANCH  12  13
ATOM     13  N   UNL     1       0.105 -32.065  -6.344  0.00  0.00    -0.281 N 
ATOM     14  C   UNL     1      -0.994 -32.886  -6.538  0.00  0.00    +0.248 C 
ATOM     30  O   UNL     1      -0.979 -34.102  -6.412  0.00  0.00    -0.270 OA
ATOM     31  H   UNL     1       0.008 -31.103  -6.669  0.00  0.00    +0.155 HD
BRANCH  14  15
ATOM     15  C   UNL     1      -2.293 -32.270  -6.945  0.00  0.00    +0.037 A 
ATOM     16  C   UNL     1      -2.661 -32.134  -8.357  0.00  0.00    +0.013 A 
ATOM     17  C   UNL     1      -3.913 -31.520  -8.723  0.00  0.00    +0.005 A 
ATOM     18  C   UNL     1      -4.807 -31.038  -7.674  0.00  0.00    -0.033 A 
ATOM     28  C   UNL     1      -4.420 -31.190  -6.281  0.00  0.00    +0.005 A 
ATOM     29  C   UNL     1      -3.194 -31.790  -5.918  0.00  0.00    +0.013 A 
BRANCH  18  19
ATOM     19  C   UNL     1      -6.153 -30.351  -7.973  0.00  0.00    +0.119 C 
BRANCH  19  20
ATOM     20  N   UNL     1      -6.680 -29.403  -6.946  0.00  0.00    -0.302 NA
ATOM     21  C   UNL     1      -8.014 -29.875  -6.359  0.00  0.00    +0.066 C 
ATOM     22  C   UNL     1      -8.539 -28.884  -5.271  0.00  0.00    -0.064 C 
ATOM     23  N   UNL     1      -8.679 -27.488  -5.881  0.00  0.00    +0.379 N 
ATOM     24  C   UNL     1      -9.228 -26.566  -4.876  0.00  0.00    -0.096 C 
ATOM     25  H   UNL     1      -9.415 -27.556  -6.715  0.00  0.00    -0.082 HD
ATOM     26  C   UNL     1      -7.358 -27.012  -6.469  0.00  0.00    -0.064 C 
ATOM     27  C   UNL     1      -6.830 -28.020  -7.528  0.00  0.00    +0.066 C 
ENDBRANCH  19  20
ENDBRANCH  18  19
ENDBRANCH  14  15
ENDBRANCH  12  13
TORSDOF 6
ENDMDL
MODEL 4
REMARK VINA RESULT:      -7.2      9.243     17.997
REMARK  Name = C:\Users\Docking\Desktop\test protocol\1iep_ligandH.pdb
REMARK  8 active torsions:
REMARK  status: ('A' for Active; 'I' for Inactive)
REMARK    1  A    between atoms: _5  and  _11
REMARK    2  A    between atoms: _19  and  _21
REMARK    3  A    between atoms: _22  and  _66
REMARK    4  A    between atoms: _27  and  _30
REMARK    5  A    between atoms: _32  and  _33
REMARK    6  A    between atoms: _38  and  _43
REMARK    7  A    between atoms: _43  and  _46
REMARK    8  A    between atoms: _53  and  _55
REMARK                            x       y       z     vdW  Elec       q    Type
REMARK                         _______ _______ _______ _____ _____    ______ ____
ROOT
ATOM     10  C   UNL     1      -9.119 -14.928   3.027  0.00  0.00    +0.038 A 
ATOM     11  C   UNL     1      -8.771 -16.234   2.598  0.00  0.00    +0.047 A 
ATOM     12  C   UNL     1      -9.754 -17.307   2.579  0.00  0.00    +0.035 A 
ATOM     32  C   UNL     1     -11.083 -17.013   3.002  0.00  0.00    +0.024 A 
ATOM     33  C   UNL     1     -11.454 -15.691   3.442  0.00  0.00    +0.007 A 
ATOM     34  C   UNL     1     -10.488 -14.629   3.465  0.00  0.00    -0.029 A 
ATOM     35  C   UNL     1     -10.940 -13.233   3.953  0.00  0.00    +0.045 C 
ENDROOT
BRANCH  10   9
ATOM      4  C   UNL     1      -5.416 -12.634   5.044  0.00  0.00    +0.077 A 
ATOM      5  C   UNL     1      -5.462 -13.465   6.212  0.00  0.00    +0.048 A 
ATOM      6  C   UNL     1      -6.458 -14.466   6.258  0.00  0.00    +0.116 A 
ATOM      7  N   UNL     1      -7.337 -14.617   5.208  0.00  0.00    -0.223 NA
ATOM      8  C   UNL     1      -7.267 -13.797   4.096  0.00  0.00    +0.220 A 
ATOM      9  N   UNL     1      -8.136 -13.936   3.025  0.00  0.00    -0.283 N 
ATOM     36  H   UNL     1      -8.056 -13.307   2.226  0.00  0.00    +0.155 HD
ATOM     37  N   UNL     1      -6.326 -12.833   4.029  0.00  0.00    -0.214 NA
BRANCH   4   3
ATOM      1  C   UNL     1      -3.449  -9.271   5.391  0.00  0.00    +0.020 A 
ATOM      2  C   UNL     1      -4.435 -10.302   5.622  0.00  0.00    +0.013 A 
ATOM      3  C   UNL     1      -4.419 -11.535   4.845  0.00  0.00    +0.019 A 
ATOM     38  C   UNL     1      -3.384 -11.696   3.835  0.00  0.00    +0.120 A 
ATOM     39  N   UNL     1      -2.449 -10.685   3.634  0.00  0.00    -0.263 NA
ATOM     40  C   UNL     1      -2.455  -9.494   4.375  0.00  0.00    +0.111 A 
ENDBRANCH   4   3
ENDBRANCH  10   9
BRANCH  12  13
ATOM     13  N   UNL     1      -9.457 -18.655   2.162  0.00  0.00    -0.281 N 
ATOM     14  C   UNL     1      -9.535 -19.187   0.885  0.00  0.00    +0.248 C 
ATOM     30  O   UNL     1     -10.080 -18.638  -0.060  0.00  0.00    -0.270 OA
ATOM     31  H   UNL     1      -9.152 -19.293   2.896  0.00  0.00    +0.155 HD
BRANCH  14  15
ATOM     15  C   UNL     1      -8.933 -20.530   0.626  0.00  0.00    +0.037 A 
ATOM     16  C   UNL     1      -7.510 -20.677   0.308  0.00  0.00    +0.013 A 
ATOM     17  C   UNL     1      -6.958 -21.983   0.045  0.00  0.00    +0.005 A 
ATOM     18  C   UNL     1      -7.831 -23.153   0.100  0.00  0.00    -0.033 A 
ATOM     28  C   UNL     1      -9.238 -22.979   0.422  0.00  0.00    +0.005 A 
ATOM     29  C   UNL     1      -9.782 -21.701   0.680  0.00  0.00    +0.013 A 
BRANCH  18  19
ATOM     19  C   UNL     1      -7.333 -24.582  -0.188  0.00  0.00    +0.119 C 
BRANCH  19  20
ATOM     20  N   UNL     1      -6.762 -24.847  -1.542  0.00  0.00    -0.302 NA
ATOM     21  C   UNL     1      -7.549 -25.923  -2.296  0.00  0.00    +0.066 C 
ATOM     22  C   UNL     1      -6.951 -26.172  -3.719  0.00  0.00    -0.064 C 
ATOM     23  N   UNL     1      -5.480 -26.569  -3.589  0.00  0.00    +0.379 N 
ATOM     24  C   UNL     1      -4.930 -26.860  -4.921  0.00  0.00    -0.096 C 
ATOM     25  H   UNL     1      -5.435 -27.509  -2.992  0.00  0.00    -0.082 HD
ATOM     26  C   UNL     1      -4.690 -25.506  -2.838  0.00  0.00    -0.064 C 
ATOM     27  C   UNL     1      -5.310 -25.245  -1.436  0.00  0.00    +0.066 C 
ENDBRANCH  19  20
ENDBRANCH  18  19
ENDBRANCH  14  15
ENDBRANCH  12  13
TORSDOF 6
ENDMDL
MODEL 5
REMARK VINA RESULT:      -7.2      5.567      8.234
REMARK  Name = C:\Users\Docking\Desktop\test protocol\1iep_ligandH.pdb
REMARK  8 active torsions:
REMARK  status: ('A' for Active; 'I' for Inactive)
REMARK    1  A    between atoms: _5  and  _11
REMARK    2  A    between atoms: _19  and  _21
REMARK    3  A    between atoms: _22  and  _66
REMARK    4  A    between atoms: _27  and  _30
REMARK    5  A    between atoms: _32  and  _33
REMARK    6  A    between atoms: _38  and  _43
REMARK    7  A    between atoms: _43  and  _46
REMARK    8  A    between atoms: _53  and  _55
REMARK                            x       y       z     vdW  Elec       q    Type
REMARK                         _______ _______ _______ _____ _____    ______ ____
ROOT
ATOM     10  C   UNL     1       2.826 -32.077  -2.212  0.00  0.00    +0.038 A 
ATOM     11  C   UNL     1       1.510 -31.739  -2.616  0.00  0.00    +0.047 A 
ATOM     12  C   UNL     1       1.089 -31.878  -4.002  0.00  0.00    +0.035 A 
ATOM     32  C   UNL     1       2.034 -32.369  -4.949  0.00  0.00    +0.024 A 
ATOM     33  C   UNL     1       3.377 -32.717  -4.555  0.00  0.00    +0.007 A 
ATOM     34  C   UNL     1       3.799 -32.579  -3.191  0.00  0.00    -0.029 A 
ATOM     35  C   UNL     1       5.252 -32.961  -2.827  0.00  0.00    +0.045 C 
ENDROOT
BRANCH  10   9
ATOM      4  C   UNL     1       3.443 -29.397   1.721  0.00  0.00    +0.077 A 
ATOM      5  C   UNL     1       3.060 -28.196   1.035  0.00  0.00    +0.048 A 
ATOM      6  C   UNL     1       2.718 -28.311  -0.331  0.00  0.00    +0.116 A 
ATOM      7  N   UNL     1       2.760 -29.539  -0.954  0.00  0.00    -0.223 NA
ATOM      8  C   UNL     1       3.136 -30.677  -0.264  0.00  0.00    +0.220 A 
ATOM      9  N   UNL     1       3.177 -31.923  -0.869  0.00  0.00    -0.283 N 
ATOM     36  H   UNL     1       3.466 -32.737  -0.327  0.00  0.00    +0.155 HD
ATOM     37  N   UNL     1       3.468 -30.594   1.041  0.00  0.00    -0.214 NA
BRANCH   4   3
ATOM      1  C   UNL     1       3.275 -29.551   5.626  0.00  0.00    +0.020 A 
ATOM      2  C   UNL     1       2.850 -29.512   4.246  0.00  0.00    +0.013 A 
ATOM      3  C   UNL     1       3.828 -29.439   3.168  0.00  0.00    +0.019 A 
ATOM     38  C   UNL     1       5.239 -29.407   3.523  0.00  0.00    +0.120 A 
ATOM     39  N   UNL     1       5.618 -29.444   4.861  0.00  0.00    -0.263 NA
ATOM     40  C   UNL     1       4.686 -29.513   5.907  0.00  0.00    +0.111 A 
ENDBRANCH   4   3
ENDBRANCH  10   9
BRANCH  12  13
ATOM     13  N   UNL     1      -0.232 -31.543  -4.473  0.00  0.00    -0.281 N 
ATOM     14  C   UNL     1      -0.617 -30.437  -5.214  0.00  0.00    +0.248 C 
ATOM     30  O   UNL     1       0.085 -29.455  -5.404  0.00  0.00    -0.270 OA
ATOM     31  H   UNL     1      -0.974 -32.200  -4.230  0.00  0.00    +0.155 HD
BRANCH  14  15
ATOM     15  C   UNL     1      -1.983 -30.414  -5.820  0.00  0.00    +0.037 A 
ATOM     16  C   UNL     1      -2.488 -29.224  -6.509  0.00  0.00    +0.013 A 
ATOM     17  C   UNL     1      -3.816 -29.223  -7.070  0.00  0.00    +0.005 A 
ATOM     18  C   UNL     1      -4.647 -30.418  -6.945  0.00  0.00    -0.033 A 
ATOM     28  C   UNL     1      -4.119 -31.586  -6.262  0.00  0.00    +0.005 A 
ATOM     29  C   UNL     1      -2.818 -31.591  -5.710  0.00  0.00    +0.013 A 
BRANCH  18  19
ATOM     19  C   UNL     1      -6.084 -30.498  -7.495  0.00  0.00    +0.119 C 
BRANCH  19  20
ATOM     20  N   UNL     1      -7.200 -30.278  -6.527  0.00  0.00    -0.302 NA
ATOM     21  C   UNL     1      -8.536 -30.799  -7.062  0.00  0.00    +0.066 C 
ATOM     22  C   UNL     1      -9.688 -30.581  -6.028  0.00  0.00    -0.064 C 
ATOM     23  N   UNL     1      -9.786 -29.094  -5.684  0.00  0.00    +0.379 N 
ATOM     24  C   UNL     1     -10.905 -28.878  -4.756  0.00  0.00    -0.096 C 
ATOM     25  H   UNL     1     -10.016 -28.544  -6.626  0.00  0.00    -0.082 HD
ATOM     26  C   UNL     1      -8.460 -28.566  -5.154  0.00  0.00    -0.064 C 
ATOM     27  C   UNL     1      -7.317 -28.815  -6.177  0.00  0.00    +0.066 C 
ENDBRANCH  19  20
ENDBRANCH  18  19
ENDBRANCH  14  15
ENDBRANCH  12  13
TORSDOF 6
ENDMDL
