MODEL 1
REMARK VINA RESULT:      -7.6      0.000      0.000
REMARK  Name = C:\Users\Docking\Desktop\test protocol\1iep_ligandH.pdb
REMARK  8 active torsions:
REMARK  status: ('A' for Active; 'I' for Inactive)
REMARK    1  A    between atoms: _5  and  _11
REMARK    2  A    between atoms: _19  and  _21
REMARK    3  A    between atoms: _22  and  _66
REMARK    4  A    between atoms: _27  and  _30
REMARK    5  A    between atoms: _32  and  _33
REMARK    6  A    between atoms: _38  and  _43
REMARK    7  A    between atoms: _43  and  _46
REMARK    8  A    between atoms: _53  and  _55
REMARK                            x       y       z     vdW  Elec       q    Type
REMARK                         _______ _______ _______ _____ _____    ______ ____
ROOT
ATOM     10  C   UNL     1       0.393 -23.357  23.648  0.00  0.00    +0.038 A 
ATOM     11  C   UNL     1      -0.840 -24.035  23.827  0.00  0.00    +0.047 A 
ATOM     12  C   UNL     1      -0.885 -25.479  23.998  0.00  0.00    +0.035 A 
ATOM     32  C   UNL     1       0.344 -26.201  23.984  0.00  0.00    +0.024 A 
ATOM     33  C   UNL     1       1.605 -25.527  23.802  0.00  0.00    +0.007 A 
ATOM     34  C   UNL     1       1.657 -24.103  23.631  0.00  0.00    -0.029 A 
ATOM     35  C   UNL     1       3.037 -23.434  23.433  0.00  0.00    +0.045 C 
ENDROOT
BRANCH  10   9
ATOM      4  C   UNL     1       0.227 -18.895  25.411  0.00  0.00    +0.077 A 
ATOM      5  C   UNL     1       0.135 -19.369  26.762  0.00  0.00    +0.048 A 
ATOM      6  C   UNL     1       0.126 -20.768  26.960  0.00  0.00    +0.116 A 
ATOM      7  N   UNL     1       0.204 -21.620  25.880  0.00  0.00    -0.223 NA
ATOM      8  C   UNL     1       0.291 -21.130  24.590  0.00  0.00    +0.220 A 
ATOM      9  N   UNL     1       0.378 -21.969  23.489  0.00  0.00    -0.283 N 
ATOM     36  H   UNL     1       0.433 -21.568  22.553  0.00  0.00    +0.155 HD
ATOM     37  N   UNL     1       0.300 -19.798  24.374  0.00  0.00    -0.214 NA
BRANCH   4   3
ATOM      1  C   UNL     1      -0.469 -15.487  23.623  0.00  0.00    +0.020 A 
ATOM      2  C   UNL     1      -0.528 -16.896  23.939  0.00  0.00    +0.013 A 
ATOM      3  C   UNL     1       0.252 -17.445  25.041  0.00  0.00    +0.019 A 
ATOM     38  C   UNL     1       1.087 -16.535  25.809  0.00  0.00    +0.120 A 
ATOM     39  N   UNL     1       1.125 -15.183  25.481  0.00  0.00    -0.263 NA
ATOM     40  C   UNL     1       0.380 -14.644  24.422  0.00  0.00    +0.111 A 
ENDBRANCH   4   3
ENDBRANCH  10   9
BRANCH  12  13
ATOM     13  N   UNL     1      -2.107 -26.224  24.176  0.00  0.00    -0.281 N 
ATOM     14  C   UNL     1      -2.731 -26.567  25.364  0.00  0.00    +0.248 C 
ATOM     30  O   UNL     1      -2.216 -26.468  26.468  0.00  0.00    -0.270 OA
ATOM     31  H   UNL     1      -2.569 -26.536  23.321  0.00  0.00    +0.155 HD
BRANCH  14  15
ATOM     15  C   UNL     1      -4.121 -27.112  25.319  0.00  0.00    +0.037 A 
ATOM     16  C   UNL     1      -4.817 -27.521  26.542  0.00  0.00    +0.013 A 
ATOM     17  C   UNL     1      -6.152 -28.060  26.469  0.00  0.00    +0.005 A 
ATOM     18  C   UNL     1      -6.801 -28.191  25.166  0.00  0.00    -0.033 A 
ATOM     28  C   UNL     1      -6.090 -27.772  23.970  0.00  0.00    +0.005 A 
ATOM     29  C   UNL     1      -4.781 -27.245  24.038  0.00  0.00    +0.013 A 
BRANCH  18  19
ATOM     19  C   UNL     1      -8.216 -28.775  24.992  0.00  0.00    +0.119 C 
BRANCH  19  20
ATOM     20  N   UNL     1      -9.171 -28.008  24.137  0.00  0.00    -0.302 NA
ATOM     21  C   UNL     1      -9.749 -26.793  24.869  0.00  0.00    +0.066 C 
ATOM     22  C   UNL     1     -10.729 -25.990  23.953  0.00  0.00    -0.064 C 
ATOM     23  N   UNL     1     -11.848 -26.916  23.473  0.00  0.00    +0.379 N 
ATOM     24  C   UNL     1     -12.803 -26.150  22.659  0.00  0.00    -0.096 C 
ATOM     25  H   UNL     1     -12.391 -27.285  24.374  0.00  0.00    -0.082 HD
ATOM     26  C   UNL     1     -11.282 -28.128  22.746  0.00  0.00    -0.064 C 
ATOM     27  C   UNL     1     -10.287 -28.902  23.655  0.00  0.00    +0.066 C 
ENDBRANCH  19  20
ENDBRANCH  18  19
ENDBRANCH  14  15
ENDBRANCH  12  13
TORSDOF 6
ENDMDL
MODEL 2
REMARK VINA RESULT:      -7.2     22.143     26.843
REMARK  Name = C:\Users\Docking\Desktop\test protocol\1iep_ligandH.pdb
REMARK  8 active torsions:
REMARK  status: ('A' for Active; 'I' for Inactive)
REMARK    1  A    between atoms: _5  and  _11
REMARK    2  A    between atoms: _19  and  _21
REMARK    3  A    between atoms: _22  and  _66
REMARK    4  A    between atoms: _27  and  _30
REMARK    5  A    between atoms: _32  and  _33
REMARK    6  A    between atoms: _38  and  _43
REMARK    7  A    between atoms: _43  and  _46
REMARK    8  A    between atoms: _53  and  _55
REMARK                            x       y       z     vdW  Elec       q    Type
REMARK                         _______ _______ _______ _____ _____    ______ ____
ROOT
ATOM     10  C   UNL     1      -6.663 -11.891   5.418  0.00  0.00    +0.038 A 
ATOM     11  C   UNL     1      -5.854 -10.727   5.447  0.00  0.00    +0.047 A 
ATOM     12  C   UNL     1      -4.454 -10.793   5.835  0.00  0.00    +0.035 A 
ATOM     32  C   UNL     1      -3.909 -12.063   6.185  0.00  0.00    +0.024 A 
ATOM     33  C   UNL     1      -4.717 -13.257   6.162  0.00  0.00    +0.007 A 
ATOM     34  C   UNL     1      -6.100 -13.197   5.782  0.00  0.00    -0.029 A 
ATOM     35  C   UNL     1      -6.921 -14.508   5.782  0.00  0.00    +0.045 C 
ENDROOT
BRANCH  10   9
ATOM      4  C   UNL     1     -11.321 -11.351   6.441  0.00  0.00    +0.077 A 
ATOM      5  C   UNL     1     -11.070 -11.337   7.853  0.00  0.00    +0.048 A 
ATOM      6  C   UNL     1      -9.729 -11.478   8.275  0.00  0.00    +0.116 A 
ATOM      7  N   UNL     1      -8.723 -11.622   7.345  0.00  0.00    -0.223 NA
ATOM      8  C   UNL     1      -8.999 -11.634   5.991  0.00  0.00    +0.220 A 
ATOM      9  N   UNL     1      -8.002 -11.770   5.038  0.00  0.00    -0.283 N 
ATOM     36  H   UNL     1      -8.248 -11.781   4.048  0.00  0.00    +0.155 HD
ATOM     37  N   UNL     1     -10.272 -11.502   5.562  0.00  0.00    -0.214 NA
BRANCH   4   3
ATOM      1  C   UNL     1     -15.136 -10.624   5.966  0.00  0.00    +0.020 A 
ATOM      2  C   UNL     1     -13.840 -10.744   6.595  0.00  0.00    +0.013 A 
ATOM      3  C   UNL     1     -12.685 -11.210   5.839  0.00  0.00    +0.019 A 
ATOM     38  C   UNL     1     -12.875 -11.548   4.436  0.00  0.00    +0.120 A 
ATOM     39  N   UNL     1     -14.135 -11.424   3.858  0.00  0.00    -0.263 NA
ATOM     40  C   UNL     1     -15.254 -10.979   4.576  0.00  0.00    +0.111 A 
ENDBRANCH   4   3
ENDBRANCH  10   9
BRANCH  12  13
ATOM     13  N   UNL     1      -3.585  -9.643   5.891  0.00  0.00    -0.281 N 
ATOM     14  C   UNL     1      -2.937  -9.014   4.841  0.00  0.00    +0.248 C 
ATOM     30  O   UNL     1      -2.835  -9.477   3.714  0.00  0.00    -0.270 OA
ATOM     31  H   UNL     1      -3.430  -9.245   6.817  0.00  0.00    +0.155 HD
BRANCH  14  15
ATOM     15  C   UNL     1      -2.297  -7.685   5.080  0.00  0.00    +0.037 A 
ATOM     16  C   UNL     1      -0.851  -7.500   4.930  0.00  0.00    +0.013 A 
ATOM     17  C   UNL     1      -0.257  -6.211   5.183  0.00  0.00    +0.005 A 
ATOM     18  C   UNL     1      -1.110  -5.096   5.589  0.00  0.00    -0.033 A 
ATOM     28  C   UNL     1      -2.542  -5.307   5.725  0.00  0.00    +0.005 A 
ATOM     29  C   UNL     1      -3.127  -6.568   5.478  0.00  0.00    +0.013 A 
BRANCH  18  19
ATOM     19  C   UNL     1      -0.559  -3.692   5.900  0.00  0.00    +0.119 C 
BRANCH  19  20
ATOM     20  N   UNL     1      -1.438  -2.771   6.681  0.00  0.00    -0.302 NA
ATOM     21  C   UNL     1      -2.001  -1.642   5.814  0.00  0.00    +0.066 C 
ATOM     22  C   UNL     1      -2.936  -0.700   6.641  0.00  0.00    -0.064 C 
ATOM     23  N   UNL     1      -2.160  -0.134   7.831  0.00  0.00    +0.379 N 
ATOM     24  C   UNL     1      -3.019   0.797   8.578  0.00  0.00    -0.096 C 
ATOM     25  H   UNL     1      -1.300   0.450   7.427  0.00  0.00    -0.082 HD
ATOM     26  C   UNL     1      -1.594  -1.250   8.698  0.00  0.00    -0.064 C 
ATOM     27  C   UNL     1      -0.690  -2.196   7.859  0.00  0.00    +0.066 C 
ENDBRANCH  19  20
ENDBRANCH  18  19
ENDBRANCH  14  15
ENDBRANCH  12  13
TORSDOF 6
ENDMDL
MODEL 3
REMARK VINA RESULT:      -7.2     22.052     26.786
REMARK  Name = C:\Users\Docking\Desktop\test protocol\1iep_ligandH.pdb
REMARK  8 active torsions:
REMARK  status: ('A' for Active; 'I' for Inactive)
REMARK    1  A    between atoms: _5  and  _11
REMARK    2  A    between atoms: _19  and  _21
REMARK    3  A    between atoms: _22  and  _66
REMARK    4  A    between atoms: _27  and  _30
REMARK    5  A    between atoms: _32  and  _33
REMARK    6  A    between atoms: _38  and  _43
REMARK    7  A    between atoms: _43  and  _46
REMARK    8  A    between atoms: _53  and  _55
REMARK                            x       y       z     vdW  Elec       q    Type
REMARK                         _______ _______ _______ _____ _____    ______ ____
ROOT
ATOM     10  C   UNL     1      -6.733 -11.906   5.486  0.00  0.00    +0.038 A 
ATOM     11  C   UNL     1      -5.854 -10.794   5.425  0.00  0.00    +0.047 A 
ATOM     12  C   UNL     1      -4.446 -10.928   5.767  0.00  0.00    +0.035 A 
ATOM     32  C   UNL     1      -3.966 -12.210   6.164  0.00  0.00    +0.024 A 
ATOM     33  C   UNL     1      -4.846 -13.351   6.232  0.00  0.00    +0.007 A 
ATOM     34  C   UNL     1      -6.236 -13.224   5.899  0.00  0.00    -0.029 A 
ATOM     35  C   UNL     1      -7.134 -14.480   5.996  0.00  0.00    +0.045 C 
ENDROOT
BRANCH  10   9
ATOM      4  C   UNL     1     -11.340 -11.241   6.655  0.00  0.00    +0.077 A 
ATOM      5  C   UNL     1     -11.053 -11.294   8.060  0.00  0.00    +0.048 A 
ATOM      6  C   UNL     1      -9.708 -11.501   8.440  0.00  0.00    +0.116 A 
ATOM      7  N   UNL     1      -8.731 -11.643   7.478  0.00  0.00    -0.223 NA
ATOM      8  C   UNL     1      -9.042 -11.589   6.132  0.00  0.00    +0.220 A 
ATOM      9  N   UNL     1      -8.075 -11.721   5.148  0.00  0.00    -0.283 N 
ATOM     36  H   UNL     1      -8.346 -11.682   4.165  0.00  0.00    +0.155 HD
ATOM     37  N   UNL     1     -10.320 -11.393   5.743  0.00  0.00    -0.214 NA
BRANCH   4   3
ATOM      1  C   UNL     1     -15.160 -10.461   6.334  0.00  0.00    +0.020 A 
ATOM      2  C   UNL     1     -13.855 -10.658   6.923  0.00  0.00    +0.013 A 
ATOM      3  C   UNL     1     -12.712 -11.025   6.097  0.00  0.00    +0.019 A 
ATOM     38  C   UNL     1     -12.924 -11.186   4.666  0.00  0.00    +0.120 A 
ATOM     39  N   UNL     1     -14.192 -10.992   4.127  0.00  0.00    -0.263 NA
ATOM     40  C   UNL     1     -15.300 -10.639   4.912  0.00  0.00    +0.111 A 
ENDBRANCH   4   3
ENDBRANCH  10   9
BRANCH  12  13
ATOM     13  N   UNL     1      -3.509  -9.833   5.731  0.00  0.00    -0.281 N 
ATOM     14  C   UNL     1      -3.009  -9.176   4.619  0.00  0.00    +0.248 C 
ATOM     30  O   UNL     1      -3.129  -9.573   3.470  0.00  0.00    -0.270 OA
ATOM     31  H   UNL     1      -3.173  -9.503   6.636  0.00  0.00    +0.155 HD
BRANCH  14  15
ATOM     15  C   UNL     1      -2.253  -7.901   4.813  0.00  0.00    +0.037 A 
ATOM     16  C   UNL     1      -1.385  -7.365   3.761  0.00  0.00    +0.013 A 
ATOM     17  C   UNL     1      -0.654  -6.142   3.981  0.00  0.00    +0.005 A 
ATOM     18  C   UNL     1      -0.788  -5.447   5.258  0.00  0.00    -0.033 A 
ATOM     28  C   UNL     1      -1.660  -5.998   6.282  0.00  0.00    +0.005 A 
ATOM     29  C   UNL     1      -2.377  -7.197   6.071  0.00  0.00    +0.013 A 
BRANCH  18  19
ATOM     19  C   UNL     1      -0.029  -4.148   5.587  0.00  0.00    +0.119 C 
BRANCH  19  20
ATOM     20  N   UNL     1      -0.839  -2.901   5.734  0.00  0.00    -0.302 NA
ATOM     21  C   UNL     1      -1.106  -2.559   7.202  0.00  0.00    +0.066 C 
ATOM     22  C   UNL     1      -1.934  -1.240   7.338  0.00  0.00    -0.064 C 
ATOM     23  N   UNL     1      -3.248  -1.385   6.568  0.00  0.00    +0.379 N 
ATOM     24  C   UNL     1      -4.055  -0.169   6.742  0.00  0.00    -0.096 C 
ATOM     25  H   UNL     1      -3.813  -2.233   7.020  0.00  0.00    -0.082 HD
ATOM     26  C   UNL     1      -2.992  -1.728   5.107  0.00  0.00    -0.064 C 
ATOM     27  C   UNL     1      -2.143  -3.024   4.985  0.00  0.00    +0.066 C 
ENDBRANCH  19  20
ENDBRANCH  18  19
ENDBRANCH  14  15
ENDBRANCH  12  13
TORSDOF 6
ENDMDL
MODEL 4
REMARK VINA RESULT:      -7.2      6.037     12.565
REMARK  Name = C:\Users\Docking\Desktop\test protocol\1iep_ligandH.pdb
REMARK  8 active torsions:
REMARK  status: ('A' for Active; 'I' for Inactive)
REMARK    1  A    between atoms: _5  and  _11
REMARK    2  A    between atoms: _19  and  _21
REMARK    3  A    between atoms: _22  and  _66
REMARK    4  A    between atoms: _27  and  _30
REMARK    5  A    between atoms: _32  and  _33
REMARK    6  A    between atoms: _38  and  _43
REMARK    7  A    between atoms: _43  and  _46
REMARK    8  A    between atoms: _53  and  _55
REMARK                            x       y       z     vdW  Elec       q    Type
REMARK                         _______ _______ _______ _____ _____    ______ ____
ROOT
ATOM     10  C   UNL     1       1.453 -23.892  24.556  0.00  0.00    +0.038 A 
ATOM     11  C   UNL     1       1.362 -22.477  24.544  0.00  0.00    +0.047 A 
ATOM     12  C   UNL     1       0.192 -21.802  24.003  0.00  0.00    +0.035 A 
ATOM     32  C   UNL     1      -0.868 -22.601  23.483  0.00  0.00    +0.024 A 
ATOM     33  C   UNL     1      -0.792 -24.041  23.485  0.00  0.00    +0.007 A 
ATOM     34  C   UNL     1       0.360 -24.712  24.016  0.00  0.00    -0.029 A 
ATOM     35  C   UNL     1       0.391 -26.257  23.988  0.00  0.00    +0.045 C 
ENDROOT
BRANCH  10   9
ATOM      4  C   UNL     1       6.160 -24.826  24.485  0.00  0.00    +0.077 A 
ATOM      5  C   UNL     1       6.348 -24.087  23.269  0.00  0.00    +0.048 A 
ATOM      6  C   UNL     1       5.207 -23.489  22.691  0.00  0.00    +0.116 A 
ATOM      7  N   UNL     1       3.974 -23.624  23.291  0.00  0.00    -0.223 NA
ATOM      8  C   UNL     1       3.827 -24.345  24.463  0.00  0.00    +0.220 A 
ATOM      9  N   UNL     1       2.598 -24.488  25.088  0.00  0.00    -0.283 N 
ATOM     36  H   UNL     1       2.530 -25.033  25.947  0.00  0.00    +0.155 HD
ATOM     37  N   UNL     1       4.902 -24.927  25.034  0.00  0.00    -0.214 NA
BRANCH   4   3
ATOM      1  C   UNL     1       9.119 -27.221  25.385  0.00  0.00    +0.020 A 
ATOM      2  C   UNL     1       8.058 -26.591  24.634  0.00  0.00    +0.013 A 
ATOM      3  C   UNL     1       7.270 -25.513  25.218  0.00  0.00    +0.019 A 
ATOM     38  C   UNL     1       7.584 -25.092  26.575  0.00  0.00    +0.120 A 
ATOM     39  N   UNL     1       8.611 -25.719  27.275  0.00  0.00    -0.263 NA
ATOM     40  C   UNL     1       9.375 -26.758  26.723  0.00  0.00    +0.111 A 
ENDBRANCH   4   3
ENDBRANCH  10   9
BRANCH  12  13
ATOM     13  N   UNL     1       0.048 -20.368  23.957  0.00  0.00    -0.281 N 
ATOM     14  C   UNL     1      -0.090 -19.492  25.021  0.00  0.00    +0.248 C 
ATOM     30  O   UNL     1      -0.325 -19.832  26.171  0.00  0.00    -0.270 OA
ATOM     31  H   UNL     1       0.046 -19.949  23.027  0.00  0.00    +0.155 HD
BRANCH  14  15
ATOM     15  C   UNL     1       0.037 -18.024  24.768  0.00  0.00    +0.037 A 
ATOM     16  C   UNL     1       0.864 -17.174  25.629  0.00  0.00    +0.013 A 
ATOM     17  C   UNL     1       0.956 -15.759  25.373  0.00  0.00    +0.005 A 
ATOM     18  C   UNL     1       0.219 -15.184  24.250  0.00  0.00    -0.033 A 
ATOM     28  C   UNL     1      -0.589 -16.052  23.409  0.00  0.00    +0.005 A 
ATOM     29  C   UNL     1      -0.682 -17.439  23.657  0.00  0.00    +0.013 A 
BRANCH  18  19
ATOM     19  C   UNL     1       0.242 -13.681  23.916  0.00  0.00    +0.119 C 
BRANCH  19  20
ATOM     20  N   UNL     1       1.433 -12.899  24.364  0.00  0.00    -0.302 NA
ATOM     21  C   UNL     1       1.372 -11.442  23.898  0.00  0.00    +0.066 C 
ATOM     22  C   UNL     1       2.614 -10.632  24.396  0.00  0.00    -0.064 C 
ATOM     23  N   UNL     1       3.892 -11.307  23.896  0.00  0.00    +0.379 N 
ATOM     24  C   UNL     1       5.059 -10.517  24.313  0.00  0.00    -0.096 C 
ATOM     25  H   UNL     1       3.862 -11.305  22.782  0.00  0.00    -0.082 HD
ATOM     26  C   UNL     1       3.960 -12.758  24.353  0.00  0.00    -0.064 C 
ATOM     27  C   UNL     1       2.707 -13.546  23.878  0.00  0.00    +0.066 C 
ENDBRANCH  19  20
ENDBRANCH  18  19
ENDBRANCH  14  15
ENDBRANCH  12  13
TORSDOF 6
ENDMDL
MODEL 5
REMARK VINA RESULT:      -7.1     23.071     24.812
REMARK  Name = C:\Users\Docking\Desktop\test protocol\1iep_ligandH.pdb
REMARK  8 active torsions:
REMARK  status: ('A' for Active; 'I' for Inactive)
REMARK    1  A    between atoms: _5  and  _11
REMARK    2  A    between atoms: _19  and  _21
REMARK    3  A    between atoms: _22  and  _66
REMARK    4  A    between atoms: _27  and  _30
REMARK    5  A    between atoms: _32  and  _33
REMARK    6  A    between atoms: _38  and  _43
REMARK    7  A    between atoms: _43  and  _46
REMARK    8  A    between atoms: _53  and  _55
REMARK                            x       y       z     vdW  Elec       q    Type
REMARK                         _______ _______ _______ _____ _____    ______ ____
ROOT
ATOM     10  C   UNL     1      -9.084 -14.876   3.013  0.00  0.00    +0.038 A 
ATOM     11  C   UNL     1      -8.685 -16.145   2.521  0.00  0.00    +0.047 A 
ATOM     12  C   UNL     1      -9.620 -17.257   2.458  0.00  0.00    +0.035 A 
ATOM     32  C   UNL     1     -10.957 -17.041   2.904  0.00  0.00    +0.024 A 
ATOM     33  C   UNL     1     -11.380 -15.758   3.409  0.00  0.00    +0.007 A 
ATOM     34  C   UNL     1     -10.460 -14.658   3.475  0.00  0.00    -0.029 A 
ATOM     35  C   UNL     1     -10.967 -13.307   4.031  0.00  0.00    +0.045 C 
ENDROOT
BRANCH  10   9
ATOM      4  C   UNL     1      -5.422 -12.558   5.075  0.00  0.00    +0.077 A 
ATOM      5  C   UNL     1      -5.396 -13.465   6.186  0.00  0.00    +0.048 A 
ATOM      6  C   UNL     1      -6.347 -14.511   6.193  0.00  0.00    +0.116 A 
ATOM      7  N   UNL     1      -7.251 -14.631   5.159  0.00  0.00    -0.223 NA
ATOM      8  C   UNL     1      -7.250 -13.737   4.104  0.00  0.00    +0.220 A 
ATOM      9  N   UNL     1      -8.144 -13.844   3.050  0.00  0.00    -0.283 N 
ATOM     36  H   UNL     1      -8.116 -13.160   2.294  0.00  0.00    +0.155 HD
ATOM     37  N   UNL     1      -6.353 -12.730   4.075  0.00  0.00    -0.214 NA
BRANCH   4   3
ATOM      1  C   UNL     1      -3.787  -9.014   5.335  0.00  0.00    +0.020 A 
ATOM      2  C   UNL     1      -4.730 -10.094   5.511  0.00  0.00    +0.013 A 
ATOM      3  C   UNL     1      -4.479 -11.405   4.924  0.00  0.00    +0.019 A 
ATOM     38  C   UNL     1      -3.255 -11.591   4.160  0.00  0.00    +0.120 A 
ATOM     39  N   UNL     1      -2.366 -10.531   4.006  0.00  0.00    -0.263 NA
ATOM     40  C   UNL     1      -2.598  -9.266   4.565  0.00  0.00    +0.111 A 
ENDBRANCH   4   3
ENDBRANCH  10   9
BRANCH  12  13
ATOM     13  N   UNL     1      -9.270 -18.569   1.976  0.00  0.00    -0.281 N 
ATOM     14  C   UNL     1      -8.939 -18.941   0.683  0.00  0.00    +0.248 C 
ATOM     30  O   UNL     1      -9.104 -18.237  -0.302  0.00  0.00    -0.270 OA
ATOM     31  H   UNL     1      -9.264 -19.315   2.672  0.00  0.00    +0.155 HD
BRANCH  14  15
ATOM     15  C   UNL     1      -8.355 -20.297   0.448  0.00  0.00    +0.037 A 
ATOM     16  C   UNL     1      -9.207 -21.485   0.350  0.00  0.00    +0.013 A 
ATOM     17  C   UNL     1      -8.616 -22.783   0.140  0.00  0.00    +0.005 A 
ATOM     18  C   UNL     1      -7.165 -22.899   0.026  0.00  0.00    -0.033 A 
ATOM     28  C   UNL     1      -6.344 -21.703   0.122  0.00  0.00    +0.005 A 
ATOM     29  C   UNL     1      -6.919 -20.430   0.328  0.00  0.00    +0.013 A 
BRANCH  18  19
ATOM     19  C   UNL     1      -6.447 -24.246  -0.177  0.00  0.00    +0.119 C 
BRANCH  19  20
ATOM     20  N   UNL     1      -6.091 -24.628  -1.577  0.00  0.00    -0.302 NA
ATOM     21  C   UNL     1      -7.107 -25.600  -2.183  0.00  0.00    +0.066 C 
ATOM     22  C   UNL     1      -6.732 -25.971  -3.655  0.00  0.00    -0.064 C 
ATOM     23  N   UNL     1      -5.325 -26.569  -3.685  0.00  0.00    +0.379 N 
ATOM     24  C   UNL     1      -4.992 -26.972  -5.059  0.00  0.00    -0.096 C 
ATOM     25  H   UNL     1      -5.336 -27.489  -3.055  0.00  0.00    -0.082 HD
ATOM     26  C   UNL     1      -4.309 -25.610  -3.081  0.00  0.00    -0.064 C 
ATOM     27  C   UNL     1      -4.707 -25.225  -1.629  0.00  0.00    +0.066 C 
ENDBRANCH  19  20
ENDBRANCH  18  19
ENDBRANCH  14  15
ENDBRANCH  12  13
TORSDOF 6
ENDMDL
