MODEL 1
REMARK VINA RESULT:      -7.8      0.000      0.000
REMARK  Name = C:\Users\Docking\Desktop\test protocol\1iep_ligandH.pdb
REMARK  8 active torsions:
REMARK  status: ('A' for Active; 'I' for Inactive)
REMARK    1  A    between atoms: _5  and  _11
REMARK    2  A    between atoms: _19  and  _21
REMARK    3  A    between atoms: _22  and  _66
REMARK    4  A    between atoms: _27  and  _30
REMARK    5  A    between atoms: _32  and  _33
REMARK    6  A    between atoms: _38  and  _43
REMARK    7  A    between atoms: _43  and  _46
REMARK    8  A    between atoms: _53  and  _55
REMARK                            x       y       z     vdW  Elec       q    Type
REMARK                         _______ _______ _______ _____ _____    ______ ____
ROOT
ATOM     10  C   UNL     1      28.144  -6.280   7.624  0.00  0.00    +0.038 A 
ATOM     11  C   UNL     1      27.966  -6.433   6.225  0.00  0.00    +0.047 A 
ATOM     12  C   UNL     1      26.658  -6.725   5.660  0.00  0.00    +0.035 A 
ATOM     32  C   UNL     1      25.551  -6.853   6.549  0.00  0.00    +0.024 A 
ATOM     33  C   UNL     1      25.714  -6.701   7.974  0.00  0.00    +0.007 A 
ATOM     34  C   UNL     1      27.002  -6.416   8.537  0.00  0.00    -0.029 A 
ATOM     35  C   UNL     1      27.119  -6.270  10.072  0.00  0.00    +0.045 C 
ENDROOT
BRANCH  10   9
ATOM      4  C   UNL     1      32.369  -7.640   9.450  0.00  0.00    +0.077 A 
ATOM      5  C   UNL     1      31.988  -9.023   9.455  0.00  0.00    +0.048 A 
ATOM      6  C   UNL     1      30.694  -9.342   8.987  0.00  0.00    +0.116 A 
ATOM      7  N   UNL     1      29.852  -8.344   8.548  0.00  0.00    -0.223 NA
ATOM      8  C   UNL     1      30.250  -7.019   8.557  0.00  0.00    +0.220 A 
ATOM      9  N   UNL     1      29.422  -6.000   8.113  0.00  0.00    -0.283 N 
ATOM     36  H   UNL     1      29.750  -5.035   8.143  0.00  0.00    +0.155 HD
ATOM     37  N   UNL     1      31.480  -6.689   9.001  0.00  0.00    -0.214 NA
BRANCH   4   3
ATOM      1  C   UNL     1      35.413  -5.324  10.267  0.00  0.00    +0.020 A 
ATOM      2  C   UNL     1      34.112  -5.750   9.807  0.00  0.00    +0.013 A 
ATOM      3  C   UNL     1      33.705  -7.146   9.910  0.00  0.00    +0.019 A 
ATOM     38  C   UNL     1      34.646  -8.092  10.491  0.00  0.00    +0.120 A 
ATOM     39  N   UNL     1      35.893  -7.653  10.924  0.00  0.00    -0.263 NA
ATOM     40  C   UNL     1      36.296  -6.313  10.828  0.00  0.00    +0.111 A 
ENDBRANCH   4   3
ENDBRANCH  10   9
BRANCH  12  13
ATOM     13  N   UNL     1      26.419  -6.899   4.249  0.00  0.00    -0.281 N 
ATOM     14  C   UNL     1      25.397  -6.358   3.485  0.00  0.00    +0.248 C 
ATOM     30  O   UNL     1      24.406  -5.812   3.945  0.00  0.00    -0.270 OA
ATOM     31  H   UNL     1      27.084  -7.492   3.752  0.00  0.00    +0.155 HD
BRANCH  14  15
ATOM     15  C   UNL     1      25.482  -6.451   1.996  0.00  0.00    +0.037 A 
ATOM     16  C   UNL     1      26.384  -7.404   1.344  0.00  0.00    +0.013 A 
ATOM     17  C   UNL     1      26.459  -7.460  -0.095  0.00  0.00    +0.005 A 
ATOM     18  C   UNL     1      25.628  -6.560  -0.891  0.00  0.00    -0.033 A 
ATOM     28  C   UNL     1      24.739  -5.628  -0.218  0.00  0.00    +0.005 A 
ATOM     29  C   UNL     1      24.663  -5.569   1.191  0.00  0.00    +0.013 A 
BRANCH  18  19
ATOM     19  C   UNL     1      25.659  -6.537  -2.431  0.00  0.00    +0.119 C 
BRANCH  19  20
ATOM     20  N   UNL     1      24.574  -7.271  -3.148  0.00  0.00    -0.302 NA
ATOM     21  C   UNL     1      24.751  -8.790  -3.055  0.00  0.00    +0.066 C 
ATOM     22  C   UNL     1      23.595  -9.543  -3.792  0.00  0.00    -0.064 C 
ATOM     23  N   UNL     1      23.545  -9.091  -5.252  0.00  0.00    +0.379 N 
ATOM     24  C   UNL     1      22.497  -9.839  -5.962  0.00  0.00    -0.096 C 
ATOM     25  H   UNL     1      24.523  -9.351  -5.720  0.00  0.00    -0.082 HD
ATOM     26  C   UNL     1      23.373  -7.582  -5.353  0.00  0.00    -0.064 C 
ATOM     27  C   UNL     1      24.510  -6.844  -4.593  0.00  0.00    +0.066 C 
ENDBRANCH  19  20
ENDBRANCH  18  19
ENDBRANCH  14  15
ENDBRANCH  12  13
TORSDOF 6
ENDMDL
MODEL 2
REMARK VINA RESULT:      -7.8     25.451     30.099
REMARK  Name = C:\Users\Docking\Desktop\test protocol\1iep_ligandH.pdb
REMARK  8 active torsions:
REMARK  status: ('A' for Active; 'I' for Inactive)
REMARK    1  A    between atoms: _5  and  _11
REMARK    2  A    between atoms: _19  and  _21
REMARK    3  A    between atoms: _22  and  _66
REMARK    4  A    between atoms: _27  and  _30
REMARK    5  A    between atoms: _32  and  _33
REMARK    6  A    between atoms: _38  and  _43
REMARK    7  A    between atoms: _43  and  _46
REMARK    8  A    between atoms: _53  and  _55
REMARK                            x       y       z     vdW  Elec       q    Type
REMARK                         _______ _______ _______ _____ _____    ______ ____
ROOT
ATOM     10  C   UNL     1      27.868  11.165  24.027  0.00  0.00    +0.038 A 
ATOM     11  C   UNL     1      27.396  12.431  23.595  0.00  0.00    +0.047 A 
ATOM     12  C   UNL     1      28.208  13.628  23.744  0.00  0.00    +0.035 A 
ATOM     32  C   UNL     1      29.499  13.499  24.334  0.00  0.00    +0.024 A 
ATOM     33  C   UNL     1      29.995  12.221  24.779  0.00  0.00    +0.007 A 
ATOM     34  C   UNL     1      29.197  11.037  24.638  0.00  0.00    -0.029 A 
ATOM     35  C   UNL     1      29.777   9.694  25.139  0.00  0.00    +0.045 C 
ENDROOT
BRANCH  10   9
ATOM      4  C   UNL     1      24.332   8.258  25.471  0.00  0.00    +0.077 A 
ATOM      5  C   UNL     1      24.123   9.013  26.673  0.00  0.00    +0.048 A 
ATOM      6  C   UNL     1      24.951  10.138  26.885  0.00  0.00    +0.116 A 
ATOM      7  N   UNL     1      25.913  10.474  25.958  0.00  0.00    -0.223 NA
ATOM      8  C   UNL     1      26.090   9.724  24.810  0.00  0.00    +0.220 A 
ATOM      9  N   UNL     1      27.046  10.048  23.860  0.00  0.00    -0.283 N 
ATOM     36  H   UNL     1      27.151   9.465  23.030  0.00  0.00    +0.155 HD
ATOM     37  N   UNL     1      25.313   8.644  24.585  0.00  0.00    -0.214 NA
BRANCH   4   3
ATOM      1  C   UNL     1      21.829   5.834  23.694  0.00  0.00    +0.020 A 
ATOM      2  C   UNL     1      22.573   7.032  24.009  0.00  0.00    +0.013 A 
ATOM      3  C   UNL     1      23.535   7.046  25.103  0.00  0.00    +0.019 A 
ATOM     38  C   UNL     1      23.723   5.820  25.865  0.00  0.00    +0.120 A 
ATOM     39  N   UNL     1      22.991   4.683  25.541  0.00  0.00    -0.263 NA
ATOM     40  C   UNL     1      22.061   4.658  24.491  0.00  0.00    +0.111 A 
ENDBRANCH   4   3
ENDBRANCH  10   9
BRANCH  12  13
ATOM     13  N   UNL     1      27.778  14.941  23.332  0.00  0.00    -0.281 N 
ATOM     14  C   UNL     1      27.907  15.527  22.083  0.00  0.00    +0.248 C 
ATOM     30  O   UNL     1      28.608  15.088  21.183  0.00  0.00    -0.270 OA
ATOM     31  H   UNL     1      27.323  15.508  24.047  0.00  0.00    +0.155 HD
BRANCH  14  15
ATOM     15  C   UNL     1      27.162  16.790  21.797  0.00  0.00    +0.037 A 
ATOM     16  C   UNL     1      25.784  16.763  21.298  0.00  0.00    +0.013 A 
ATOM     17  C   UNL     1      25.094  17.996  21.014  0.00  0.00    +0.005 A 
ATOM     18  C   UNL     1      25.780  19.268  21.231  0.00  0.00    -0.033 A 
ATOM     28  C   UNL     1      27.145  19.265  21.731  0.00  0.00    +0.005 A 
ATOM     29  C   UNL     1      27.825  18.059  22.009  0.00  0.00    +0.013 A 
BRANCH  18  19
ATOM     19  C   UNL     1      25.128  20.631  20.935  0.00  0.00    +0.119 C 
BRANCH  19  20
ATOM     20  N   UNL     1      23.866  20.958  21.663  0.00  0.00    -0.302 NA
ATOM     21  C   UNL     1      23.320  22.335  21.276  0.00  0.00    +0.066 C 
ATOM     22  C   UNL     1      21.987  22.651  22.030  0.00  0.00    -0.064 C 
ATOM     23  N   UNL     1      22.225  22.567  23.539  0.00  0.00    +0.379 N 
ATOM     24  C   UNL     1      20.989  22.920  24.251  0.00  0.00    -0.096 C 
ATOM     25  H   UNL     1      22.996  23.327  23.802  0.00  0.00    -0.082 HD
ATOM     26  C   UNL     1      22.771  21.201  23.931  0.00  0.00    -0.064 C 
ATOM     27  C   UNL     1      24.079  20.884  23.154  0.00  0.00    +0.066 C 
ENDBRANCH  19  20
ENDBRANCH  18  19
ENDBRANCH  14  15
ENDBRANCH  12  13
TORSDOF 6
ENDMDL
MODEL 3
REMARK VINA RESULT:      -7.8      5.553     11.337
REMARK  Name = C:\Users\Docking\Desktop\test protocol\1iep_ligandH.pdb
REMARK  8 active torsions:
REMARK  status: ('A' for Active; 'I' for Inactive)
REMARK    1  A    between atoms: _5  and  _11
REMARK    2  A    between atoms: _19  and  _21
REMARK    3  A    between atoms: _22  and  _66
REMARK    4  A    between atoms: _27  and  _30
REMARK    5  A    between atoms: _32  and  _33
REMARK    6  A    between atoms: _38  and  _43
REMARK    7  A    between atoms: _43  and  _46
REMARK    8  A    between atoms: _53  and  _55
REMARK                            x       y       z     vdW  Elec       q    Type
REMARK                         _______ _______ _______ _____ _____    ______ ____
ROOT
ATOM     10  C   UNL     1      25.890  -9.884  -3.595  0.00  0.00    +0.038 A 
ATOM     11  C   UNL     1      24.630  -9.605  -4.185  0.00  0.00    +0.047 A 
ATOM     12  C   UNL     1      24.401  -9.816  -5.606  0.00  0.00    +0.035 A 
ATOM     32  C   UNL     1      25.478 -10.314  -6.397  0.00  0.00    +0.024 A 
ATOM     33  C   UNL     1      26.765 -10.601  -5.815  0.00  0.00    +0.007 A 
ATOM     34  C   UNL     1      26.997 -10.393  -4.414  0.00  0.00    -0.029 A 
ATOM     35  C   UNL     1      28.399 -10.711  -3.845  0.00  0.00    +0.045 C 
ENDROOT
BRANCH  10   9
ATOM      4  C   UNL     1      26.122  -6.991   0.228  0.00  0.00    +0.077 A 
ATOM      5  C   UNL     1      25.926  -5.818  -0.574  0.00  0.00    +0.048 A 
ATOM      6  C   UNL     1      25.777  -6.001  -1.967  0.00  0.00    +0.116 A 
ATOM      7  N   UNL     1      25.822  -7.268  -2.507  0.00  0.00    -0.223 NA
ATOM      8  C   UNL     1      26.014  -8.379  -1.705  0.00  0.00    +0.220 A 
ATOM      9  N   UNL     1      26.055  -9.663  -2.226  0.00  0.00    -0.283 N 
ATOM     36  H   UNL     1      26.206 -10.455  -1.602  0.00  0.00    +0.155 HD
ATOM     37  N   UNL     1      26.161  -8.230  -0.372  0.00  0.00    -0.214 NA
BRANCH   4   3
ATOM      1  C   UNL     1      25.432  -6.590   4.057  0.00  0.00    +0.020 A 
ATOM      2  C   UNL     1      25.215  -6.604   2.629  0.00  0.00    +0.013 A 
ATOM      3  C   UNL     1      26.293  -6.961   1.715  0.00  0.00    +0.019 A 
ATOM     38  C   UNL     1      27.588  -7.304   2.284  0.00  0.00    +0.120 A 
ATOM     39  N   UNL     1      27.767  -7.281   3.663  0.00  0.00    -0.263 NA
ATOM     40  C   UNL     1      26.738  -6.937   4.552  0.00  0.00    +0.111 A 
ENDBRANCH   4   3
ENDBRANCH  10   9
BRANCH  12  13
ATOM     13  N   UNL     1      23.146  -9.544  -6.261  0.00  0.00    -0.281 N 
ATOM     14  C   UNL     1      21.953 -10.237  -6.138  0.00  0.00    +0.248 C 
ATOM     30  O   UNL     1      21.842 -11.331  -5.605  0.00  0.00    -0.270 OA
ATOM     31  H   UNL     1      23.136  -8.743  -6.893  0.00  0.00    +0.155 HD
BRANCH  14  15
ATOM     15  C   UNL     1      20.707  -9.634  -6.701  0.00  0.00    +0.037 A 
ATOM     16  C   UNL     1      20.489  -9.550  -8.147  0.00  0.00    +0.013 A 
ATOM     17  C   UNL     1      19.285  -8.948  -8.663  0.00  0.00    +0.005 A 
ATOM     18  C   UNL     1      18.288  -8.428  -7.731  0.00  0.00    -0.033 A 
ATOM     28  C   UNL     1      18.527  -8.529  -6.301  0.00  0.00    +0.005 A 
ATOM     29  C   UNL     1      19.706  -9.117  -5.791  0.00  0.00    +0.013 A 
BRANCH  18  19
ATOM     19  C   UNL     1      16.984  -7.750  -8.193  0.00  0.00    +0.119 C 
BRANCH  19  20
ATOM     20  N   UNL     1      15.876  -7.651  -7.198  0.00  0.00    -0.302 NA
ATOM     21  C   UNL     1      14.566  -8.235  -7.736  0.00  0.00    +0.066 C 
ATOM     22  C   UNL     1      13.423  -8.143  -6.673  0.00  0.00    -0.064 C 
ATOM     23  N   UNL     1      13.234  -6.683  -6.257  0.00  0.00    +0.379 N 
ATOM     24  C   UNL     1      12.121  -6.586  -5.301  0.00  0.00    -0.096 C 
ATOM     25  H   UNL     1      12.950  -6.106  -7.167  0.00  0.00    -0.082 HD
ATOM     26  C   UNL     1      14.532  -6.094  -5.723  0.00  0.00    -0.064 C 
ATOM     27  C   UNL     1      15.669  -6.217  -6.776  0.00  0.00    +0.066 C 
ENDBRANCH  19  20
ENDBRANCH  18  19
ENDBRANCH  14  15
ENDBRANCH  12  13
TORSDOF 6
ENDMDL
MODEL 4
REMARK VINA RESULT:      -7.6      1.586      2.063
REMARK  Name = C:\Users\Docking\Desktop\test protocol\1iep_ligandH.pdb
REMARK  8 active torsions:
REMARK  status: ('A' for Active; 'I' for Inactive)
REMARK    1  A    between atoms: _5  and  _11
REMARK    2  A    between atoms: _19  and  _21
REMARK    3  A    between atoms: _22  and  _66
REMARK    4  A    between atoms: _27  and  _30
REMARK    5  A    between atoms: _32  and  _33
REMARK    6  A    between atoms: _38  and  _43
REMARK    7  A    between atoms: _43  and  _46
REMARK    8  A    between atoms: _53  and  _55
REMARK                            x       y       z     vdW  Elec       q    Type
REMARK                         _______ _______ _______ _____ _____    ______ ____
ROOT
ATOM     10  C   UNL     1      28.403  -6.395   6.246  0.00  0.00    +0.038 A 
ATOM     11  C   UNL     1      28.290  -6.346   4.833  0.00  0.00    +0.047 A 
ATOM     12  C   UNL     1      27.005  -6.522   4.174  0.00  0.00    +0.035 A 
ATOM     32  C   UNL     1      25.855  -6.745   4.986  0.00  0.00    +0.024 A 
ATOM     33  C   UNL     1      25.951  -6.799   6.424  0.00  0.00    +0.007 A 
ATOM     34  C   UNL     1      27.216  -6.628   7.079  0.00  0.00    -0.029 A 
ATOM     35  C   UNL     1      27.262  -6.702   8.623  0.00  0.00    +0.045 C 
ENDROOT
BRANCH  10   9
ATOM      4  C   UNL     1      32.606  -8.084   7.832  0.00  0.00    +0.077 A 
ATOM      5  C   UNL     1      32.255  -9.435   7.502  0.00  0.00    +0.048 A 
ATOM      6  C   UNL     1      30.981  -9.654   6.932  0.00  0.00    +0.116 A 
ATOM      7  N   UNL     1      30.129  -8.593   6.713  0.00  0.00    -0.223 NA
ATOM      8  C   UNL     1      30.498  -7.302   7.045  0.00  0.00    +0.220 A 
ATOM      9  N   UNL     1      29.661  -6.219   6.826  0.00  0.00    -0.283 N 
ATOM     36  H   UNL     1      29.967  -5.283   7.091  0.00  0.00    +0.155 HD
ATOM     37  N   UNL     1      31.709  -7.067   7.591  0.00  0.00    -0.214 NA
BRANCH   4   3
ATOM      1  C   UNL     1      35.803  -6.060   8.826  0.00  0.00    +0.020 A 
ATOM      2  C   UNL     1      34.534  -6.389   8.218  0.00  0.00    +0.013 A 
ATOM      3  C   UNL     1      33.918  -7.692   8.437  0.00  0.00    +0.019 A 
ATOM     38  C   UNL     1      34.617  -8.647   9.284  0.00  0.00    +0.120 A 
ATOM     39  N   UNL     1      35.839  -8.303   9.855  0.00  0.00    -0.263 NA
ATOM     40  C   UNL     1      36.441  -7.053   9.650  0.00  0.00    +0.111 A 
ENDBRANCH   4   3
ENDBRANCH  10   9
BRANCH  12  13
ATOM     13  N   UNL     1      26.830  -6.490   2.743  0.00  0.00    -0.281 N 
ATOM     14  C   UNL     1      26.964  -7.537   1.846  0.00  0.00    +0.248 C 
ATOM     30  O   UNL     1      27.465  -8.618   2.115  0.00  0.00    -0.270 OA
ATOM     31  H   UNL     1      26.578  -5.586   2.344  0.00  0.00    +0.155 HD
BRANCH  14  15
ATOM     15  C   UNL     1      26.484  -7.350   0.443  0.00  0.00    +0.037 A 
ATOM     16  C   UNL     1      25.849  -6.100   0.017  0.00  0.00    +0.013 A 
ATOM     17  C   UNL     1      25.380  -5.953  -1.338  0.00  0.00    +0.005 A 
ATOM     18  C   UNL     1      25.545  -7.059  -2.278  0.00  0.00    -0.033 A 
ATOM     28  C   UNL     1      26.183  -8.286  -1.830  0.00  0.00    +0.005 A 
ATOM     29  C   UNL     1      26.644  -8.434  -0.503  0.00  0.00    +0.013 A 
BRANCH  18  19
ATOM     19  C   UNL     1      25.056  -6.997  -3.737  0.00  0.00    +0.119 C 
BRANCH  19  20
ATOM     20  N   UNL     1      24.496  -8.251  -4.324  0.00  0.00    -0.302 NA
ATOM     21  C   UNL     1      24.648  -8.290  -5.847  0.00  0.00    +0.066 C 
ATOM     22  C   UNL     1      24.078  -9.619  -6.442  0.00  0.00    -0.064 C 
ATOM     23  N   UNL     1      22.609  -9.765  -6.041  0.00  0.00    +0.379 N 
ATOM     24  C   UNL     1      22.054 -10.984  -6.647  0.00  0.00    -0.096 C 
ATOM     25  H   UNL     1      22.055  -8.895  -6.463  0.00  0.00    -0.082 HD
ATOM     26  C   UNL     1      22.449  -9.725  -4.528  0.00  0.00    -0.064 C 
ATOM     27  C   UNL     1      23.045  -8.414  -3.943  0.00  0.00    +0.066 C 
ENDBRANCH  19  20
ENDBRANCH  18  19
ENDBRANCH  14  15
ENDBRANCH  12  13
TORSDOF 6
ENDMDL
MODEL 5
REMARK VINA RESULT:      -7.5     23.242     27.050
REMARK  Name = C:\Users\Docking\Desktop\test protocol\1iep_ligandH.pdb
REMARK  8 active torsions:
REMARK  status: ('A' for Active; 'I' for Inactive)
REMARK    1  A    between atoms: _5  and  _11
REMARK    2  A    between atoms: _19  and  _21
REMARK    3  A    between atoms: _22  and  _66
REMARK    4  A    between atoms: _27  and  _30
REMARK    5  A    between atoms: _32  and  _33
REMARK    6  A    between atoms: _38  and  _43
REMARK    7  A    between atoms: _43  and  _46
REMARK    8  A    between atoms: _53  and  _55
REMARK                            x       y       z     vdW  Elec       q    Type
REMARK                         _______ _______ _______ _____ _____    ______ ____
ROOT
ATOM     10  C   UNL     1      16.426  11.079   5.301  0.00  0.00    +0.038 A 
ATOM     11  C   UNL     1      17.133  12.305   5.396  0.00  0.00    +0.047 A 
ATOM     12  C   UNL     1      18.506  12.346   5.874  0.00  0.00    +0.035 A 
ATOM     32  C   UNL     1      19.130  11.119   6.244  0.00  0.00    +0.024 A 
ATOM     33  C   UNL     1      18.426   9.864   6.155  0.00  0.00    +0.007 A 
ATOM     34  C   UNL     1      17.070   9.818   5.687  0.00  0.00    -0.029 A 
ATOM     35  C   UNL     1      16.361   8.445   5.618  0.00  0.00    +0.045 C 
ENDROOT
BRANCH  10   9
ATOM      4  C   UNL     1      11.681  11.062   6.022  0.00  0.00    +0.077 A 
ATOM      5  C   UNL     1      11.838  10.983   7.445  0.00  0.00    +0.048 A 
ATOM      6  C   UNL     1      13.156  10.941   7.952  0.00  0.00    +0.116 A 
ATOM      7  N   UNL     1      14.230  10.977   7.089  0.00  0.00    -0.223 NA
ATOM      8  C   UNL     1      14.044  11.052   5.721  0.00  0.00    +0.220 A 
ATOM      9  N   UNL     1      15.109  11.098   4.835  0.00  0.00    -0.283 N 
ATOM     36  H   UNL     1      14.930  11.145   3.832  0.00  0.00    +0.155 HD
ATOM     37  N   UNL     1      12.795  11.092   5.212  0.00  0.00    -0.214 NA
BRANCH   4   3
ATOM      1  C   UNL     1       7.913  11.757   5.231  0.00  0.00    +0.020 A 
ATOM      2  C   UNL     1       9.174  11.730   5.937  0.00  0.00    +0.013 A 
ATOM      3  C   UNL     1      10.351  11.117   5.335  0.00  0.00    +0.019 A 
ATOM     38  C   UNL     1      10.219  10.537   4.008  0.00  0.00    +0.120 A 
ATOM     39  N   UNL     1       8.992  10.576   3.353  0.00  0.00    -0.263 NA
ATOM     40  C   UNL     1       7.851  11.162   3.923  0.00  0.00    +0.111 A 
ENDBRANCH   4   3
ENDBRANCH  10   9
BRANCH  12  13
ATOM     13  N   UNL     1      19.272  13.562   5.999  0.00  0.00    -0.281 N 
ATOM     14  C   UNL     1      20.017  14.203   5.024  0.00  0.00    +0.248 C 
ATOM     30  O   UNL     1      20.313  13.711   3.945  0.00  0.00    -0.270 OA
ATOM     31  H   UNL     1      19.263  14.003   6.919  0.00  0.00    +0.155 HD
BRANCH  14  15
ATOM     15  C   UNL     1      20.518  15.586   5.291  0.00  0.00    +0.037 A 
ATOM     16  C   UNL     1      21.905  15.827   5.698  0.00  0.00    +0.013 A 
ATOM     17  C   UNL     1      22.357  17.169   5.966  0.00  0.00    +0.005 A 
ATOM     18  C   UNL     1      21.422  18.282   5.825  0.00  0.00    -0.033 A 
ATOM     28  C   UNL     1      20.053  18.015   5.414  0.00  0.00    +0.005 A 
ATOM     29  C   UNL     1      19.605  16.701   5.152  0.00  0.00    +0.013 A 
BRANCH  18  19
ATOM     19  C   UNL     1      21.812  19.744   6.111  0.00  0.00    +0.119 C 
BRANCH  19  20
ATOM     20  N   UNL     1      20.984  20.492   7.103  0.00  0.00    -0.302 NA
ATOM     21  C   UNL     1      20.522  21.847   6.560  0.00  0.00    +0.066 C 
ATOM     22  C   UNL     1      19.638  22.606   7.603  0.00  0.00    -0.064 C 
ATOM     23  N   UNL     1      20.425  22.782   8.903  0.00  0.00    +0.379 N 
ATOM     24  C   UNL     1      19.617  23.546   9.865  0.00  0.00    -0.096 C 
ATOM     25  H   UNL     1      21.333  23.385   8.669  0.00  0.00    -0.082 HD
ATOM     26  C   UNL     1      20.890  21.439   9.448  0.00  0.00    -0.064 C 
ATOM     27  C   UNL     1      21.743  20.681   8.393  0.00  0.00    +0.066 C 
ENDBRANCH  19  20
ENDBRANCH  18  19
ENDBRANCH  14  15
ENDBRANCH  12  13
TORSDOF 6
ENDMDL
