MODEL 1
REMARK VINA RESULT:     -10.4      0.000      0.000
REMARK  Name = C:\Users\Docking\Desktop\test protocol\1iep_ligandH.pdb
REMARK  8 active torsions:
REMARK  status: ('A' for Active; 'I' for Inactive)
REMARK    1  A    between atoms: _5  and  _11
REMARK    2  A    between atoms: _19  and  _21
REMARK    3  A    between atoms: _22  and  _66
REMARK    4  A    between atoms: _27  and  _30
REMARK    5  A    between atoms: _32  and  _33
REMARK    6  A    between atoms: _38  and  _43
REMARK    7  A    between atoms: _43  and  _46
REMARK    8  A    between atoms: _53  and  _55
REMARK                            x       y       z     vdW  Elec       q    Type
REMARK                         _______ _______ _______ _____ _____    ______ ____
ROOT
ATOM     10  C   UNL     1      28.984   3.234  -0.311  0.00  0.00    +0.038 A 
ATOM     11  C   UNL     1      29.916   2.902   0.705  0.00  0.00    +0.047 A 
ATOM     12  C   UNL     1      31.122   2.148   0.403  0.00  0.00    +0.035 A 
ATOM     32  C   UNL     1      31.350   1.751  -0.947  0.00  0.00    +0.024 A 
ATOM     33  C   UNL     1      30.413   2.080  -1.993  0.00  0.00    +0.007 A 
ATOM     34  C   UNL     1      29.220   2.821  -1.699  0.00  0.00    -0.029 A 
ATOM     35  C   UNL     1      28.247   3.140  -2.859  0.00  0.00    +0.045 C 
ENDROOT
BRANCH  10   9
ATOM      4  C   UNL     1      26.714   7.355   0.638  0.00  0.00    +0.077 A 
ATOM      5  C   UNL     1      27.910   8.126   0.453  0.00  0.00    +0.048 A 
ATOM      6  C   UNL     1      29.090   7.422   0.121  0.00  0.00    +0.116 A 
ATOM      7  N   UNL     1      29.063   6.051  -0.013  0.00  0.00    -0.223 NA
ATOM      8  C   UNL     1      27.893   5.339   0.174  0.00  0.00    +0.220 A 
ATOM      9  N   UNL     1      27.842   3.960   0.036  0.00  0.00    -0.283 N 
ATOM     36  H   UNL     1      26.961   3.470   0.190  0.00  0.00    +0.155 HD
ATOM     37  N   UNL     1      26.754   5.987   0.493  0.00  0.00    -0.214 NA
BRANCH   4   3
ATOM      1  C   UNL     1      23.031   8.656   0.421  0.00  0.00    +0.020 A 
ATOM      2  C   UNL     1      24.293   8.069   0.032  0.00  0.00    +0.013 A 
ATOM      3  C   UNL     1      25.387   7.954   0.988  0.00  0.00    +0.019 A 
ATOM     38  C   UNL     1      25.170   8.446   2.340  0.00  0.00    +0.120 A 
ATOM     39  N   UNL     1      23.945   9.007   2.686  0.00  0.00    -0.263 NA
ATOM     40  C   UNL     1      22.885   9.124   1.774  0.00  0.00    +0.111 A 
ENDBRANCH   4   3
ENDBRANCH  10   9
BRANCH  12  13
ATOM     13  N   UNL     1      32.100   1.774   1.394  0.00  0.00    -0.281 N 
ATOM     14  C   UNL     1      32.751   2.595   2.300  0.00  0.00    +0.248 C 
ATOM     30  O   UNL     1      32.749   3.816   2.252  0.00  0.00    -0.270 OA
ATOM     31  H   UNL     1      32.342   0.784   1.432  0.00  0.00    +0.155 HD
BRANCH  14  15
ATOM     15  C   UNL     1      33.530   1.970   3.412  0.00  0.00    +0.037 A 
ATOM     16  C   UNL     1      33.283   0.586   3.828  0.00  0.00    +0.013 A 
ATOM     17  C   UNL     1      34.036   0.013   4.915  0.00  0.00    +0.005 A 
ATOM     18  C   UNL     1      35.045   0.823   5.593  0.00  0.00    -0.033 A 
ATOM     28  C   UNL     1      35.273   2.190   5.157  0.00  0.00    +0.005 A 
ATOM     29  C   UNL     1      34.536   2.757   4.093  0.00  0.00    +0.013 A 
BRANCH  18  19
ATOM     19  C   UNL     1      35.881   0.299   6.776  0.00  0.00    +0.119 C 
BRANCH  19  20
ATOM     20  N   UNL     1      36.796   1.269   7.448  0.00  0.00    -0.302 NA
ATOM     21  C   UNL     1      38.161   0.648   7.761  0.00  0.00    +0.066 C 
ATOM     22  C   UNL     1      39.114   1.683   8.443  0.00  0.00    -0.064 C 
ATOM     23  N   UNL     1      38.456   2.215   9.718  0.00  0.00    +0.379 N 
ATOM     24  C   UNL     1      39.374   3.144  10.392  0.00  0.00    -0.096 C 
ATOM     25  H   UNL     1      38.291   1.348  10.399  0.00  0.00    -0.082 HD
ATOM     26  C   UNL     1      37.098   2.831   9.416  0.00  0.00    -0.064 C 
ATOM     27  C   UNL     1      36.168   1.803   8.712  0.00  0.00    +0.066 C 
ENDBRANCH  19  20
ENDBRANCH  18  19
ENDBRANCH  14  15
ENDBRANCH  12  13
TORSDOF 6
ENDMDL
MODEL 2
REMARK VINA RESULT:      -9.8     11.927     19.002
REMARK  Name = C:\Users\Docking\Desktop\test protocol\1iep_ligandH.pdb
REMARK  8 active torsions:
REMARK  status: ('A' for Active; 'I' for Inactive)
REMARK    1  A    between atoms: _5  and  _11
REMARK    2  A    between atoms: _19  and  _21
REMARK    3  A    between atoms: _22  and  _66
REMARK    4  A    between atoms: _27  and  _30
REMARK    5  A    between atoms: _32  and  _33
REMARK    6  A    between atoms: _38  and  _43
REMARK    7  A    between atoms: _43  and  _46
REMARK    8  A    between atoms: _53  and  _55
REMARK                            x       y       z     vdW  Elec       q    Type
REMARK                         _______ _______ _______ _____ _____    ______ ____
ROOT
ATOM     10  C   UNL     1      11.646   5.365   5.732  0.00  0.00    +0.038 A 
ATOM     11  C   UNL     1      12.658   5.966   4.941  0.00  0.00    +0.047 A 
ATOM     12  C   UNL     1      13.865   6.506   5.546  0.00  0.00    +0.035 A 
ATOM     32  C   UNL     1      14.010   6.414   6.961  0.00  0.00    +0.024 A 
ATOM     33  C   UNL     1      12.991   5.807   7.781  0.00  0.00    +0.007 A 
ATOM     34  C   UNL     1      11.797   5.275   7.189  0.00  0.00    -0.029 A 
ATOM     35  C   UNL     1      10.735   4.641   8.117  0.00  0.00    +0.045 C 
ENDROOT
BRANCH  10   9
ATOM      4  C   UNL     1       7.891   5.835   2.779  0.00  0.00    +0.077 A 
ATOM      5  C   UNL     1       8.209   7.205   2.497  0.00  0.00    +0.048 A 
ATOM      6  C   UNL     1       9.343   7.753   3.137  0.00  0.00    +0.116 A 
ATOM      7  N   UNL     1      10.096   6.979   3.994  0.00  0.00    -0.223 NA
ATOM      8  C   UNL     1       9.760   5.661   4.246  0.00  0.00    +0.220 A 
ATOM      9  N   UNL     1      10.507   4.863   5.098  0.00  0.00    -0.283 N 
ATOM     36  H   UNL     1      10.222   3.897   5.263  0.00  0.00    +0.155 HD
ATOM     37  N   UNL     1       8.681   5.115   3.648  0.00  0.00    -0.214 NA
BRANCH   4   3
ATOM      1  C   UNL     1       5.006   4.763   0.366  0.00  0.00    +0.020 A 
ATOM      2  C   UNL     1       6.130   5.494   0.903  0.00  0.00    +0.013 A 
ATOM      3  C   UNL     1       6.726   5.113   2.178  0.00  0.00    +0.019 A 
ATOM     38  C   UNL     1       6.156   3.978   2.888  0.00  0.00    +0.120 A 
ATOM     39  N   UNL     1       5.072   3.294   2.347  0.00  0.00    -0.263 NA
ATOM     40  C   UNL     1       4.490   3.652   1.122  0.00  0.00    +0.111 A 
ENDBRANCH   4   3
ENDBRANCH  10   9
BRANCH  12  13
ATOM     13  N   UNL     1      14.923   7.135   4.795  0.00  0.00    -0.281 N 
ATOM     14  C   UNL     1      14.818   8.167   3.876  0.00  0.00    +0.248 C 
ATOM     30  O   UNL     1      13.764   8.564   3.401  0.00  0.00    -0.270 OA
ATOM     31  H   UNL     1      15.863   6.776   4.960  0.00  0.00    +0.155 HD
BRANCH  14  15
ATOM     15  C   UNL     1      16.064   8.846   3.408  0.00  0.00    +0.037 A 
ATOM     16  C   UNL     1      16.007  10.081   2.622  0.00  0.00    +0.013 A 
ATOM     17  C   UNL     1      17.223  10.707   2.168  0.00  0.00    +0.005 A 
ATOM     18  C   UNL     1      18.509  10.098   2.500  0.00  0.00    -0.033 A 
ATOM     28  C   UNL     1      18.537   8.875   3.286  0.00  0.00    +0.005 A 
ATOM     29  C   UNL     1      17.346   8.258   3.732  0.00  0.00    +0.013 A 
BRANCH  18  19
ATOM     19  C   UNL     1      19.856  10.685   2.040  0.00  0.00    +0.119 C 
BRANCH  19  20
ATOM     20  N   UNL     1      20.968   9.722   1.780  0.00  0.00    -0.302 NA
ATOM     21  C   UNL     1      22.002   9.719   2.910  0.00  0.00    +0.066 C 
ATOM     22  C   UNL     1      23.146   8.690   2.632  0.00  0.00    -0.064 C 
ATOM     23  N   UNL     1      23.808   9.018   1.293  0.00  0.00    +0.379 N 
ATOM     24  C   UNL     1      24.922   8.088   1.056  0.00  0.00    -0.096 C 
ATOM     25  H   UNL     1      24.235  10.045   1.370  0.00  0.00    -0.082 HD
ATOM     26  C   UNL     1      22.788   9.026   0.164  0.00  0.00    -0.064 C 
ATOM     27  C   UNL     1      21.640  10.030   0.464  0.00  0.00    +0.066 C 
ENDBRANCH  19  20
ENDBRANCH  18  19
ENDBRANCH  14  15
ENDBRANCH  12  13
TORSDOF 6
ENDMDL
MODEL 3
REMARK VINA RESULT:      -9.7      1.857      2.374
REMARK  Name = C:\Users\Docking\Desktop\test protocol\1iep_ligandH.pdb
REMARK  8 active torsions:
REMARK  status: ('A' for Active; 'I' for Inactive)
REMARK    1  A    between atoms: _5  and  _11
REMARK    2  A    between atoms: _19  and  _21
REMARK    3  A    between atoms: _22  and  _66
REMARK    4  A    between atoms: _27  and  _30
REMARK    5  A    between atoms: _32  and  _33
REMARK    6  A    between atoms: _38  and  _43
REMARK    7  A    between atoms: _43  and  _46
REMARK    8  A    between atoms: _53  and  _55
REMARK                            x       y       z     vdW  Elec       q    Type
REMARK                         _______ _______ _______ _____ _____    ______ ____
ROOT
ATOM     10  C   UNL     1      29.977   6.716   0.365  0.00  0.00    +0.038 A 
ATOM     11  C   UNL     1      30.534   5.909   1.390  0.00  0.00    +0.047 A 
ATOM     12  C   UNL     1      31.749   5.141   1.166  0.00  0.00    +0.035 A 
ATOM     32  C   UNL     1      32.371   5.220  -0.113  0.00  0.00    +0.024 A 
ATOM     33  C   UNL     1      31.818   6.034  -1.167  0.00  0.00    +0.007 A 
ATOM     34  C   UNL     1      30.619   6.792  -0.952  0.00  0.00    -0.029 A 
ATOM     35  C   UNL     1      30.067   7.643  -2.120  0.00  0.00    +0.045 C 
ENDROOT
BRANCH  10   9
ATOM      4  C   UNL     1      25.197   7.089   0.597  0.00  0.00    +0.077 A 
ATOM      5  C   UNL     1      25.010   5.752   0.113  0.00  0.00    +0.048 A 
ATOM      6  C   UNL     1      26.170   5.003  -0.190  0.00  0.00    +0.116 A 
ATOM      7  N   UNL     1      27.418   5.561  -0.018  0.00  0.00    -0.223 NA
ATOM      8  C   UNL     1      27.563   6.855   0.448  0.00  0.00    +0.220 A 
ATOM      9  N   UNL     1      28.809   7.433   0.635  0.00  0.00    -0.283 N 
ATOM     36  H   UNL     1      28.874   8.393   0.974  0.00  0.00    +0.155 HD
ATOM     37  N   UNL     1      26.471   7.591   0.743  0.00  0.00    -0.214 NA
BRANCH   4   3
ATOM      1  C   UNL     1      22.640   9.229   2.642  0.00  0.00    +0.020 A 
ATOM      2  C   UNL     1      23.739   8.340   2.342  0.00  0.00    +0.013 A 
ATOM      3  C   UNL     1      24.070   8.004   0.963  0.00  0.00    +0.019 A 
ATOM     38  C   UNL     1      23.265   8.591  -0.097  0.00  0.00    +0.120 A 
ATOM     39  N   UNL     1      22.212   9.443   0.222  0.00  0.00    -0.263 NA
ATOM     40  C   UNL     1      21.883   9.771   1.545  0.00  0.00    +0.111 A 
ENDBRANCH   4   3
ENDBRANCH  10   9
BRANCH  12  13
ATOM     13  N   UNL     1      32.356   4.298   2.166  0.00  0.00    -0.281 N 
ATOM     14  C   UNL     1      32.302   2.917   2.264  0.00  0.00    +0.248 C 
ATOM     30  O   UNL     1      31.540   2.209   1.622  0.00  0.00    -0.270 OA
ATOM     31  H   UNL     1      32.891   4.778   2.890  0.00  0.00    +0.155 HD
BRANCH  14  15
ATOM     15  C   UNL     1      33.215   2.225   3.222  0.00  0.00    +0.037 A 
ATOM     16  C   UNL     1      33.016   0.818   3.580  0.00  0.00    +0.013 A 
ATOM     17  C   UNL     1      33.902   0.179   4.521  0.00  0.00    +0.005 A 
ATOM     18  C   UNL     1      34.997   0.946   5.109  0.00  0.00    -0.033 A 
ATOM     28  C   UNL     1      35.175   2.339   4.732  0.00  0.00    +0.005 A 
ATOM     29  C   UNL     1      34.308   2.969   3.812  0.00  0.00    +0.013 A 
BRANCH  18  19
ATOM     19  C   UNL     1      35.978   0.352   6.137  0.00  0.00    +0.119 C 
BRANCH  19  20
ATOM     20  N   UNL     1      36.779   1.312   6.953  0.00  0.00    -0.302 NA
ATOM     21  C   UNL     1      38.206   0.812   7.192  0.00  0.00    +0.066 C 
ATOM     22  C   UNL     1      39.037   1.839   8.028  0.00  0.00    -0.064 C 
ATOM     23  N   UNL     1      38.327   2.104   9.356  0.00  0.00    +0.379 N 
ATOM     24  C   UNL     1      39.135   3.025  10.169  0.00  0.00    -0.096 C 
ATOM     25  H   UNL     1      38.263   1.136   9.905  0.00  0.00    -0.082 HD
ATOM     26  C   UNL     1      36.906   2.600   9.128  0.00  0.00    -0.064 C 
ATOM     27  C   UNL     1      36.098   1.585   8.272  0.00  0.00    +0.066 C 
ENDBRANCH  19  20
ENDBRANCH  18  19
ENDBRANCH  14  15
ENDBRANCH  12  13
TORSDOF 6
ENDMDL
MODEL 4
REMARK VINA RESULT:      -9.4      3.702     13.472
REMARK  Name = C:\Users\Docking\Desktop\test protocol\1iep_ligandH.pdb
REMARK  8 active torsions:
REMARK  status: ('A' for Active; 'I' for Inactive)
REMARK    1  A    between atoms: _5  and  _11
REMARK    2  A    between atoms: _19  and  _21
REMARK    3  A    between atoms: _22  and  _66
REMARK    4  A    between atoms: _27  and  _30
REMARK    5  A    between atoms: _32  and  _33
REMARK    6  A    between atoms: _38  and  _43
REMARK    7  A    between atoms: _43  and  _46
REMARK    8  A    between atoms: _53  and  _55
REMARK                            x       y       z     vdW  Elec       q    Type
REMARK                         _______ _______ _______ _____ _____    ______ ____
ROOT
ATOM     10  C   UNL     1      28.286   4.662  -0.720  0.00  0.00    +0.038 A 
ATOM     11  C   UNL     1      27.332   5.485  -0.070  0.00  0.00    +0.047 A 
ATOM     12  C   UNL     1      25.934   5.480  -0.472  0.00  0.00    +0.035 A 
ATOM     32  C   UNL     1      25.542   4.620  -1.539  0.00  0.00    +0.024 A 
ATOM     33  C   UNL     1      26.499   3.777  -2.213  0.00  0.00    +0.007 A 
ATOM     34  C   UNL     1      27.880   3.781  -1.822  0.00  0.00    -0.029 A 
ATOM     35  C   UNL     1      28.863   2.861  -2.583  0.00  0.00    +0.045 C 
ENDROOT
BRANCH  10   9
ATOM      4  C   UNL     1      32.012   2.869   1.717  0.00  0.00    +0.077 A 
ATOM      5  C   UNL     1      31.238   1.763   2.203  0.00  0.00    +0.048 A 
ATOM      6  C   UNL     1      29.883   1.696   1.808  0.00  0.00    +0.116 A 
ATOM      7  N   UNL     1      29.353   2.668   0.988  0.00  0.00    -0.223 NA
ATOM      8  C   UNL     1      30.126   3.723   0.539  0.00  0.00    +0.220 A 
ATOM      9  N   UNL     1      29.615   4.707  -0.293  0.00  0.00    -0.283 N 
ATOM     36  H   UNL     1      30.216   5.473  -0.597  0.00  0.00    +0.155 HD
ATOM     37  N   UNL     1      31.422   3.810   0.903  0.00  0.00    -0.214 NA
BRANCH   4   3
ATOM      1  C   UNL     1      35.403   3.124   3.650  0.00  0.00    +0.020 A 
ATOM      2  C   UNL     1      33.999   2.911   3.388  0.00  0.00    +0.013 A 
ATOM      3  C   UNL     1      33.458   3.077   2.044  0.00  0.00    +0.019 A 
ATOM     38  C   UNL     1      34.374   3.461   0.980  0.00  0.00    +0.120 A 
ATOM     39  N   UNL     1      35.721   3.660   1.263  0.00  0.00    -0.263 NA
ATOM     40  C   UNL     1      36.252   3.505   2.552  0.00  0.00    +0.111 A 
ENDBRANCH   4   3
ENDBRANCH  10   9
BRANCH  12  13
ATOM     13  N   UNL     1      24.922   6.300   0.146  0.00  0.00    -0.281 N 
ATOM     14  C   UNL     1      25.046   7.598   0.614  0.00  0.00    +0.248 C 
ATOM     30  O   UNL     1      26.111   8.178   0.766  0.00  0.00    -0.270 OA
ATOM     31  H   UNL     1      24.002   5.871   0.252  0.00  0.00    +0.155 HD
BRANCH  14  15
ATOM     15  C   UNL     1      23.811   8.355   0.979  0.00  0.00    +0.037 A 
ATOM     16  C   UNL     1      22.923   8.902  -0.050  0.00  0.00    +0.013 A 
ATOM     17  C   UNL     1      21.746   9.643   0.330  0.00  0.00    +0.005 A 
ATOM     18  C   UNL     1      21.450   9.841   1.747  0.00  0.00    -0.033 A 
ATOM     28  C   UNL     1      22.345   9.282   2.747  0.00  0.00    +0.005 A 
ATOM     29  C   UNL     1      23.500   8.556   2.378  0.00  0.00    +0.013 A 
BRANCH  18  19
ATOM     19  C   UNL     1      20.228  10.636   2.243  0.00  0.00    +0.119 C 
BRANCH  19  20
ATOM     20  N   UNL     1      18.923   9.914   2.309  0.00  0.00    -0.302 NA
ATOM     21  C   UNL     1      17.745  10.873   2.497  0.00  0.00    +0.066 C 
ATOM     22  C   UNL     1      16.385  10.103   2.542  0.00  0.00    -0.064 C 
ATOM     23  N   UNL     1      16.425   9.068   3.667  0.00  0.00    +0.379 N 
ATOM     24  C   UNL     1      15.128   8.382   3.750  0.00  0.00    -0.096 C 
ATOM     25  H   UNL     1      16.579   9.617   4.626  0.00  0.00    -0.082 HD
ATOM     26  C   UNL     1      17.596   8.111   3.490  0.00  0.00    -0.064 C 
ATOM     27  C   UNL     1      18.939   8.890   3.417  0.00  0.00    +0.066 C 
ENDBRANCH  19  20
ENDBRANCH  18  19
ENDBRANCH  14  15
ENDBRANCH  12  13
TORSDOF 6
ENDMDL
MODEL 5
REMARK VINA RESULT:      -8.5      7.313     11.782
REMARK  Name = C:\Users\Docking\Desktop\test protocol\1iep_ligandH.pdb
REMARK  8 active torsions:
REMARK  status: ('A' for Active; 'I' for Inactive)
REMARK    1  A    between atoms: _5  and  _11
REMARK    2  A    between atoms: _19  and  _21
REMARK    3  A    between atoms: _22  and  _66
REMARK    4  A    between atoms: _27  and  _30
REMARK    5  A    between atoms: _32  and  _33
REMARK    6  A    between atoms: _38  and  _43
REMARK    7  A    between atoms: _43  and  _46
REMARK    8  A    between atoms: _53  and  _55
REMARK                            x       y       z     vdW  Elec       q    Type
REMARK                         _______ _______ _______ _____ _____    ______ ____
ROOT
ATOM     10  C   UNL     1      28.432   4.761  -1.227  0.00  0.00    +0.038 A 
ATOM     11  C   UNL     1      27.632   3.754  -1.823  0.00  0.00    +0.047 A 
ATOM     12  C   UNL     1      28.168   2.877  -2.853  0.00  0.00    +0.035 A 
ATOM     32  C   UNL     1      29.526   3.053  -3.249  0.00  0.00    +0.024 A 
ATOM     33  C   UNL     1      30.354   4.072  -2.654  0.00  0.00    +0.007 A 
ATOM     34  C   UNL     1      29.829   4.942  -1.640  0.00  0.00    -0.029 A 
ATOM     35  C   UNL     1      30.761   6.022  -1.042  0.00  0.00    +0.045 C 
ENDROOT
BRANCH  10   9
ATOM      4  C   UNL     1      24.860   7.473   0.483  0.00  0.00    +0.077 A 
ATOM      5  C   UNL     1      24.066   7.274  -0.695  0.00  0.00    +0.048 A 
ATOM      6  C   UNL     1      24.616   6.473  -1.721  0.00  0.00    +0.116 A 
ATOM      7  N   UNL     1      25.868   5.917  -1.569  0.00  0.00    -0.223 NA
ATOM      8  C   UNL     1      26.608   6.130  -0.421  0.00  0.00    +0.220 A 
ATOM      9  N   UNL     1      27.866   5.575  -0.243  0.00  0.00    -0.283 N 
ATOM     36  H   UNL     1      28.383   5.762   0.615  0.00  0.00    +0.155 HD
ATOM     37  N   UNL     1      26.106   6.893   0.573  0.00  0.00    -0.214 NA
BRANCH   4   3
ATOM      1  C   UNL     1      24.861   9.621   3.752  0.00  0.00    +0.020 A 
ATOM      2  C   UNL     1      25.342   8.837   2.638  0.00  0.00    +0.013 A 
ATOM      3  C   UNL     1      24.415   8.291   1.655  0.00  0.00    +0.019 A 
ATOM     38  C   UNL     1      22.996   8.561   1.828  0.00  0.00    +0.120 A 
ATOM     39  N   UNL     1      22.561   9.318   2.911  0.00  0.00    -0.263 NA
ATOM     40  C   UNL     1      23.444   9.847   3.865  0.00  0.00    +0.111 A 
ENDBRANCH   4   3
ENDBRANCH  10   9
BRANCH  12  13
ATOM     13  N   UNL     1      27.400   1.842  -3.500  0.00  0.00    -0.281 N 
ATOM     14  C   UNL     1      27.370   1.520  -4.847  0.00  0.00    +0.248 C 
ATOM     30  O   UNL     1      27.840   2.217  -5.735  0.00  0.00    -0.270 OA
ATOM     31  H   UNL     1      26.807   1.279  -2.891  0.00  0.00    +0.155 HD
BRANCH  14  15
ATOM     15  C   UNL     1      26.711   0.248  -5.271  0.00  0.00    +0.037 A 
ATOM     16  C   UNL     1      27.159  -0.481  -6.459  0.00  0.00    +0.013 A 
ATOM     17  C   UNL     1      26.494  -1.697  -6.856  0.00  0.00    +0.005 A 
ATOM     18  C   UNL     1      25.373  -2.192  -6.060  0.00  0.00    -0.033 A 
ATOM     28  C   UNL     1      24.952  -1.452  -4.882  0.00  0.00    +0.005 A 
ATOM     29  C   UNL     1      25.601  -0.259  -4.492  0.00  0.00    +0.013 A 
BRANCH  18  19
ATOM     19  C   UNL     1      24.592  -3.470  -6.421  0.00  0.00    +0.119 C 
BRANCH  19  20
ATOM     20  N   UNL     1      25.388  -4.697  -6.719  0.00  0.00    -0.302 NA
ATOM     21  C   UNL     1      24.864  -5.436  -7.953  0.00  0.00    +0.066 C 
ATOM     22  C   UNL     1      25.722  -6.705  -8.264  0.00  0.00    -0.064 C 
ATOM     23  N   UNL     1      25.726  -7.627  -7.043  0.00  0.00    +0.379 N 
ATOM     24  C   UNL     1      26.484  -8.848  -7.352  0.00  0.00    -0.096 C 
ATOM     25  H   UNL     1      24.671  -7.925  -6.842  0.00  0.00    -0.082 HD
ATOM     26  C   UNL     1      26.243  -6.899  -5.810  0.00  0.00    -0.064 C 
ATOM     27  C   UNL     1      25.401  -5.623  -5.527  0.00  0.00    +0.066 C 
ENDBRANCH  19  20
ENDBRANCH  18  19
ENDBRANCH  14  15
ENDBRANCH  12  13
TORSDOF 6
ENDMDL
