MODEL 1
REMARK VINA RESULT:      -8.1      0.000      0.000
REMARK  Name = C:\Users\Docking\Desktop\test protocol\1iep_ligandH.pdb
REMARK  8 active torsions:
REMARK  status: ('A' for Active; 'I' for Inactive)
REMARK    1  A    between atoms: _5  and  _11
REMARK    2  A    between atoms: _19  and  _21
REMARK    3  A    between atoms: _22  and  _66
REMARK    4  A    between atoms: _27  and  _30
REMARK    5  A    between atoms: _32  and  _33
REMARK    6  A    between atoms: _38  and  _43
REMARK    7  A    between atoms: _43  and  _46
REMARK    8  A    between atoms: _53  and  _55
REMARK                            x       y       z     vdW  Elec       q    Type
REMARK                         _______ _______ _______ _____ _____    ______ ____
ROOT
ATOM     10  C   UNL     1      17.037  33.626  13.563  0.00  0.00    +0.038 A 
ATOM     11  C   UNL     1      17.589  32.414  14.051  0.00  0.00    +0.047 A 
ATOM     12  C   UNL     1      17.618  31.215  13.227  0.00  0.00    +0.035 A 
ATOM     32  C   UNL     1      17.076  31.287  11.911  0.00  0.00    +0.024 A 
ATOM     33  C   UNL     1      16.510  32.510  11.400  0.00  0.00    +0.007 A 
ATOM     34  C   UNL     1      16.477  33.696  12.208  0.00  0.00    -0.029 A 
ATOM     35  C   UNL     1      15.851  34.978  11.611  0.00  0.00    +0.045 C 
ENDROOT
BRANCH  10   9
ATOM      4  C   UNL     1      15.871  35.864  17.646  0.00  0.00    +0.077 A 
ATOM      5  C   UNL     1      15.182  34.711  18.151  0.00  0.00    +0.048 A 
ATOM      6  C   UNL     1      15.145  33.565  17.325  0.00  0.00    +0.116 A 
ATOM      7  N   UNL     1      15.755  33.581  16.090  0.00  0.00    -0.223 NA
ATOM      8  C   UNL     1      16.409  34.711  15.632  0.00  0.00    +0.220 A 
ATOM      9  N   UNL     1      17.036  34.747  14.396  0.00  0.00    -0.283 N 
ATOM     36  H   UNL     1      17.502  35.602  14.092  0.00  0.00    +0.155 HD
ATOM     37  N   UNL     1      16.457  35.819  16.401  0.00  0.00    -0.214 NA
BRANCH   4   3
ATOM      1  C   UNL     1      15.046  39.052  19.757  0.00  0.00    +0.020 A 
ATOM      2  C   UNL     1      14.868  37.812  19.039  0.00  0.00    +0.013 A 
ATOM      3  C   UNL     1      16.000  37.150  18.402  0.00  0.00    +0.019 A 
ATOM     38  C   UNL     1      17.309  37.775  18.512  0.00  0.00    +0.120 A 
ATOM     39  N   UNL     1      17.451  38.971  19.209  0.00  0.00    -0.263 NA
ATOM     40  C   UNL     1      16.368  39.617  19.824  0.00  0.00    +0.111 A 
ENDBRANCH   4   3
ENDBRANCH  10   9
BRANCH  12  13
ATOM     13  N   UNL     1      18.158  29.955  13.671  0.00  0.00    -0.281 N 
ATOM     14  C   UNL     1      19.469  29.663  14.014  0.00  0.00    +0.248 C 
ATOM     30  O   UNL     1      20.422  30.393  13.784  0.00  0.00    -0.270 OA
ATOM     31  H   UNL     1      17.495  29.183  13.742  0.00  0.00    +0.155 HD
BRANCH  14  15
ATOM     15  C   UNL     1      19.766  28.367  14.696  0.00  0.00    +0.037 A 
ATOM     16  C   UNL     1      20.709  28.296  15.815  0.00  0.00    +0.013 A 
ATOM     17  C   UNL     1      20.990  27.031  16.445  0.00  0.00    +0.005 A 
ATOM     18  C   UNL     1      20.325  25.825  15.958  0.00  0.00    -0.033 A 
ATOM     28  C   UNL     1      19.389  25.925  14.850  0.00  0.00    +0.005 A 
ATOM     29  C   UNL     1      19.112  27.163  14.229  0.00  0.00    +0.013 A 
BRANCH  18  19
ATOM     19  C   UNL     1      20.580  24.429  16.556  0.00  0.00    +0.119 C 
BRANCH  19  20
ATOM     20  N   UNL     1      21.055  24.368  17.971  0.00  0.00    -0.302 NA
ATOM     21  C   UNL     1      22.197  23.363  18.150  0.00  0.00    +0.066 C 
ATOM     22  C   UNL     1      22.696  23.329  19.632  0.00  0.00    -0.064 C 
ATOM     23  N   UNL     1      21.525  22.987  20.554  0.00  0.00    +0.379 N 
ATOM     24  C   UNL     1      22.003  22.897  21.941  0.00  0.00    -0.096 C 
ATOM     25  H   UNL     1      21.146  21.981  20.260  0.00  0.00    -0.082 HD
ATOM     26  C   UNL     1      20.384  23.979  20.380  0.00  0.00    -0.064 C 
ATOM     27  C   UNL     1      19.915  24.028  18.899  0.00  0.00    +0.066 C 
ENDBRANCH  19  20
ENDBRANCH  18  19
ENDBRANCH  14  15
ENDBRANCH  12  13
TORSDOF 6
ENDMDL
MODEL 2
REMARK VINA RESULT:      -8.0      1.347      2.166
REMARK  Name = C:\Users\Docking\Desktop\test protocol\1iep_ligandH.pdb
REMARK  8 active torsions:
REMARK  status: ('A' for Active; 'I' for Inactive)
REMARK    1  A    between atoms: _5  and  _11
REMARK    2  A    between atoms: _19  and  _21
REMARK    3  A    between atoms: _22  and  _66
REMARK    4  A    between atoms: _27  and  _30
REMARK    5  A    between atoms: _32  and  _33
REMARK    6  A    between atoms: _38  and  _43
REMARK    7  A    between atoms: _43  and  _46
REMARK    8  A    between atoms: _53  and  _55
REMARK                            x       y       z     vdW  Elec       q    Type
REMARK                         _______ _______ _______ _____ _____    ______ ____
ROOT
ATOM     10  C   UNL     1      17.058  33.698  13.690  0.00  0.00    +0.038 A 
ATOM     11  C   UNL     1      17.599  32.498  14.216  0.00  0.00    +0.047 A 
ATOM     12  C   UNL     1      17.659  31.285  13.416  0.00  0.00    +0.035 A 
ATOM     32  C   UNL     1      17.161  31.331  12.081  0.00  0.00    +0.024 A 
ATOM     33  C   UNL     1      16.606  32.542  11.530  0.00  0.00    +0.007 A 
ATOM     34  C   UNL     1      16.542  33.741  12.316  0.00  0.00    -0.029 A 
ATOM     35  C   UNL     1      15.931  35.010  11.676  0.00  0.00    +0.045 C 
ENDROOT
BRANCH  10   9
ATOM      4  C   UNL     1      15.837  35.973  17.737  0.00  0.00    +0.077 A 
ATOM      5  C   UNL     1      15.187  34.808  18.265  0.00  0.00    +0.048 A 
ATOM      6  C   UNL     1      15.182  33.646  17.460  0.00  0.00    +0.116 A 
ATOM      7  N   UNL     1      15.787  33.660  16.222  0.00  0.00    -0.223 NA
ATOM      8  C   UNL     1      16.404  34.800  15.742  0.00  0.00    +0.220 A 
ATOM      9  N   UNL     1      17.025  34.834  14.503  0.00  0.00    -0.283 N 
ATOM     36  H   UNL     1      17.462  35.697  14.181  0.00  0.00    +0.155 HD
ATOM     37  N   UNL     1      16.420  35.923  16.490  0.00  0.00    -0.214 NA
BRANCH   4   3
ATOM      1  C   UNL     1      14.914  39.190  19.761  0.00  0.00    +0.020 A 
ATOM      2  C   UNL     1      14.772  37.932  19.065  0.00  0.00    +0.013 A 
ATOM      3  C   UNL     1      15.928  37.276  18.468  0.00  0.00    +0.019 A 
ATOM     38  C   UNL     1      17.225  37.923  18.596  0.00  0.00    +0.120 A 
ATOM     39  N   UNL     1      17.332  39.135  19.271  0.00  0.00    -0.263 NA
ATOM     40  C   UNL     1      16.226  39.777  19.848  0.00  0.00    +0.111 A 
ENDBRANCH   4   3
ENDBRANCH  10   9
BRANCH  12  13
ATOM     13  N   UNL     1      18.190  30.035  13.899  0.00  0.00    -0.281 N 
ATOM     14  C   UNL     1      19.519  29.654  13.994  0.00  0.00    +0.248 C 
ATOM     30  O   UNL     1      20.449  30.253  13.475  0.00  0.00    -0.270 OA
ATOM     31  H   UNL     1      17.504  29.347  14.209  0.00  0.00    +0.155 HD
BRANCH  14  15
ATOM     15  C   UNL     1      19.863  28.420  14.765  0.00  0.00    +0.037 A 
ATOM     16  C   UNL     1      19.225  27.135  14.468  0.00  0.00    +0.013 A 
ATOM     17  C   UNL     1      19.563  25.965  15.238  0.00  0.00    +0.005 A 
ATOM     18  C   UNL     1      20.545  26.074  16.314  0.00  0.00    -0.033 A 
ATOM     28  C   UNL     1      21.167  27.360  16.584  0.00  0.00    +0.005 A 
ATOM     29  C   UNL     1      20.837  28.510  15.832  0.00  0.00    +0.013 A 
BRANCH  18  19
ATOM     19  C   UNL     1      20.951  24.882  17.201  0.00  0.00    +0.119 C 
BRANCH  19  20
ATOM     20  N   UNL     1      21.333  23.614  16.510  0.00  0.00    -0.302 NA
ATOM     21  C   UNL     1      20.148  22.655  16.370  0.00  0.00    +0.066 C 
ATOM     22  C   UNL     1      20.560  21.344  15.625  0.00  0.00    -0.064 C 
ATOM     23  N   UNL     1      21.713  20.675  16.376  0.00  0.00    +0.379 N 
ATOM     24  C   UNL     1      22.065  19.413  15.711  0.00  0.00    -0.096 C 
ATOM     25  H   UNL     1      21.350  20.428  17.401  0.00  0.00    -0.082 HD
ATOM     26  C   UNL     1      22.895  21.623  16.522  0.00  0.00    -0.064 C 
ATOM     27  C   UNL     1      22.467  22.935  17.237  0.00  0.00    +0.066 C 
ENDBRANCH  19  20
ENDBRANCH  18  19
ENDBRANCH  14  15
ENDBRANCH  12  13
TORSDOF 6
ENDMDL
MODEL 3
REMARK VINA RESULT:      -7.7      1.625      2.160
REMARK  Name = C:\Users\Docking\Desktop\test protocol\1iep_ligandH.pdb
REMARK  8 active torsions:
REMARK  status: ('A' for Active; 'I' for Inactive)
REMARK    1  A    between atoms: _5  and  _11
REMARK    2  A    between atoms: _19  and  _21
REMARK    3  A    between atoms: _22  and  _66
REMARK    4  A    between atoms: _27  and  _30
REMARK    5  A    between atoms: _32  and  _33
REMARK    6  A    between atoms: _38  and  _43
REMARK    7  A    between atoms: _43  and  _46
REMARK    8  A    between atoms: _53  and  _55
REMARK                            x       y       z     vdW  Elec       q    Type
REMARK                         _______ _______ _______ _____ _____    ______ ____
ROOT
ATOM     10  C   UNL     1      17.086  33.726  12.698  0.00  0.00    +0.038 A 
ATOM     11  C   UNL     1      17.473  32.458  13.201  0.00  0.00    +0.047 A 
ATOM     12  C   UNL     1      17.565  31.298  12.327  0.00  0.00    +0.035 A 
ATOM     32  C   UNL     1      17.258  31.467  10.946  0.00  0.00    +0.024 A 
ATOM     33  C   UNL     1      16.862  32.749  10.418  0.00  0.00    +0.007 A 
ATOM     34  C   UNL     1      16.767  33.896  11.275  0.00  0.00    -0.029 A 
ATOM     35  C   UNL     1      16.331  35.244  10.656  0.00  0.00    +0.045 C 
ENDROOT
BRANCH  10   9
ATOM      4  C   UNL     1      15.927  35.656  16.937  0.00  0.00    +0.077 A 
ATOM      5  C   UNL     1      15.396  34.416  17.423  0.00  0.00    +0.048 A 
ATOM      6  C   UNL     1      15.433  33.307  16.548  0.00  0.00    +0.116 A 
ATOM      7  N   UNL     1      15.964  33.440  15.284  0.00  0.00    -0.223 NA
ATOM      8  C   UNL     1      16.467  34.651  14.846  0.00  0.00    +0.220 A 
ATOM      9  N   UNL     1      17.014  34.805  13.581  0.00  0.00    -0.283 N 
ATOM     36  H   UNL     1      17.368  35.717  13.293  0.00  0.00    +0.155 HD
ATOM     37  N   UNL     1      16.442  35.725  15.661  0.00  0.00    -0.214 NA
BRANCH   4   3
ATOM      1  C   UNL     1      16.534  39.353  18.061  0.00  0.00    +0.020 A 
ATOM      2  C   UNL     1      16.526  38.164  17.241  0.00  0.00    +0.013 A 
ATOM      3  C   UNL     1      15.962  36.917  17.743  0.00  0.00    +0.019 A 
ATOM     38  C   UNL     1      15.410  36.908  19.090  0.00  0.00    +0.120 A 
ATOM     39  N   UNL     1      15.433  38.069  19.857  0.00  0.00    -0.263 NA
ATOM     40  C   UNL     1      15.975  39.274  19.384  0.00  0.00    +0.111 A 
ENDBRANCH   4   3
ENDBRANCH  10   9
BRANCH  12  13
ATOM     13  N   UNL     1      17.944  29.983  12.783  0.00  0.00    -0.281 N 
ATOM     14  C   UNL     1      17.530  28.758  12.287  0.00  0.00    +0.248 C 
ATOM     30  O   UNL     1      16.599  28.606  11.511  0.00  0.00    -0.270 OA
ATOM     31  H   UNL     1      18.598  29.953  13.565  0.00  0.00    +0.155 HD
BRANCH  14  15
ATOM     15  C   UNL     1      18.244  27.522  12.730  0.00  0.00    +0.037 A 
ATOM     16  C   UNL     1      18.350  26.351  11.855  0.00  0.00    +0.013 A 
ATOM     17  C   UNL     1      19.029  25.165  12.313  0.00  0.00    +0.005 A 
ATOM     18  C   UNL     1      19.609  25.145  13.654  0.00  0.00    -0.033 A 
ATOM     28  C   UNL     1      19.494  26.322  14.499  0.00  0.00    +0.005 A 
ATOM     29  C   UNL     1      18.828  27.486  14.053  0.00  0.00    +0.013 A 
BRANCH  18  19
ATOM     19  C   UNL     1      20.333  23.915  14.233  0.00  0.00    +0.119 C 
BRANCH  19  20
ATOM     20  N   UNL     1      20.634  23.925  15.695  0.00  0.00    -0.302 NA
ATOM     21  C   UNL     1      22.037  23.390  15.997  0.00  0.00    +0.066 C 
ATOM     22  C   UNL     1      22.344  23.429  17.530  0.00  0.00    -0.064 C 
ATOM     23  N   UNL     1      21.284  22.620  18.279  0.00  0.00    +0.379 N 
ATOM     24  C   UNL     1      21.601  22.606  19.715  0.00  0.00    -0.096 C 
ATOM     25  H   UNL     1      21.337  21.569  17.910  0.00  0.00    -0.082 HD
ATOM     26  C   UNL     1      19.885  23.143  17.983  0.00  0.00    -0.064 C 
ATOM     27  C   UNL     1      19.602  23.128  16.455  0.00  0.00    +0.066 C 
ENDBRANCH  19  20
ENDBRANCH  18  19
ENDBRANCH  14  15
ENDBRANCH  12  13
TORSDOF 6
ENDMDL
MODEL 4
REMARK VINA RESULT:      -7.7      5.793     12.288
REMARK  Name = C:\Users\Docking\Desktop\test protocol\1iep_ligandH.pdb
REMARK  8 active torsions:
REMARK  status: ('A' for Active; 'I' for Inactive)
REMARK    1  A    between atoms: _5  and  _11
REMARK    2  A    between atoms: _19  and  _21
REMARK    3  A    between atoms: _22  and  _66
REMARK    4  A    between atoms: _27  and  _30
REMARK    5  A    between atoms: _32  and  _33
REMARK    6  A    between atoms: _38  and  _43
REMARK    7  A    between atoms: _43  and  _46
REMARK    8  A    between atoms: _53  and  _55
REMARK                            x       y       z     vdW  Elec       q    Type
REMARK                         _______ _______ _______ _____ _____    ______ ____
ROOT
ATOM     10  C   UNL     1      16.037  31.819  11.138  0.00  0.00    +0.038 A 
ATOM     11  C   UNL     1      15.711  32.816  12.092  0.00  0.00    +0.047 A 
ATOM     12  C   UNL     1      16.325  32.825  13.411  0.00  0.00    +0.035 A 
ATOM     32  C   UNL     1      17.269  31.804  13.723  0.00  0.00    +0.024 A 
ATOM     33  C   UNL     1      17.612  30.782  12.766  0.00  0.00    +0.007 A 
ATOM     34  C   UNL     1      17.008  30.767  11.464  0.00  0.00    -0.029 A 
ATOM     35  C   UNL     1      17.408  29.643  10.480  0.00  0.00    +0.045 C 
ENDROOT
BRANCH  10   9
ATOM      4  C   UNL     1      15.818  33.267   6.567  0.00  0.00    +0.077 A 
ATOM      5  C   UNL     1      17.026  34.031   6.689  0.00  0.00    +0.048 A 
ATOM      6  C   UNL     1      17.669  34.031   7.947  0.00  0.00    +0.116 A 
ATOM      7  N   UNL     1      17.136  33.316   8.998  0.00  0.00    -0.223 NA
ATOM      8  C   UNL     1      15.968  32.591   8.846  0.00  0.00    +0.220 A 
ATOM      9  N   UNL     1      15.418  31.858   9.887  0.00  0.00    -0.283 N 
ATOM     36  H   UNL     1      14.551  31.342   9.737  0.00  0.00    +0.155 HD
ATOM     37  N   UNL     1      15.334  32.576   7.655  0.00  0.00    -0.214 NA
BRANCH   4   3
ATOM      1  C   UNL     1      14.098  34.125   3.160  0.00  0.00    +0.020 A 
ATOM      2  C   UNL     1      14.875  34.276   4.369  0.00  0.00    +0.013 A 
ATOM      3  C   UNL     1      15.025  33.165   5.301  0.00  0.00    +0.019 A 
ATOM     38  C   UNL     1      14.373  31.905   4.977  0.00  0.00    +0.120 A 
ATOM     39  N   UNL     1      13.630  31.790   3.806  0.00  0.00    -0.263 NA
ATOM     40  C   UNL     1      13.477  32.852   2.902  0.00  0.00    +0.111 A 
ENDBRANCH   4   3
ENDBRANCH  10   9
BRANCH  12  13
ATOM     13  N   UNL     1      16.027  33.807  14.424  0.00  0.00    -0.281 N 
ATOM     14  C   UNL     1      15.741  33.591  15.762  0.00  0.00    +0.248 C 
ATOM     30  O   UNL     1      15.486  32.498  16.246  0.00  0.00    -0.270 OA
ATOM     31  H   UNL     1      16.027  34.780  14.117  0.00  0.00    +0.155 HD
BRANCH  14  15
ATOM     15  C   UNL     1      15.720  34.759  16.694  0.00  0.00    +0.037 A 
ATOM     16  C   UNL     1      16.465  35.984  16.393  0.00  0.00    +0.013 A 
ATOM     17  C   UNL     1      16.442  37.090  17.318  0.00  0.00    +0.005 A 
ATOM     18  C   UNL     1      15.668  36.976  18.551  0.00  0.00    -0.033 A 
ATOM     28  C   UNL     1      14.933  35.751  18.822  0.00  0.00    +0.005 A 
ATOM     29  C   UNL     1      14.955  34.665  17.919  0.00  0.00    +0.013 A 
BRANCH  18  19
ATOM     19  C   UNL     1      15.603  38.098  19.605  0.00  0.00    +0.119 C 
BRANCH  19  20
ATOM     20  N   UNL     1      15.997  39.470  19.167  0.00  0.00    -0.302 NA
ATOM     21  C   UNL     1      17.378  39.868  19.697  0.00  0.00    +0.066 C 
ATOM     22  C   UNL     1      17.784  41.297  19.211  0.00  0.00    -0.064 C 
ATOM     23  N   UNL     1      16.723  42.305  19.656  0.00  0.00    +0.379 N 
ATOM     24  C   UNL     1      17.131  43.658  19.252  0.00  0.00    -0.096 C 
ATOM     25  H   UNL     1      16.682  42.282  20.770  0.00  0.00    -0.082 HD
ATOM     26  C   UNL     1      15.346  41.915  19.136  0.00  0.00    -0.064 C 
ATOM     27  C   UNL     1      14.965  40.482  19.600  0.00  0.00    +0.066 C 
ENDBRANCH  19  20
ENDBRANCH  18  19
ENDBRANCH  14  15
ENDBRANCH  12  13
TORSDOF 6
ENDMDL
MODEL 5
REMARK VINA RESULT:      -7.7      3.001      4.744
REMARK  Name = C:\Users\Docking\Desktop\test protocol\1iep_ligandH.pdb
REMARK  8 active torsions:
REMARK  status: ('A' for Active; 'I' for Inactive)
REMARK    1  A    between atoms: _5  and  _11
REMARK    2  A    between atoms: _19  and  _21
REMARK    3  A    between atoms: _22  and  _66
REMARK    4  A    between atoms: _27  and  _30
REMARK    5  A    between atoms: _32  and  _33
REMARK    6  A    between atoms: _38  and  _43
REMARK    7  A    between atoms: _43  and  _46
REMARK    8  A    between atoms: _53  and  _55
REMARK                            x       y       z     vdW  Elec       q    Type
REMARK                         _______ _______ _______ _____ _____    ______ ____
ROOT
ATOM     10  C   UNL     1      20.619  31.222  16.356  0.00  0.00    +0.038 A 
ATOM     11  C   UNL     1      20.506  29.915  16.896  0.00  0.00    +0.047 A 
ATOM     12  C   UNL     1      21.225  28.795  16.309  0.00  0.00    +0.035 A 
ATOM     32  C   UNL     1      22.051  29.042  15.174  0.00  0.00    +0.024 A 
ATOM     33  C   UNL     1      22.176  30.364  14.612  0.00  0.00    +0.007 A 
ATOM     34  C   UNL     1      21.468  31.472  15.186  0.00  0.00    -0.029 A 
ATOM     35  C   UNL     1      21.634  32.867  14.538  0.00  0.00    +0.045 C 
ENDROOT
BRANCH  10   9
ATOM      4  C   UNL     1      16.677  33.911  16.871  0.00  0.00    +0.077 A 
ATOM      5  C   UNL     1      15.986  33.203  15.832  0.00  0.00    +0.048 A 
ATOM      6  C   UNL     1      16.684  32.159  15.185  0.00  0.00    +0.116 A 
ATOM      7  N   UNL     1      17.974  31.853  15.558  0.00  0.00    -0.223 NA
ATOM      8  C   UNL     1      18.612  32.557  16.563  0.00  0.00    +0.220 A 
ATOM      9  N   UNL     1      19.907  32.261  16.960  0.00  0.00    -0.283 N 
ATOM     36  H   UNL     1      20.345  32.809  17.700  0.00  0.00    +0.155 HD
ATOM     37  N   UNL     1      17.968  33.560  17.195  0.00  0.00    -0.214 NA
BRANCH   4   3
ATOM      1  C   UNL     1      14.102  36.366  18.498  0.00  0.00    +0.020 A 
ATOM      2  C   UNL     1      14.635  35.263  17.731  0.00  0.00    +0.013 A 
ATOM      3  C   UNL     1      16.072  35.038  17.651  0.00  0.00    +0.019 A 
ATOM     38  C   UNL     1      16.951  35.952  18.364  0.00  0.00    +0.120 A 
ATOM     39  N   UNL     1      16.410  37.007  19.093  0.00  0.00    -0.263 NA
ATOM     40  C   UNL     1      15.028  37.235  19.176  0.00  0.00    +0.111 A 
ENDBRANCH   4   3
ENDBRANCH  10   9
BRANCH  12  13
ATOM     13  N   UNL     1      21.143  27.444  16.808  0.00  0.00    -0.281 N 
ATOM     14  C   UNL     1      20.508  26.359  16.227  0.00  0.00    +0.248 C 
ATOM     30  O   UNL     1      19.728  26.434  15.290  0.00  0.00    -0.270 OA
ATOM     31  H   UNL     1      21.610  27.267  17.698  0.00  0.00    +0.155 HD
BRANCH  14  15
ATOM     15  C   UNL     1      20.766  24.993  16.777  0.00  0.00    +0.037 A 
ATOM     16  C   UNL     1      19.920  23.854  16.411  0.00  0.00    +0.013 A 
ATOM     17  C   UNL     1      20.180  22.551  16.968  0.00  0.00    +0.005 A 
ATOM     18  C   UNL     1      21.294  22.379  17.898  0.00  0.00    -0.033 A 
ATOM     28  C   UNL     1      22.121  23.524  18.240  0.00  0.00    +0.005 A 
ATOM     29  C   UNL     1      21.868  24.804  17.696  0.00  0.00    +0.013 A 
BRANCH  18  19
ATOM     19  C   UNL     1      21.632  21.029  18.558  0.00  0.00    +0.119 C 
BRANCH  19  20
ATOM     20  N   UNL     1      22.449  20.064  17.762  0.00  0.00    -0.302 NA
ATOM     21  C   UNL     1      23.869  20.581  17.516  0.00  0.00    +0.066 C 
ATOM     22  C   UNL     1      24.717  19.550  16.702  0.00  0.00    -0.064 C 
ATOM     23  N   UNL     1      24.013  19.248  15.378  0.00  0.00    +0.379 N 
ATOM     24  C   UNL     1      24.836  18.324  14.584  0.00  0.00    -0.096 C 
ATOM     25  H   UNL     1      23.937  20.205  14.810  0.00  0.00    -0.082 HD
ATOM     26  C   UNL     1      22.599  18.737  15.613  0.00  0.00    -0.064 C 
ATOM     27  C   UNL     1      21.775  19.756  16.448  0.00  0.00    +0.066 C 
ENDBRANCH  19  20
ENDBRANCH  18  19
ENDBRANCH  14  15
ENDBRANCH  12  13
TORSDOF 6
ENDMDL
