MODEL 1
REMARK VINA RESULT:     -13.3      0.000      0.000
REMARK  Name = C:\Users\Docking\Desktop\test protocol\1iep_ligandH.pdb
REMARK  8 active torsions:
REMARK  status: ('A' for Active; 'I' for Inactive)
REMARK    1  A    between atoms: _5  and  _11
REMARK    2  A    between atoms: _19  and  _21
REMARK    3  A    between atoms: _22  and  _66
REMARK    4  A    between atoms: _27  and  _30
REMARK    5  A    between atoms: _32  and  _33
REMARK    6  A    between atoms: _38  and  _43
REMARK    7  A    between atoms: _43  and  _46
REMARK    8  A    between atoms: _53  and  _55
REMARK                            x       y       z     vdW  Elec       q    Type
REMARK                         _______ _______ _______ _____ _____    ______ ____
ROOT
ATOM     10  C   UNL     1      17.260  -2.584  -8.315  0.00  0.00    +0.038 A 
ATOM     11  C   UNL     1      17.972  -3.363  -9.263  0.00  0.00    +0.047 A 
ATOM     12  C   UNL     1      18.616  -4.610  -8.881  0.00  0.00    +0.035 A 
ATOM     32  C   UNL     1      18.512  -5.036  -7.525  0.00  0.00    +0.024 A 
ATOM     33  C   UNL     1      17.793  -4.256  -6.548  0.00  0.00    +0.007 A 
ATOM     34  C   UNL     1      17.159  -3.024  -6.918  0.00  0.00    -0.029 A 
ATOM     35  C   UNL     1      16.407  -2.225  -5.828  0.00  0.00    +0.045 C 
ENDROOT
BRANCH  10   9
ATOM      4  C   UNL     1      13.436  -0.018  -9.667  0.00  0.00    +0.077 A 
ATOM      5  C   UNL     1      12.562  -1.148  -9.549  0.00  0.00    +0.048 A 
ATOM      6  C   UNL     1      13.137  -2.374  -9.144  0.00  0.00    +0.116 A 
ATOM      7  N   UNL     1      14.487  -2.451  -8.880  0.00  0.00    -0.223 NA
ATOM      8  C   UNL     1      15.303  -1.342  -9.005  0.00  0.00    +0.220 A 
ATOM      9  N   UNL     1      16.662  -1.395  -8.737  0.00  0.00    -0.283 N 
ATOM     36  H   UNL     1      17.231  -0.556  -8.849  0.00  0.00    +0.155 HD
ATOM     37  N   UNL     1      14.778  -0.160  -9.391  0.00  0.00    -0.214 NA
BRANCH   4   3
ATOM      1  C   UNL     1      13.285   3.842 -10.285  0.00  0.00    +0.020 A 
ATOM      2  C   UNL     1      13.773   2.548  -9.866  0.00  0.00    +0.013 A 
ATOM      3  C   UNL     1      12.978   1.346 -10.081  0.00  0.00    +0.019 A 
ATOM     38  C   UNL     1      11.682   1.488 -10.728  0.00  0.00    +0.120 A 
ATOM     39  N   UNL     1      11.237   2.747 -11.119  0.00  0.00    -0.263 NA
ATOM     40  C   UNL     1      11.993   3.911 -10.916  0.00  0.00    +0.111 A 
ENDBRANCH   4   3
ENDBRANCH  10   9
BRANCH  12  13
ATOM     13  N   UNL     1      19.359  -5.439  -9.798  0.00  0.00    -0.281 N 
ATOM     14  C   UNL     1      19.775  -5.128 -11.082  0.00  0.00    +0.248 C 
ATOM     30  O   UNL     1      19.384  -4.161 -11.719  0.00  0.00    -0.270 OA
ATOM     31  H   UNL     1      19.608  -6.369  -9.459  0.00  0.00    +0.155 HD
BRANCH  14  15
ATOM     15  C   UNL     1      20.756  -6.028 -11.761  0.00  0.00    +0.037 A 
ATOM     16  C   UNL     1      21.081  -7.348 -11.215  0.00  0.00    +0.013 A 
ATOM     17  C   UNL     1      22.043  -8.189 -11.881  0.00  0.00    +0.005 A 
ATOM     18  C   UNL     1      22.687  -7.712 -13.103  0.00  0.00    -0.033 A 
ATOM     28  C   UNL     1      22.342  -6.401 -13.626  0.00  0.00    +0.005 A 
ATOM     29  C   UNL     1      21.399  -5.573 -12.975  0.00  0.00    +0.013 A 
BRANCH  18  19
ATOM     19  C   UNL     1      23.741  -8.534 -13.868  0.00  0.00    +0.119 C 
BRANCH  19  20
ATOM     20  N   UNL     1      23.544 -10.013 -13.927  0.00  0.00    -0.302 NA
ATOM     21  C   UNL     1      24.803 -10.742 -14.405  0.00  0.00    +0.066 C 
ATOM     22  C   UNL     1      24.587 -12.290 -14.440  0.00  0.00    -0.064 C 
ATOM     23  N   UNL     1      23.396 -12.615 -15.344  0.00  0.00    +0.379 N 
ATOM     24  C   UNL     1      23.226 -14.073 -15.425  0.00  0.00    -0.096 C 
ATOM     25  H   UNL     1      23.639 -12.246 -16.368  0.00  0.00    -0.082 HD
ATOM     26  C   UNL     1      22.141 -11.893 -14.878  0.00  0.00    -0.064 C 
ATOM     27  C   UNL     1      22.376 -10.357 -14.819  0.00  0.00    +0.066 C 
ENDBRANCH  19  20
ENDBRANCH  18  19
ENDBRANCH  14  15
ENDBRANCH  12  13
TORSDOF 6
ENDMDL
