MODEL 1
REMARK VINA RESULT:      -9.8      0.000      0.000
REMARK  Name = C:\Users\Docking\Desktop\test protocol\1iep_ligandH.pdb
REMARK  8 active torsions:
REMARK  status: ('A' for Active; 'I' for Inactive)
REMARK    1  A    between atoms: _5  and  _11
REMARK    2  A    between atoms: _19  and  _21
REMARK    3  A    between atoms: _22  and  _66
REMARK    4  A    between atoms: _27  and  _30
REMARK    5  A    between atoms: _32  and  _33
REMARK    6  A    between atoms: _38  and  _43
REMARK    7  A    between atoms: _43  and  _46
REMARK    8  A    between atoms: _53  and  _55
REMARK                            x       y       z     vdW  Elec       q    Type
REMARK                         _______ _______ _______ _____ _____    ______ ____
ROOT
ATOM     10  C   UNL     1     -51.818  49.817  24.026  0.00  0.00    +0.038 A 
ATOM     11  C   UNL     1     -51.645  51.224  24.078  0.00  0.00    +0.047 A 
ATOM     12  C   UNL     1     -50.664  51.829  24.965  0.00  0.00    +0.035 A 
ATOM     32  C   UNL     1     -49.873  50.970  25.784  0.00  0.00    +0.024 A 
ATOM     33  C   UNL     1     -50.037  49.538  25.743  0.00  0.00    +0.007 A 
ATOM     34  C   UNL     1     -51.005  48.936  24.872  0.00  0.00    -0.029 A 
ATOM     35  C   UNL     1     -51.142  47.396  24.875  0.00  0.00    +0.045 C 
ENDROOT
BRANCH  10   9
ATOM      4  C   UNL     1     -56.183  48.045  23.106  0.00  0.00    +0.077 A 
ATOM      5  C   UNL     1     -56.581  48.153  24.480  0.00  0.00    +0.048 A 
ATOM      6  C   UNL     1     -55.631  48.662  25.393  0.00  0.00    +0.116 A 
ATOM      7  N   UNL     1     -54.379  49.034  24.953  0.00  0.00    -0.223 NA
ATOM      8  C   UNL     1     -54.026  48.916  23.621  0.00  0.00    +0.220 A 
ATOM      9  N   UNL     1     -52.776  49.290  23.156  0.00  0.00    -0.283 N 
ATOM     36  H   UNL     1     -52.552  49.180  22.167  0.00  0.00    +0.155 HD
ATOM     37  N   UNL     1     -54.916  48.430  22.730  0.00  0.00    -0.214 NA
BRANCH   4   3
ATOM      1  C   UNL     1     -58.998  46.122  21.188  0.00  0.00    +0.020 A 
ATOM      2  C   UNL     1     -58.164  46.590  22.271  0.00  0.00    +0.013 A 
ATOM      3  C   UNL     1     -57.076  47.528  22.021  0.00  0.00    +0.019 A 
ATOM     38  C   UNL     1     -56.858  47.976  20.654  0.00  0.00    +0.120 A 
ATOM     39  N   UNL     1     -57.676  47.507  19.632  0.00  0.00    -0.263 NA
ATOM     40  C   UNL     1     -58.725  46.603  19.859  0.00  0.00    +0.111 A 
ENDBRANCH   4   3
ENDBRANCH  10   9
BRANCH  12  13
ATOM     13  N   UNL     1     -50.449  53.251  25.068  0.00  0.00    -0.281 N 
ATOM     14  C   UNL     1     -49.849  54.090  24.144  0.00  0.00    +0.248 C 
ATOM     30  O   UNL     1     -49.210  53.707  23.175  0.00  0.00    -0.270 OA
ATOM     31  H   UNL     1     -50.780  53.693  25.926  0.00  0.00    +0.155 HD
BRANCH  14  15
ATOM     15  C   UNL     1     -49.962  55.569  24.331  0.00  0.00    +0.037 A 
ATOM     16  C   UNL     1     -48.889  56.339  24.964  0.00  0.00    +0.013 A 
ATOM     17  C   UNL     1     -49.032  57.762  25.148  0.00  0.00    +0.005 A 
ATOM     18  C   UNL     1     -50.253  58.424  24.695  0.00  0.00    -0.033 A 
ATOM     28  C   UNL     1     -51.299  57.636  24.065  0.00  0.00    +0.005 A 
ATOM     29  C   UNL     1     -51.164  56.242  23.884  0.00  0.00    +0.013 A 
BRANCH  18  19
ATOM     19  C   UNL     1     -50.499  59.934  24.869  0.00  0.00    +0.119 C 
BRANCH  19  20
ATOM     20  N   UNL     1     -51.400  60.598  23.881  0.00  0.00    -0.302 NA
ATOM     21  C   UNL     1     -50.625  61.171  22.691  0.00  0.00    +0.066 C 
ATOM     22  C   UNL     1     -51.586  61.842  21.656  0.00  0.00    -0.064 C 
ATOM     23  N   UNL     1     -52.397  62.937  22.352  0.00  0.00    +0.379 N 
ATOM     24  C   UNL     1     -53.259  63.609  21.369  0.00  0.00    -0.096 C 
ATOM     25  H   UNL     1     -51.677  63.693  22.744  0.00  0.00    -0.082 HD
ATOM     26  C   UNL     1     -53.168  62.377  23.538  0.00  0.00    -0.064 C 
ATOM     27  C   UNL     1     -52.208  61.686  24.546  0.00  0.00    +0.066 C 
ENDBRANCH  19  20
ENDBRANCH  18  19
ENDBRANCH  14  15
ENDBRANCH  12  13
TORSDOF 6
ENDMDL
MODEL 2
REMARK VINA RESULT:      -9.8     15.978     21.430
REMARK  Name = C:\Users\Docking\Desktop\test protocol\1iep_ligandH.pdb
REMARK  8 active torsions:
REMARK  status: ('A' for Active; 'I' for Inactive)
REMARK    1  A    between atoms: _5  and  _11
REMARK    2  A    between atoms: _19  and  _21
REMARK    3  A    between atoms: _22  and  _66
REMARK    4  A    between atoms: _27  and  _30
REMARK    5  A    between atoms: _32  and  _33
REMARK    6  A    between atoms: _38  and  _43
REMARK    7  A    between atoms: _43  and  _46
REMARK    8  A    between atoms: _53  and  _55
REMARK                            x       y       z     vdW  Elec       q    Type
REMARK                         _______ _______ _______ _____ _____    ______ ____
ROOT
ATOM     10  C   UNL     1     -53.306  39.763  35.724  0.00  0.00    +0.038 A 
ATOM     11  C   UNL     1     -52.980  39.003  34.571  0.00  0.00    +0.047 A 
ATOM     12  C   UNL     1     -53.524  37.669  34.371  0.00  0.00    +0.035 A 
ATOM     32  C   UNL     1     -54.400  37.141  35.363  0.00  0.00    +0.024 A 
ATOM     33  C   UNL     1     -54.742  37.900  36.541  0.00  0.00    +0.007 A 
ATOM     34  C   UNL     1     -54.205  39.215  36.746  0.00  0.00    -0.029 A 
ATOM     35  C   UNL     1     -54.600  39.980  38.030  0.00  0.00    +0.045 C 
ENDROOT
BRANCH  10   9
ATOM      4  C   UNL     1     -49.772  42.722  37.064  0.00  0.00    +0.077 A 
ATOM      5  C   UNL     1     -48.967  41.638  37.547  0.00  0.00    +0.048 A 
ATOM      6  C   UNL     1     -49.502  40.334  37.439  0.00  0.00    +0.116 A 
ATOM      7  N   UNL     1     -50.750  40.142  36.887  0.00  0.00    -0.223 NA
ATOM      8  C   UNL     1     -51.501  41.210  36.431  0.00  0.00    +0.220 A 
ATOM      9  N   UNL     1     -52.754  41.039  35.865  0.00  0.00    -0.283 N 
ATOM     36  H   UNL     1     -53.280  41.853  35.548  0.00  0.00    +0.155 HD
ATOM     37  N   UNL     1     -51.013  42.465  36.525  0.00  0.00    -0.214 NA
BRANCH   4   3
ATOM      1  C   UNL     1     -47.695  45.982  37.665  0.00  0.00    +0.020 A 
ATOM      2  C   UNL     1     -48.061  44.584  37.649  0.00  0.00    +0.013 A 
ATOM      3  C   UNL     1     -49.344  44.156  37.105  0.00  0.00    +0.019 A 
ATOM     38  C   UNL     1     -50.240  45.175  36.580  0.00  0.00    +0.120 A 
ATOM     39  N   UNL     1     -49.861  46.514  36.610  0.00  0.00    -0.263 NA
ATOM     40  C   UNL     1     -48.630  46.938  37.133  0.00  0.00    +0.111 A 
ENDBRANCH   4   3
ENDBRANCH  10   9
BRANCH  12  13
ATOM     13  N   UNL     1     -53.223  36.848  33.225  0.00  0.00    -0.281 N 
ATOM     14  C   UNL     1     -52.150  35.988  33.052  0.00  0.00    +0.248 C 
ATOM     30  O   UNL     1     -51.167  35.955  33.777  0.00  0.00    -0.270 OA
ATOM     31  H   UNL     1     -53.879  36.907  32.447  0.00  0.00    +0.155 HD
BRANCH  14  15
ATOM     15  C   UNL     1     -52.167  35.036  31.900  0.00  0.00    +0.037 A 
ATOM     16  C   UNL     1     -51.195  35.147  30.809  0.00  0.00    +0.013 A 
ATOM     17  C   UNL     1     -51.243  34.226  29.701  0.00  0.00    +0.005 A 
ATOM     18  C   UNL     1     -52.268  33.185  29.680  0.00  0.00    -0.033 A 
ATOM     28  C   UNL     1     -53.216  33.094  30.778  0.00  0.00    +0.005 A 
ATOM     29  C   UNL     1     -53.172  33.995  31.865  0.00  0.00    +0.013 A 
BRANCH  18  19
ATOM     19  C   UNL     1     -52.407  32.172  28.527  0.00  0.00    +0.119 C 
BRANCH  19  20
ATOM     20  N   UNL     1     -52.980  32.674  27.242  0.00  0.00    -0.302 NA
ATOM     21  C   UNL     1     -53.553  34.087  27.382  0.00  0.00    +0.066 C 
ATOM     22  C   UNL     1     -54.128  34.604  26.023  0.00  0.00    -0.064 C 
ATOM     23  N   UNL     1     -55.197  33.633  25.521  0.00  0.00    +0.379 N 
ATOM     24  C   UNL     1     -55.780  34.146  24.273  0.00  0.00    -0.096 C 
ATOM     25  H   UNL     1     -56.009  33.599  26.285  0.00  0.00    -0.082 HD
ATOM     26  C   UNL     1     -54.636  32.224  25.383  0.00  0.00    -0.064 C 
ATOM     27  C   UNL     1     -54.041  31.731  26.731  0.00  0.00    +0.066 C 
ENDBRANCH  19  20
ENDBRANCH  18  19
ENDBRANCH  14  15
ENDBRANCH  12  13
TORSDOF 6
ENDMDL
MODEL 3
REMARK VINA RESULT:      -9.3     16.439     22.741
REMARK  Name = C:\Users\Docking\Desktop\test protocol\1iep_ligandH.pdb
REMARK  8 active torsions:
REMARK  status: ('A' for Active; 'I' for Inactive)
REMARK    1  A    between atoms: _5  and  _11
REMARK    2  A    between atoms: _19  and  _21
REMARK    3  A    between atoms: _22  and  _66
REMARK    4  A    between atoms: _27  and  _30
REMARK    5  A    between atoms: _32  and  _33
REMARK    6  A    between atoms: _38  and  _43
REMARK    7  A    between atoms: _43  and  _46
REMARK    8  A    between atoms: _53  and  _55
REMARK                            x       y       z     vdW  Elec       q    Type
REMARK                         _______ _______ _______ _____ _____    ______ ____
ROOT
ATOM     10  C   UNL     1     -53.372  39.844  35.691  0.00  0.00    +0.038 A 
ATOM     11  C   UNL     1     -53.059  39.055  34.555  0.00  0.00    +0.047 A 
ATOM     12  C   UNL     1     -53.629  37.728  34.380  0.00  0.00    +0.035 A 
ATOM     32  C   UNL     1     -54.515  37.236  35.382  0.00  0.00    +0.024 A 
ATOM     33  C   UNL     1     -54.843  38.025  36.544  0.00  0.00    +0.007 A 
ATOM     34  C   UNL     1     -54.283  39.333  36.723  0.00  0.00    -0.029 A 
ATOM     35  C   UNL     1     -54.665  40.131  37.991  0.00  0.00    +0.045 C 
ENDROOT
BRANCH  10   9
ATOM      4  C   UNL     1     -49.800  42.767  37.008  0.00  0.00    +0.077 A 
ATOM      5  C   UNL     1     -49.024  41.679  37.532  0.00  0.00    +0.048 A 
ATOM      6  C   UNL     1     -49.584  40.385  37.450  0.00  0.00    +0.116 A 
ATOM      7  N   UNL     1     -50.827  40.202  36.884  0.00  0.00    -0.223 NA
ATOM      8  C   UNL     1     -51.549  41.273  36.389  0.00  0.00    +0.220 A 
ATOM      9  N   UNL     1     -52.797  41.112  35.807  0.00  0.00    -0.283 N 
ATOM     36  H   UNL     1     -53.301  41.928  35.461  0.00  0.00    +0.155 HD
ATOM     37  N   UNL     1     -51.037  42.519  36.456  0.00  0.00    -0.214 NA
BRANCH   4   3
ATOM      1  C   UNL     1     -49.696  46.657  36.610  0.00  0.00    +0.020 A 
ATOM      2  C   UNL     1     -50.185  45.298  36.580  0.00  0.00    +0.013 A 
ATOM      3  C   UNL     1     -49.343  44.192  37.018  0.00  0.00    +0.019 A 
ATOM     38  C   UNL     1     -47.999  44.499  37.487  0.00  0.00    +0.120 A 
ATOM     39  N   UNL     1     -47.555  45.817  37.504  0.00  0.00    -0.263 NA
ATOM     40  C   UNL     1     -48.356  46.889  37.083  0.00  0.00    +0.111 A 
ENDBRANCH   4   3
ENDBRANCH  10   9
BRANCH  12  13
ATOM     13  N   UNL     1     -53.341  36.878  33.252  0.00  0.00    -0.281 N 
ATOM     14  C   UNL     1     -52.229  36.078  33.050  0.00  0.00    +0.248 C 
ATOM     30  O   UNL     1     -51.205  36.136  33.715  0.00  0.00    -0.270 OA
ATOM     31  H   UNL     1     -54.044  36.864  32.512  0.00  0.00    +0.155 HD
BRANCH  14  15
ATOM     15  C   UNL     1     -52.250  35.078  31.938  0.00  0.00    +0.037 A 
ATOM     16  C   UNL     1     -51.324  35.179  30.807  0.00  0.00    +0.013 A 
ATOM     17  C   UNL     1     -51.378  34.212  29.740  0.00  0.00    +0.005 A 
ATOM     18  C   UNL     1     -52.361  33.133  29.801  0.00  0.00    -0.033 A 
ATOM     28  C   UNL     1     -53.264  33.053  30.937  0.00  0.00    +0.005 A 
ATOM     29  C   UNL     1     -53.215  34.000  31.984  0.00  0.00    +0.013 A 
BRANCH  18  19
ATOM     19  C   UNL     1     -52.503  32.068  28.696  0.00  0.00    +0.119 C 
BRANCH  19  20
ATOM     20  N   UNL     1     -53.039  30.734  29.098  0.00  0.00    -0.302 NA
ATOM     21  C   UNL     1     -52.414  30.233  30.404  0.00  0.00    +0.066 C 
ATOM     22  C   UNL     1     -53.003  28.846  30.821  0.00  0.00    -0.064 C 
ATOM     23  N   UNL     1     -52.777  27.839  29.692  0.00  0.00    +0.379 N 
ATOM     24  C   UNL     1     -53.277  26.520  30.105  0.00  0.00    -0.096 C 
ATOM     25  H   UNL     1     -51.677  27.750  29.534  0.00  0.00    -0.082 HD
ATOM     26  C   UNL     1     -53.393  28.330  28.390  0.00  0.00    -0.064 C 
ATOM     27  C   UNL     1     -52.823  29.722  27.999  0.00  0.00    +0.066 C 
ENDBRANCH  19  20
ENDBRANCH  18  19
ENDBRANCH  14  15
ENDBRANCH  12  13
TORSDOF 6
ENDMDL
MODEL 4
REMARK VINA RESULT:      -9.2      1.383      2.172
REMARK  Name = C:\Users\Docking\Desktop\test protocol\1iep_ligandH.pdb
REMARK  8 active torsions:
REMARK  status: ('A' for Active; 'I' for Inactive)
REMARK    1  A    between atoms: _5  and  _11
REMARK    2  A    between atoms: _19  and  _21
REMARK    3  A    between atoms: _22  and  _66
REMARK    4  A    between atoms: _27  and  _30
REMARK    5  A    between atoms: _32  and  _33
REMARK    6  A    between atoms: _38  and  _43
REMARK    7  A    between atoms: _43  and  _46
REMARK    8  A    between atoms: _53  and  _55
REMARK                            x       y       z     vdW  Elec       q    Type
REMARK                         _______ _______ _______ _____ _____    ______ ____
ROOT
ATOM     10  C   UNL     1     -52.134  49.872  24.108  0.00  0.00    +0.038 A 
ATOM     11  C   UNL     1     -51.968  51.280  24.067  0.00  0.00    +0.047 A 
ATOM     12  C   UNL     1     -50.908  51.935  24.818  0.00  0.00    +0.035 A 
ATOM     32  C   UNL     1     -50.033  51.124  25.599  0.00  0.00    +0.024 A 
ATOM     33  C   UNL     1     -50.189  49.692  25.653  0.00  0.00    +0.007 A 
ATOM     34  C   UNL     1     -51.234  49.041  24.916  0.00  0.00    -0.029 A 
ATOM     35  C   UNL     1     -51.357  47.503  25.016  0.00  0.00    +0.045 C 
ENDROOT
BRANCH  10   9
ATOM      4  C   UNL     1     -56.525  47.969  23.739  0.00  0.00    +0.077 A 
ATOM      5  C   UNL     1     -56.768  48.110  25.146  0.00  0.00    +0.048 A 
ATOM      6  C   UNL     1     -55.735  48.670  25.930  0.00  0.00    +0.116 A 
ATOM      7  N   UNL     1     -54.551  49.057  25.341  0.00  0.00    -0.223 NA
ATOM      8  C   UNL     1     -54.348  48.906  23.982  0.00  0.00    +0.220 A 
ATOM      9  N   UNL     1     -53.169  49.296  23.367  0.00  0.00    -0.283 N 
ATOM     36  H   UNL     1     -53.055  49.161  22.363  0.00  0.00    +0.155 HD
ATOM     37  N   UNL     1     -55.319  48.373  23.211  0.00  0.00    -0.214 NA
BRANCH   4   3
ATOM      1  C   UNL     1     -58.779  45.472  21.743  0.00  0.00    +0.020 A 
ATOM      2  C   UNL     1     -57.807  45.972  22.688  0.00  0.00    +0.013 A 
ATOM      3  C   UNL     1     -57.520  47.398  22.777  0.00  0.00    +0.019 A 
ATOM     38  C   UNL     1     -58.240  48.299  21.889  0.00  0.00    +0.120 A 
ATOM     39  N   UNL     1     -59.168  47.788  20.987  0.00  0.00    -0.263 NA
ATOM     40  C   UNL     1     -59.451  46.418  20.891  0.00  0.00    +0.111 A 
ENDBRANCH   4   3
ENDBRANCH  10   9
BRANCH  12  13
ATOM     13  N   UNL     1     -50.696  53.361  24.822  0.00  0.00    -0.281 N 
ATOM     14  C   UNL     1     -49.883  54.103  23.980  0.00  0.00    +0.248 C 
ATOM     30  O   UNL     1     -49.047  53.625  23.228  0.00  0.00    -0.270 OA
ATOM     31  H   UNL     1     -51.206  53.888  25.531  0.00  0.00    +0.155 HD
BRANCH  14  15
ATOM     15  C   UNL     1     -50.009  55.593  23.984  0.00  0.00    +0.037 A 
ATOM     16  C   UNL     1     -51.317  56.246  23.890  0.00  0.00    +0.013 A 
ATOM     17  C   UNL     1     -51.408  57.684  23.879  0.00  0.00    +0.005 A 
ATOM     18  C   UNL     1     -50.186  58.480  23.964  0.00  0.00    -0.033 A 
ATOM     28  C   UNL     1     -48.901  57.806  24.061  0.00  0.00    +0.005 A 
ATOM     29  C   UNL     1     -48.808  56.397  24.071  0.00  0.00    +0.013 A 
BRANCH  18  19
ATOM     19  C   UNL     1     -50.187  60.020  23.937  0.00  0.00    +0.119 C 
BRANCH  19  20
ATOM     20  N   UNL     1     -50.997  60.721  24.977  0.00  0.00    -0.302 NA
ATOM     21  C   UNL     1     -50.851  60.069  26.355  0.00  0.00    +0.066 C 
ATOM     22  C   UNL     1     -51.687  60.829  27.436  0.00  0.00    -0.064 C 
ATOM     23  N   UNL     1     -53.155  60.866  27.008  0.00  0.00    +0.379 N 
ATOM     24  C   UNL     1     -53.953  61.529  28.049  0.00  0.00    -0.096 C 
ATOM     25  H   UNL     1     -53.510  59.812  26.928  0.00  0.00    -0.082 HD
ATOM     26  C   UNL     1     -53.309  61.510  25.637  0.00  0.00    -0.064 C 
ATOM     27  C   UNL     1     -52.451  60.765  24.577  0.00  0.00    +0.066 C 
ENDBRANCH  19  20
ENDBRANCH  18  19
ENDBRANCH  14  15
ENDBRANCH  12  13
TORSDOF 6
ENDMDL
MODEL 5
REMARK VINA RESULT:      -9.1      3.197     11.693
REMARK  Name = C:\Users\Docking\Desktop\test protocol\1iep_ligandH.pdb
REMARK  8 active torsions:
REMARK  status: ('A' for Active; 'I' for Inactive)
REMARK    1  A    between atoms: _5  and  _11
REMARK    2  A    between atoms: _19  and  _21
REMARK    3  A    between atoms: _22  and  _66
REMARK    4  A    between atoms: _27  and  _30
REMARK    5  A    between atoms: _32  and  _33
REMARK    6  A    between atoms: _38  and  _43
REMARK    7  A    between atoms: _43  and  _46
REMARK    8  A    between atoms: _53  and  _55
REMARK                            x       y       z     vdW  Elec       q    Type
REMARK                         _______ _______ _______ _____ _____    ______ ____
ROOT
ATOM     10  C   UNL     1     -52.148  50.856  24.691  0.00  0.00    +0.038 A 
ATOM     11  C   UNL     1     -53.295  50.532  23.922  0.00  0.00    +0.047 A 
ATOM     12  C   UNL     1     -53.599  49.154  23.569  0.00  0.00    +0.035 A 
ATOM     32  C   UNL     1     -52.715  48.130  24.019  0.00  0.00    +0.024 A 
ATOM     33  C   UNL     1     -51.544  48.442  24.801  0.00  0.00    +0.007 A 
ATOM     34  C   UNL     1     -51.238  49.800  25.150  0.00  0.00    -0.029 A 
ATOM     35  C   UNL     1     -49.966  50.077  25.985  0.00  0.00    +0.045 C 
ENDROOT
BRANCH  10   9
ATOM      4  C   UNL     1     -50.036  55.081  23.840  0.00  0.00    +0.077 A 
ATOM      5  C   UNL     1     -49.338  54.568  22.696  0.00  0.00    +0.048 A 
ATOM      6  C   UNL     1     -49.544  53.210  22.365  0.00  0.00    +0.116 A 
ATOM      7  N   UNL     1     -50.389  52.433  23.127  0.00  0.00    -0.223 NA
ATOM      8  C   UNL     1     -51.045  52.958  24.225  0.00  0.00    +0.220 A 
ATOM      9  N   UNL     1     -51.904  52.196  25.001  0.00  0.00    -0.283 N 
ATOM     36  H   UNL     1     -52.364  52.618  25.808  0.00  0.00    +0.155 HD
ATOM     37  N   UNL     1     -50.863  54.251  24.563  0.00  0.00    -0.214 NA
BRANCH   4   3
ATOM      1  C   UNL     1     -48.729  58.362  25.521  0.00  0.00    +0.020 A 
ATOM      2  C   UNL     1     -48.788  56.985  25.087  0.00  0.00    +0.013 A 
ATOM      3  C   UNL     1     -49.924  56.496  24.315  0.00  0.00    +0.019 A 
ATOM     38  C   UNL     1     -50.990  57.434  23.995  0.00  0.00    +0.120 A 
ATOM     39  N   UNL     1     -50.905  58.754  24.427  0.00  0.00    -0.263 NA
ATOM     40  C   UNL     1     -49.819  59.235  25.173  0.00  0.00    +0.111 A 
ENDBRANCH   4   3
ENDBRANCH  10   9
BRANCH  12  13
ATOM     13  N   UNL     1     -54.744  48.765  22.783  0.00  0.00    -0.281 N 
ATOM     14  C   UNL     1     -56.020  48.462  23.230  0.00  0.00    +0.248 C 
ATOM     30  O   UNL     1     -56.315  48.272  24.400  0.00  0.00    -0.270 OA
ATOM     31  H   UNL     1     -54.595  48.705  21.776  0.00  0.00    +0.155 HD
BRANCH  14  15
ATOM     15  C   UNL     1     -57.124  48.338  22.230  0.00  0.00    +0.037 A 
ATOM     16  C   UNL     1     -57.045  49.000  20.926  0.00  0.00    +0.013 A 
ATOM     17  C   UNL     1     -58.132  48.879  19.986  0.00  0.00    +0.005 A 
ATOM     18  C   UNL     1     -59.307  48.090  20.349  0.00  0.00    -0.033 A 
ATOM     28  C   UNL     1     -59.356  47.439  21.648  0.00  0.00    +0.005 A 
ATOM     29  C   UNL     1     -58.294  47.557  22.571  0.00  0.00    +0.013 A 
BRANCH  18  19
ATOM     19  C   UNL     1     -60.523  47.923  19.418  0.00  0.00    +0.119 C 
BRANCH  19  20
ATOM     20  N   UNL     1     -61.643  48.897  19.575  0.00  0.00    -0.302 NA
ATOM     21  C   UNL     1     -63.006  48.255  19.299  0.00  0.00    +0.066 C 
ATOM     22  C   UNL     1     -64.169  49.283  19.491  0.00  0.00    -0.064 C 
ATOM     23  N   UNL     1     -63.940  50.484  18.572  0.00  0.00    +0.379 N 
ATOM     24  C   UNL     1     -65.062  51.425  18.707  0.00  0.00    -0.096 C 
ATOM     25  H   UNL     1     -63.936  50.110  17.522  0.00  0.00    -0.082 HD
ATOM     26  C   UNL     1     -62.586  51.127  18.838  0.00  0.00    -0.064 C 
ATOM     27  C   UNL     1     -61.440  50.090  18.673  0.00  0.00    +0.066 C 
ENDBRANCH  19  20
ENDBRANCH  18  19
ENDBRANCH  14  15
ENDBRANCH  12  13
TORSDOF 6
ENDMDL
