MODEL 1
REMARK VINA RESULT:      -9.4      0.000      0.000
REMARK  Name = C:\Users\Docking\Desktop\test protocol\1iep_ligandH.pdb
REMARK  8 active torsions:
REMARK  status: ('A' for Active; 'I' for Inactive)
REMARK    1  A    between atoms: _5  and  _11
REMARK    2  A    between atoms: _19  and  _21
REMARK    3  A    between atoms: _22  and  _66
REMARK    4  A    between atoms: _27  and  _30
REMARK    5  A    between atoms: _32  and  _33
REMARK    6  A    between atoms: _38  and  _43
REMARK    7  A    between atoms: _43  and  _46
REMARK    8  A    between atoms: _53  and  _55
REMARK                            x       y       z     vdW  Elec       q    Type
REMARK                         _______ _______ _______ _____ _____    ______ ____
ROOT
ATOM     10  C   UNL     1      18.608  17.893  12.330  0.00  0.00    +0.038 A 
ATOM     11  C   UNL     1      18.798  19.172  12.913  0.00  0.00    +0.047 A 
ATOM     12  C   UNL     1      19.156  20.324  12.099  0.00  0.00    +0.035 A 
ATOM     32  C   UNL     1      19.309  20.137  10.694  0.00  0.00    +0.024 A 
ATOM     33  C   UNL     1      19.120  18.844  10.086  0.00  0.00    +0.007 A 
ATOM     34  C   UNL     1      18.770  17.704  10.883  0.00  0.00    -0.029 A 
ATOM     35  C   UNL     1      18.586  16.340  10.178  0.00  0.00    +0.045 C 
ENDROOT
BRANCH  10   9
ATOM      4  C   UNL     1      15.418  15.350  14.859  0.00  0.00    +0.077 A 
ATOM      5  C   UNL     1      14.349  16.245  14.523  0.00  0.00    +0.048 A 
ATOM      6  C   UNL     1      14.663  17.352  13.703  0.00  0.00    +0.116 A 
ATOM      7  N   UNL     1      15.954  17.539  13.257  0.00  0.00    -0.223 NA
ATOM      8  C   UNL     1      16.962  16.658  13.601  0.00  0.00    +0.220 A 
ATOM      9  N   UNL     1      18.265  16.822  13.159  0.00  0.00    -0.283 N 
ATOM     36  H   UNL     1      18.982  16.154  13.441  0.00  0.00    +0.155 HD
ATOM     37  N   UNL     1      16.688  15.594  14.385  0.00  0.00    -0.214 NA
BRANCH   4   3
ATOM      1  C   UNL     1      15.012  12.984  17.948  0.00  0.00    +0.020 A 
ATOM      2  C   UNL     1      15.182  14.189  17.169  0.00  0.00    +0.013 A 
ATOM      3  C   UNL     1      15.244  14.133  15.713  0.00  0.00    +0.019 A 
ATOM     38  C   UNL     1      15.128  12.832  15.072  0.00  0.00    +0.120 A 
ATOM     39  N   UNL     1      14.966  11.688  15.849  0.00  0.00    -0.263 NA
ATOM     40  C   UNL     1      14.908  11.730  17.250  0.00  0.00    +0.111 A 
ENDBRANCH   4   3
ENDBRANCH  10   9
BRANCH  12  13
ATOM     13  N   UNL     1      19.370  21.645  12.635  0.00  0.00    -0.281 N 
ATOM     14  C   UNL     1      18.447  22.473  13.253  0.00  0.00    +0.248 C 
ATOM     30  O   UNL     1      17.239  22.288  13.248  0.00  0.00    -0.270 OA
ATOM     31  H   UNL     1      20.317  22.015  12.549  0.00  0.00    +0.155 HD
BRANCH  14  15
ATOM     15  C   UNL     1      18.936  23.691  13.969  0.00  0.00    +0.037 A 
ATOM     16  C   UNL     1      19.339  24.893  13.235  0.00  0.00    +0.013 A 
ATOM     17  C   UNL     1      19.823  26.048  13.949  0.00  0.00    +0.005 A 
ATOM     18  C   UNL     1      19.904  26.007  15.407  0.00  0.00    -0.033 A 
ATOM     28  C   UNL     1      19.492  24.803  16.111  0.00  0.00    +0.005 A 
ATOM     29  C   UNL     1      19.019  23.669  15.414  0.00  0.00    +0.013 A 
BRANCH  18  19
ATOM     19  C   UNL     1      20.427  27.185  16.250  0.00  0.00    +0.119 C 
BRANCH  19  20
ATOM     20  N   UNL     1      21.881  27.188  16.593  0.00  0.00    -0.302 NA
ATOM     21  C   UNL     1      22.756  26.832  15.387  0.00  0.00    +0.066 C 
ATOM     22  C   UNL     1      24.275  26.862  15.758  0.00  0.00    -0.064 C 
ATOM     23  N   UNL     1      24.532  25.898  16.918  0.00  0.00    +0.379 N 
ATOM     24  C   UNL     1      25.969  25.881  17.231  0.00  0.00    -0.096 C 
ATOM     25  H   UNL     1      24.248  24.876  16.577  0.00  0.00    -0.082 HD
ATOM     26  C   UNL     1      23.664  26.243  18.120  0.00  0.00    -0.064 C 
ATOM     27  C   UNL     1      22.159  26.240  17.733  0.00  0.00    +0.066 C 
ENDBRANCH  19  20
ENDBRANCH  18  19
ENDBRANCH  14  15
ENDBRANCH  12  13
TORSDOF 6
ENDMDL
MODEL 2
REMARK VINA RESULT:      -9.3      5.926      8.377
REMARK  Name = C:\Users\Docking\Desktop\test protocol\1iep_ligandH.pdb
REMARK  8 active torsions:
REMARK  status: ('A' for Active; 'I' for Inactive)
REMARK    1  A    between atoms: _5  and  _11
REMARK    2  A    between atoms: _19  and  _21
REMARK    3  A    between atoms: _22  and  _66
REMARK    4  A    between atoms: _27  and  _30
REMARK    5  A    between atoms: _32  and  _33
REMARK    6  A    between atoms: _38  and  _43
REMARK    7  A    between atoms: _43  and  _46
REMARK    8  A    between atoms: _53  and  _55
REMARK                            x       y       z     vdW  Elec       q    Type
REMARK                         _______ _______ _______ _____ _____    ______ ____
ROOT
ATOM     10  C   UNL     1      19.839  20.469  13.500  0.00  0.00    +0.038 A 
ATOM     11  C   UNL     1      18.623  20.772  14.164  0.00  0.00    +0.047 A 
ATOM     12  C   UNL     1      18.129  22.137  14.245  0.00  0.00    +0.035 A 
ATOM     32  C   UNL     1      18.898  23.171  13.635  0.00  0.00    +0.024 A 
ATOM     33  C   UNL     1      20.137  22.882  12.957  0.00  0.00    +0.007 A 
ATOM     34  C   UNL     1      20.630  21.537  12.876  0.00  0.00    -0.029 A 
ATOM     35  C   UNL     1      21.968  21.286  12.141  0.00  0.00    +0.045 C 
ENDROOT
BRANCH  10   9
ATOM      4  C   UNL     1      20.256  16.235  11.279  0.00  0.00    +0.077 A 
ATOM      5  C   UNL     1      19.540  16.701  10.127  0.00  0.00    +0.048 A 
ATOM      6  C   UNL     1      19.074  18.035  10.149  0.00  0.00    +0.116 A 
ATOM      7  N   UNL     1      19.314  18.834  11.246  0.00  0.00    -0.223 NA
ATOM      8  C   UNL     1      20.007  18.352  12.341  0.00  0.00    +0.220 A 
ATOM      9  N   UNL     1      20.266  19.140  13.452  0.00  0.00    -0.283 N 
ATOM     36  H   UNL     1      20.774  18.746  14.243  0.00  0.00    +0.155 HD
ATOM     37  N   UNL     1      20.460  17.081  12.346  0.00  0.00    -0.214 NA
BRANCH   4   3
ATOM      1  C   UNL     1      20.806  12.515  12.357  0.00  0.00    +0.020 A 
ATOM      2  C   UNL     1      20.228  13.836  12.272  0.00  0.00    +0.013 A 
ATOM      3  C   UNL     1      20.814  14.851  11.405  0.00  0.00    +0.019 A 
ATOM     38  C   UNL     1      21.993  14.493  10.630  0.00  0.00    +0.120 A 
ATOM     39  N   UNL     1      22.528  13.212  10.734  0.00  0.00    -0.263 NA
ATOM     40  C   UNL     1      21.973  12.228  11.566  0.00  0.00    +0.111 A 
ENDBRANCH   4   3
ENDBRANCH  10   9
BRANCH  12  13
ATOM     13  N   UNL     1      16.905  22.506  14.913  0.00  0.00    -0.281 N 
ATOM     14  C   UNL     1      15.607  22.197  14.543  0.00  0.00    +0.248 C 
ATOM     30  O   UNL     1      15.289  21.735  13.458  0.00  0.00    -0.270 OA
ATOM     31  H   UNL     1      17.009  23.061  15.762  0.00  0.00    +0.155 HD
BRANCH  14  15
ATOM     15  C   UNL     1      14.499  22.452  15.514  0.00  0.00    +0.037 A 
ATOM     16  C   UNL     1      14.761  23.052  16.825  0.00  0.00    +0.013 A 
ATOM     17  C   UNL     1      13.677  23.271  17.749  0.00  0.00    +0.005 A 
ATOM     18  C   UNL     1      12.320  22.891  17.365  0.00  0.00    -0.033 A 
ATOM     28  C   UNL     1      12.088  22.303  16.056  0.00  0.00    +0.005 A 
ATOM     29  C   UNL     1      13.148  22.085  15.148  0.00  0.00    +0.013 A 
BRANCH  18  19
ATOM     19  C   UNL     1      11.106  23.069  18.296  0.00  0.00    +0.119 C 
BRANCH  19  20
ATOM     20  N   UNL     1      10.677  24.467  18.601  0.00  0.00    -0.302 NA
ATOM     21  C   UNL     1      11.021  24.873  20.037  0.00  0.00    +0.066 C 
ATOM     22  C   UNL     1      10.586  26.345  20.332  0.00  0.00    -0.064 C 
ATOM     23  N   UNL     1       9.086  26.492  20.071  0.00  0.00    +0.379 N 
ATOM     24  C   UNL     1       8.662  27.861  20.403  0.00  0.00    -0.096 C 
ATOM     25  H   UNL     1       8.553  25.797  20.761  0.00  0.00    -0.082 HD
ATOM     26  C   UNL     1       8.735  26.088  18.647  0.00  0.00    -0.064 C 
ATOM     27  C   UNL     1       9.198  24.634  18.355  0.00  0.00    +0.066 C 
ENDBRANCH  19  20
ENDBRANCH  18  19
ENDBRANCH  14  15
ENDBRANCH  12  13
TORSDOF 6
ENDMDL
MODEL 3
REMARK VINA RESULT:      -9.3      3.205      6.223
REMARK  Name = C:\Users\Docking\Desktop\test protocol\1iep_ligandH.pdb
REMARK  8 active torsions:
REMARK  status: ('A' for Active; 'I' for Inactive)
REMARK    1  A    between atoms: _5  and  _11
REMARK    2  A    between atoms: _19  and  _21
REMARK    3  A    between atoms: _22  and  _66
REMARK    4  A    between atoms: _27  and  _30
REMARK    5  A    between atoms: _32  and  _33
REMARK    6  A    between atoms: _38  and  _43
REMARK    7  A    between atoms: _43  and  _46
REMARK    8  A    between atoms: _53  and  _55
REMARK                            x       y       z     vdW  Elec       q    Type
REMARK                         _______ _______ _______ _____ _____    ______ ____
ROOT
ATOM     10  C   UNL     1      18.523  17.926  11.291  0.00  0.00    +0.038 A 
ATOM     11  C   UNL     1      18.950  19.236  11.627  0.00  0.00    +0.047 A 
ATOM     12  C   UNL     1      18.485  19.892  12.839  0.00  0.00    +0.035 A 
ATOM     32  C   UNL     1      17.586  19.183  13.688  0.00  0.00    +0.024 A 
ATOM     33  C   UNL     1      17.140  17.852  13.362  0.00  0.00    +0.007 A 
ATOM     34  C   UNL     1      17.594  17.200  12.166  0.00  0.00    -0.029 A 
ATOM     35  C   UNL     1      17.078  15.775  11.863  0.00  0.00    +0.045 C 
ENDROOT
BRANCH  10   9
ATOM      4  C   UNL     1      21.969  15.788   8.725  0.00  0.00    +0.077 A 
ATOM      5  C   UNL     1      22.905  15.861   9.810  0.00  0.00    +0.048 A 
ATOM      6  C   UNL     1      22.462  16.463  11.009  0.00  0.00    +0.116 A 
ATOM      7  N   UNL     1      21.177  16.951  11.105  0.00  0.00    -0.223 NA
ATOM      8  C   UNL     1      20.300  16.866  10.039  0.00  0.00    +0.220 A 
ATOM      9  N   UNL     1      19.001  17.344  10.115  0.00  0.00    -0.283 N 
ATOM     36  H   UNL     1      18.388  17.269   9.304  0.00  0.00    +0.155 HD
ATOM     37  N   UNL     1      20.700  16.298   8.882  0.00  0.00    -0.214 NA
BRANCH   4   3
ATOM      1  C   UNL     1      22.095  15.068   4.882  0.00  0.00    +0.020 A 
ATOM      2  C   UNL     1      21.756  15.694   6.140  0.00  0.00    +0.013 A 
ATOM      3  C   UNL     1      22.287  15.178   7.395  0.00  0.00    +0.019 A 
ATOM     38  C   UNL     1      23.166  14.020   7.343  0.00  0.00    +0.120 A 
ATOM     39  N   UNL     1      23.474  13.437   6.117  0.00  0.00    -0.263 NA
ATOM     40  C   UNL     1      22.967  13.924   4.903  0.00  0.00    +0.111 A 
ENDBRANCH   4   3
ENDBRANCH  10   9
BRANCH  12  13
ATOM     13  N   UNL     1      18.879  21.224  13.228  0.00  0.00    -0.281 N 
ATOM     14  C   UNL     1      18.131  22.388  13.157  0.00  0.00    +0.248 C 
ATOM     30  O   UNL     1      17.078  22.496  12.546  0.00  0.00    -0.270 OA
ATOM     31  H   UNL     1      19.823  21.320  13.600  0.00  0.00    +0.155 HD
BRANCH  14  15
ATOM     15  C   UNL     1      18.632  23.611  13.853  0.00  0.00    +0.037 A 
ATOM     16  C   UNL     1      19.241  24.715  13.107  0.00  0.00    +0.013 A 
ATOM     17  C   UNL     1      19.732  25.877  13.805  0.00  0.00    +0.005 A 
ATOM     18  C   UNL     1      19.613  25.941  15.259  0.00  0.00    -0.033 A 
ATOM     28  C   UNL     1      19.000  24.834  15.975  0.00  0.00    +0.005 A 
ATOM     29  C   UNL     1      18.519  23.694  15.294  0.00  0.00    +0.013 A 
BRANCH  18  19
ATOM     19  C   UNL     1      20.129  27.132  16.089  0.00  0.00    +0.119 C 
BRANCH  19  20
ATOM     20  N   UNL     1      21.571  27.123  16.476  0.00  0.00    -0.302 NA
ATOM     21  C   UNL     1      22.483  26.800  15.289  0.00  0.00    +0.066 C 
ATOM     22  C   UNL     1      23.989  26.817  15.707  0.00  0.00    -0.064 C 
ATOM     23  N   UNL     1      24.210  25.820  16.846  0.00  0.00    +0.379 N 
ATOM     24  C   UNL     1      25.636  25.791  17.203  0.00  0.00    -0.096 C 
ATOM     25  H   UNL     1      23.935  24.808  16.468  0.00  0.00    -0.082 HD
ATOM     26  C   UNL     1      23.305  26.132  18.030  0.00  0.00    -0.064 C 
ATOM     27  C   UNL     1      21.813  26.142  17.597  0.00  0.00    +0.066 C 
ENDBRANCH  19  20
ENDBRANCH  18  19
ENDBRANCH  14  15
ENDBRANCH  12  13
TORSDOF 6
ENDMDL
MODEL 4
REMARK VINA RESULT:      -9.2      2.629      5.428
REMARK  Name = C:\Users\Docking\Desktop\test protocol\1iep_ligandH.pdb
REMARK  8 active torsions:
REMARK  status: ('A' for Active; 'I' for Inactive)
REMARK    1  A    between atoms: _5  and  _11
REMARK    2  A    between atoms: _19  and  _21
REMARK    3  A    between atoms: _22  and  _66
REMARK    4  A    between atoms: _27  and  _30
REMARK    5  A    between atoms: _32  and  _33
REMARK    6  A    between atoms: _38  and  _43
REMARK    7  A    between atoms: _43  and  _46
REMARK    8  A    between atoms: _53  and  _55
REMARK                            x       y       z     vdW  Elec       q    Type
REMARK                         _______ _______ _______ _____ _____    ______ ____
ROOT
ATOM     10  C   UNL     1      17.731  18.706  13.119  0.00  0.00    +0.038 A 
ATOM     11  C   UNL     1      18.361  19.967  13.281  0.00  0.00    +0.047 A 
ATOM     12  C   UNL     1      18.242  20.713  14.524  0.00  0.00    +0.035 A 
ATOM     32  C   UNL     1      17.475  20.144  15.583  0.00  0.00    +0.024 A 
ATOM     33  C   UNL     1      16.827  18.865  15.435  0.00  0.00    +0.007 A 
ATOM     34  C   UNL     1      16.939  18.125  14.210  0.00  0.00    -0.029 A 
ATOM     35  C   UNL     1      16.218  16.762  14.105  0.00  0.00    +0.045 C 
ENDROOT
BRANCH  10   9
ATOM      4  C   UNL     1      20.365  16.308   9.902  0.00  0.00    +0.077 A 
ATOM      5  C   UNL     1      21.553  16.430  10.696  0.00  0.00    +0.048 A 
ATOM      6  C   UNL     1      21.446  17.123  11.922  0.00  0.00    +0.116 A 
ATOM      7  N   UNL     1      20.235  17.651  12.316  0.00  0.00    -0.223 NA
ATOM      8  C   UNL     1      19.108  17.517  11.525  0.00  0.00    +0.220 A 
ATOM      9  N   UNL     1      17.879  18.033  11.904  0.00  0.00    -0.283 N 
ATOM     36  H   UNL     1      17.073  17.920  11.290  0.00  0.00    +0.155 HD
ATOM     37  N   UNL     1      19.185  16.861  10.349  0.00  0.00    -0.214 NA
BRANCH   4   3
ATOM      1  C   UNL     1      19.568  13.717   7.082  0.00  0.00    +0.020 A 
ATOM      2  C   UNL     1      19.582  14.359   8.376  0.00  0.00    +0.013 A 
ATOM      3  C   UNL     1      20.317  15.601   8.583  0.00  0.00    +0.019 A 
ATOM     38  C   UNL     1      21.031  16.171   7.451  0.00  0.00    +0.120 A 
ATOM     39  N   UNL     1      21.001  15.530   6.217  0.00  0.00    -0.263 NA
ATOM     40  C   UNL     1      20.299  14.333   6.006  0.00  0.00    +0.111 A 
ENDBRANCH   4   3
ENDBRANCH  10   9
BRANCH  12  13
ATOM     13  N   UNL     1      18.853  22.001  14.744  0.00  0.00    -0.281 N 
ATOM     14  C   UNL     1      18.225  23.206  15.015  0.00  0.00    +0.248 C 
ATOM     30  O   UNL     1      17.025  23.401  14.898  0.00  0.00    -0.270 OA
ATOM     31  H   UNL     1      19.871  22.027  14.694  0.00  0.00    +0.155 HD
BRANCH  14  15
ATOM     15  C   UNL     1      19.053  24.365  15.468  0.00  0.00    +0.037 A 
ATOM     16  C   UNL     1      19.511  25.386  14.523  0.00  0.00    +0.013 A 
ATOM     17  C   UNL     1      20.323  26.485  14.984  0.00  0.00    +0.005 A 
ATOM     18  C   UNL     1      20.680  26.568  16.398  0.00  0.00    -0.033 A 
ATOM     28  C   UNL     1      20.207  25.544  17.315  0.00  0.00    +0.005 A 
ATOM     29  C   UNL     1      19.412  24.465  16.867  0.00  0.00    +0.013 A 
BRANCH  18  19
ATOM     19  C   UNL     1      21.559  27.694  16.974  0.00  0.00    +0.119 C 
BRANCH  19  20
ATOM     20  N   UNL     1      23.032  27.453  17.025  0.00  0.00    -0.302 NA
ATOM     21  C   UNL     1      23.604  27.092  15.651  0.00  0.00    +0.066 C 
ATOM     22  C   UNL     1      25.149  26.865  15.719  0.00  0.00    -0.064 C 
ATOM     23  N   UNL     1      25.456  25.766  16.739  0.00  0.00    +0.379 N 
ATOM     24  C   UNL     1      26.903  25.510  16.763  0.00  0.00    -0.096 C 
ATOM     25  H   UNL     1      24.953  24.834  16.393  0.00  0.00    -0.082 HD
ATOM     26  C   UNL     1      24.889  26.116  18.108  0.00  0.00    -0.064 C 
ATOM     27  C   UNL     1      23.357  26.368  18.023  0.00  0.00    +0.066 C 
ENDBRANCH  19  20
ENDBRANCH  18  19
ENDBRANCH  14  15
ENDBRANCH  12  13
TORSDOF 6
ENDMDL
MODEL 5
REMARK VINA RESULT:      -9.2      3.462      6.679
REMARK  Name = C:\Users\Docking\Desktop\test protocol\1iep_ligandH.pdb
REMARK  8 active torsions:
REMARK  status: ('A' for Active; 'I' for Inactive)
REMARK    1  A    between atoms: _5  and  _11
REMARK    2  A    between atoms: _19  and  _21
REMARK    3  A    between atoms: _22  and  _66
REMARK    4  A    between atoms: _27  and  _30
REMARK    5  A    between atoms: _32  and  _33
REMARK    6  A    between atoms: _38  and  _43
REMARK    7  A    between atoms: _43  and  _46
REMARK    8  A    between atoms: _53  and  _55
REMARK                            x       y       z     vdW  Elec       q    Type
REMARK                         _______ _______ _______ _____ _____    ______ ____
ROOT
ATOM     10  C   UNL     1      18.096  23.032  15.417  0.00  0.00    +0.038 A 
ATOM     11  C   UNL     1      19.363  23.664  15.503  0.00  0.00    +0.047 A 
ATOM     12  C   UNL     1      19.488  25.036  15.969  0.00  0.00    +0.035 A 
ATOM     32  C   UNL     1      18.303  25.734  16.342  0.00  0.00    +0.024 A 
ATOM     33  C   UNL     1      17.007  25.107  16.259  0.00  0.00    +0.007 A 
ATOM     34  C   UNL     1      16.877  23.755  15.798  0.00  0.00    -0.029 A 
ATOM     35  C   UNL     1      15.462  23.135  15.723  0.00  0.00    +0.045 C 
ENDROOT
BRANCH  10   9
ATOM      4  C   UNL     1      18.706  19.690  12.026  0.00  0.00    +0.077 A 
ATOM      5  C   UNL     1      19.161  20.658  11.070  0.00  0.00    +0.048 A 
ATOM      6  C   UNL     1      19.218  22.006  11.489  0.00  0.00    +0.116 A 
ATOM      7  N   UNL     1      18.844  22.349  12.770  0.00  0.00    -0.223 NA
ATOM      8  C   UNL     1      18.407  21.391  13.666  0.00  0.00    +0.220 A 
ATOM      9  N   UNL     1      18.034  21.712  14.962  0.00  0.00    -0.283 N 
ATOM     36  H   UNL     1      17.710  20.978  15.591  0.00  0.00    +0.155 HD
ATOM     37  N   UNL     1      18.343  20.097  13.290  0.00  0.00    -0.214 NA
BRANCH   4   3
ATOM      1  C   UNL     1      17.637  15.929  12.154  0.00  0.00    +0.020 A 
ATOM      2  C   UNL     1      17.708  17.336  12.475  0.00  0.00    +0.013 A 
ATOM      3  C   UNL     1      18.594  18.225  11.735  0.00  0.00    +0.019 A 
ATOM     38  C   UNL     1      19.401  17.656  10.666  0.00  0.00    +0.120 A 
ATOM     39  N   UNL     1      19.313  16.297  10.380  0.00  0.00    -0.263 NA
ATOM     40  C   UNL     1      18.465  15.431  11.087  0.00  0.00    +0.111 A 
ENDBRANCH   4   3
ENDBRANCH  10   9
BRANCH  12  13
ATOM     13  N   UNL     1      20.747  25.733  16.071  0.00  0.00    -0.281 N 
ATOM     14  C   UNL     1      21.393  26.160  17.219  0.00  0.00    +0.248 C 
ATOM     30  O   UNL     1      20.881  26.197  18.328  0.00  0.00    -0.270 OA
ATOM     31  H   UNL     1      21.218  25.936  15.189  0.00  0.00    +0.155 HD
BRANCH  14  15
ATOM     15  C   UNL     1      22.809  26.629  17.118  0.00  0.00    +0.037 A 
ATOM     16  C   UNL     1      23.441  26.863  15.817  0.00  0.00    +0.013 A 
ATOM     17  C   UNL     1      24.814  27.298  15.748  0.00  0.00    +0.005 A 
ATOM     18  C   UNL     1      25.564  27.503  16.986  0.00  0.00    -0.033 A 
ATOM     28  C   UNL     1      24.910  27.268  18.262  0.00  0.00    +0.005 A 
ATOM     29  C   UNL     1      23.565  26.840  18.334  0.00  0.00    +0.013 A 
BRANCH  18  19
ATOM     19  C   UNL     1      27.039  27.946  17.006  0.00  0.00    +0.119 C 
BRANCH  19  20
ATOM     20  N   UNL     1      27.892  27.534  15.852  0.00  0.00    -0.302 NA
ATOM     21  C   UNL     1      28.936  26.488  16.254  0.00  0.00    +0.066 C 
ATOM     22  C   UNL     1      29.806  26.052  15.030  0.00  0.00    -0.064 C 
ATOM     23  N   UNL     1      30.479  27.284  14.422  0.00  0.00    +0.379 N 
ATOM     24  C   UNL     1      31.343  26.870  13.307  0.00  0.00    -0.096 C 
ATOM     25  H   UNL     1      31.131  27.734  15.206  0.00  0.00    -0.082 HD
ATOM     26  C   UNL     1      29.448  28.330  14.022  0.00  0.00    -0.064 C 
ATOM     27  C   UNL     1      28.570  28.734  15.239  0.00  0.00    +0.066 C 
ENDBRANCH  19  20
ENDBRANCH  18  19
ENDBRANCH  14  15
ENDBRANCH  12  13
TORSDOF 6
ENDMDL
