MODEL 1
REMARK VINA RESULT:      -8.6      0.000      0.000
REMARK  Name = C:\Users\Docking\Desktop\test protocol\1iep_ligandH.pdb
REMARK  8 active torsions:
REMARK  status: ('A' for Active; 'I' for Inactive)
REMARK    1  A    between atoms: _5  and  _11
REMARK    2  A    between atoms: _19  and  _21
REMARK    3  A    between atoms: _22  and  _66
REMARK    4  A    between atoms: _27  and  _30
REMARK    5  A    between atoms: _32  and  _33
REMARK    6  A    between atoms: _38  and  _43
REMARK    7  A    between atoms: _43  and  _46
REMARK    8  A    between atoms: _53  and  _55
REMARK                            x       y       z     vdW  Elec       q    Type
REMARK                         _______ _______ _______ _____ _____    ______ ____
ROOT
ATOM     10  C   UNL     1      72.485  44.600  75.237  0.00  0.00    +0.038 A 
ATOM     11  C   UNL     1      71.504  43.876  74.513  0.00  0.00    +0.047 A 
ATOM     12  C   UNL     1      70.649  44.536  73.538  0.00  0.00    +0.035 A 
ATOM     32  C   UNL     1      70.822  45.935  73.325  0.00  0.00    +0.024 A 
ATOM     33  C   UNL     1      71.814  46.686  74.053  0.00  0.00    +0.007 A 
ATOM     34  C   UNL     1      72.658  46.041  75.018  0.00  0.00    -0.029 A 
ATOM     35  C   UNL     1      73.700  46.897  75.774  0.00  0.00    +0.045 C 
ENDROOT
BRANCH  10   9
ATOM      4  C   UNL     1      73.220  42.647  79.560  0.00  0.00    +0.077 A 
ATOM      5  C   UNL     1      71.924  43.047  80.026  0.00  0.00    +0.048 A 
ATOM      6  C   UNL     1      71.101  43.760  79.125  0.00  0.00    +0.116 A 
ATOM      7  N   UNL     1      71.552  44.045  77.855  0.00  0.00    -0.223 NA
ATOM      8  C   UNL     1      72.808  43.646  77.437  0.00  0.00    +0.220 A 
ATOM      9  N   UNL     1      73.278  43.916  76.161  0.00  0.00    -0.283 N 
ATOM     36  H   UNL     1      74.214  43.611  75.894  0.00  0.00    +0.155 HD
ATOM     37  N   UNL     1      73.613  42.966  78.279  0.00  0.00    -0.214 NA
BRANCH   4   3
ATOM      1  C   UNL     1      75.091  39.757  81.417  0.00  0.00    +0.020 A 
ATOM      2  C   UNL     1      74.116  40.445  80.603  0.00  0.00    +0.013 A 
ATOM      3  C   UNL     1      74.203  41.885  80.393  0.00  0.00    +0.019 A 
ATOM     38  C   UNL     1      75.299  42.604  81.024  0.00  0.00    +0.120 A 
ATOM     39  N   UNL     1      76.223  41.915  81.804  0.00  0.00    -0.263 NA
ATOM     40  C   UNL     1      76.148  40.530  82.014  0.00  0.00    +0.111 A 
ENDBRANCH   4   3
ENDBRANCH  10   9
BRANCH  12  13
ATOM     13  N   UNL     1      69.630  43.855  72.779  0.00  0.00    -0.281 N 
ATOM     14  C   UNL     1      68.413  43.371  73.229  0.00  0.00    +0.248 C 
ATOM     30  O   UNL     1      68.105  43.261  74.406  0.00  0.00    -0.270 OA
ATOM     31  H   UNL     1      69.831  43.712  71.789  0.00  0.00    +0.155 HD
BRANCH  14  15
ATOM     15  C   UNL     1      67.395  42.932  72.226  0.00  0.00    +0.037 A 
ATOM     16  C   UNL     1      67.662  43.009  70.788  0.00  0.00    +0.013 A 
ATOM     17  C   UNL     1      66.657  42.596  69.842  0.00  0.00    +0.005 A 
ATOM     18  C   UNL     1      65.373  42.099  70.332  0.00  0.00    -0.033 A 
ATOM     28  C   UNL     1      65.136  42.028  71.764  0.00  0.00    +0.005 A 
ATOM     29  C   UNL     1      66.119  42.433  72.695  0.00  0.00    +0.013 A 
BRANCH  18  19
ATOM     19  C   UNL     1      64.234  41.656  69.395  0.00  0.00    +0.119 C 
BRANCH  19  20
ATOM     20  N   UNL     1      64.577  40.680  68.317  0.00  0.00    -0.302 NA
ATOM     21  C   UNL     1      63.808  40.960  67.023  0.00  0.00    +0.066 C 
ATOM     22  C   UNL     1      64.195  39.944  65.899  0.00  0.00    -0.064 C 
ATOM     23  N   UNL     1      63.928  38.520  66.390  0.00  0.00    +0.379 N 
ATOM     24  C   UNL     1      64.235  37.565  65.315  0.00  0.00    -0.096 C 
ATOM     25  H   UNL     1      62.838  38.438  66.614  0.00  0.00    -0.082 HD
ATOM     26  C   UNL     1      64.686  38.233  67.678  0.00  0.00    -0.064 C 
ATOM     27  C   UNL     1      64.316  39.267  68.779  0.00  0.00    +0.066 C 
ENDBRANCH  19  20
ENDBRANCH  18  19
ENDBRANCH  14  15
ENDBRANCH  12  13
TORSDOF 6
ENDMDL
MODEL 2
REMARK VINA RESULT:      -8.5      1.793      2.493
REMARK  Name = C:\Users\Docking\Desktop\test protocol\1iep_ligandH.pdb
REMARK  8 active torsions:
REMARK  status: ('A' for Active; 'I' for Inactive)
REMARK    1  A    between atoms: _5  and  _11
REMARK    2  A    between atoms: _19  and  _21
REMARK    3  A    between atoms: _22  and  _66
REMARK    4  A    between atoms: _27  and  _30
REMARK    5  A    between atoms: _32  and  _33
REMARK    6  A    between atoms: _38  and  _43
REMARK    7  A    between atoms: _43  and  _46
REMARK    8  A    between atoms: _53  and  _55
REMARK                            x       y       z     vdW  Elec       q    Type
REMARK                         _______ _______ _______ _____ _____    ______ ____
ROOT
ATOM     10  C   UNL     1      69.233  44.051  76.558  0.00  0.00    +0.038 A 
ATOM     11  C   UNL     1      68.824  43.484  75.324  0.00  0.00    +0.047 A 
ATOM     12  C   UNL     1      68.062  44.259  74.356  0.00  0.00    +0.035 A 
ATOM     32  C   UNL     1      67.736  45.609  74.678  0.00  0.00    +0.024 A 
ATOM     33  C   UNL     1      68.142  46.200  75.929  0.00  0.00    +0.007 A 
ATOM     34  C   UNL     1      68.892  45.440  76.888  0.00  0.00    -0.029 A 
ATOM     35  C   UNL     1      69.296  46.123  78.215  0.00  0.00    +0.045 C 
ENDROOT
BRANCH  10   9
ATOM      4  C   UNL     1      73.371  42.540  78.464  0.00  0.00    +0.077 A 
ATOM      5  C   UNL     1      74.146  43.374  77.590  0.00  0.00    +0.048 A 
ATOM      6  C   UNL     1      73.441  44.170  76.660  0.00  0.00    +0.116 A 
ATOM      7  N   UNL     1      72.064  44.129  76.616  0.00  0.00    -0.223 NA
ATOM      8  C   UNL     1      71.348  43.313  77.472  0.00  0.00    +0.220 A 
ATOM      9  N   UNL     1      69.963  43.262  77.450  0.00  0.00    -0.283 N 
ATOM     36  H   UNL     1      69.471  42.641  78.093  0.00  0.00    +0.155 HD
ATOM     37  N   UNL     1      71.997  42.541  78.368  0.00  0.00    -0.214 NA
BRANCH   4   3
ATOM      1  C   UNL     1      73.999  40.577  81.788  0.00  0.00    +0.020 A 
ATOM      2  C   UNL     1      73.380  41.455  80.822  0.00  0.00    +0.013 A 
ATOM      3  C   UNL     1      73.970  41.644  79.502  0.00  0.00    +0.019 A 
ATOM     38  C   UNL     1      75.195  40.923  79.190  0.00  0.00    +0.120 A 
ATOM     39  N   UNL     1      75.769  40.086  80.142  0.00  0.00    -0.263 NA
ATOM     40  C   UNL     1      75.211  39.898  81.415  0.00  0.00    +0.111 A 
ENDBRANCH   4   3
ENDBRANCH  10   9
BRANCH  12  13
ATOM     13  N   UNL     1      67.612  43.735  73.090  0.00  0.00    -0.281 N 
ATOM     14  C   UNL     1      66.605  42.812  72.860  0.00  0.00    +0.248 C 
ATOM     30  O   UNL     1      66.078  42.133  73.728  0.00  0.00    -0.270 OA
ATOM     31  H   UNL     1      68.095  44.087  72.264  0.00  0.00    +0.155 HD
BRANCH  14  15
ATOM     15  C   UNL     1      66.124  42.603  71.460  0.00  0.00    +0.037 A 
ATOM     16  C   UNL     1      67.056  42.594  70.330  0.00  0.00    +0.013 A 
ATOM     17  C   UNL     1      66.563  42.407  68.988  0.00  0.00    +0.005 A 
ATOM     18  C   UNL     1      65.130  42.226  68.770  0.00  0.00    -0.033 A 
ATOM     28  C   UNL     1      64.229  42.235  69.910  0.00  0.00    +0.005 A 
ATOM     29  C   UNL     1      64.708  42.418  71.227  0.00  0.00    +0.013 A 
BRANCH  18  19
ATOM     19  C   UNL     1      64.514  42.042  67.371  0.00  0.00    +0.119 C 
BRANCH  19  20
ATOM     20  N   UNL     1      64.041  40.673  67.007  0.00  0.00    -0.302 NA
ATOM     21  C   UNL     1      64.997  39.584  67.504  0.00  0.00    +0.066 C 
ATOM     22  C   UNL     1      64.476  38.157  67.135  0.00  0.00    -0.064 C 
ATOM     23  N   UNL     1      64.289  38.062  65.619  0.00  0.00    +0.379 N 
ATOM     24  C   UNL     1      63.854  36.704  65.263  0.00  0.00    -0.096 C 
ATOM     25  H   UNL     1      65.282  38.236  65.145  0.00  0.00    -0.082 HD
ATOM     26  C   UNL     1      63.342  39.143  65.116  0.00  0.00    -0.064 C 
ATOM     27  C   UNL     1      63.854  40.555  65.514  0.00  0.00    +0.066 C 
ENDBRANCH  19  20
ENDBRANCH  18  19
ENDBRANCH  14  15
ENDBRANCH  12  13
TORSDOF 6
ENDMDL
MODEL 3
REMARK VINA RESULT:      -8.4     15.368     19.121
REMARK  Name = C:\Users\Docking\Desktop\test protocol\1iep_ligandH.pdb
REMARK  8 active torsions:
REMARK  status: ('A' for Active; 'I' for Inactive)
REMARK    1  A    between atoms: _5  and  _11
REMARK    2  A    between atoms: _19  and  _21
REMARK    3  A    between atoms: _22  and  _66
REMARK    4  A    between atoms: _27  and  _30
REMARK    5  A    between atoms: _32  and  _33
REMARK    6  A    between atoms: _38  and  _43
REMARK    7  A    between atoms: _43  and  _46
REMARK    8  A    between atoms: _53  and  _55
REMARK                            x       y       z     vdW  Elec       q    Type
REMARK                         _______ _______ _______ _____ _____    ______ ____
ROOT
ATOM     10  C   UNL     1      76.908  34.005  89.216  0.00  0.00    +0.038 A 
ATOM     11  C   UNL     1      77.152  35.362  88.884  0.00  0.00    +0.047 A 
ATOM     12  C   UNL     1      78.271  35.739  88.034  0.00  0.00    +0.035 A 
ATOM     32  C   UNL     1      79.120  34.707  87.537  0.00  0.00    +0.024 A 
ATOM     33  C   UNL     1      78.887  33.323  87.865  0.00  0.00    +0.007 A 
ATOM     34  C   UNL     1      77.787  32.945  88.705  0.00  0.00    -0.029 A 
ATOM     35  C   UNL     1      77.588  31.446  89.030  0.00  0.00    +0.045 C 
ENDROOT
BRANCH  10   9
ATOM      4  C   UNL     1      73.628  35.191  92.513  0.00  0.00    +0.077 A 
ATOM      5  C   UNL     1      74.144  36.525  92.632  0.00  0.00    +0.048 A 
ATOM      6  C   UNL     1      75.259  36.863  91.832  0.00  0.00    +0.116 A 
ATOM      7  N   UNL     1      75.808  35.929  90.980  0.00  0.00    -0.223 NA
ATOM      8  C   UNL     1      75.288  34.652  90.891  0.00  0.00    +0.220 A 
ATOM      9  N   UNL     1      75.819  33.699  90.036  0.00  0.00    -0.283 N 
ATOM     36  H   UNL     1      75.411  32.765  90.004  0.00  0.00    +0.155 HD
ATOM     37  N   UNL     1      74.224  34.303  91.645  0.00  0.00    -0.214 NA
BRANCH   4   3
ATOM      1  C   UNL     1      70.852  32.864  93.988  0.00  0.00    +0.020 A 
ATOM      2  C   UNL     1      71.992  33.303  93.218  0.00  0.00    +0.013 A 
ATOM      3  C   UNL     1      72.453  34.684  93.289  0.00  0.00    +0.019 A 
ATOM     38  C   UNL     1      71.732  35.603  94.157  0.00  0.00    +0.120 A 
ATOM     39  N   UNL     1      70.636  35.152  94.886  0.00  0.00    -0.263 NA
ATOM     40  C   UNL     1      70.183  33.826  94.824  0.00  0.00    +0.111 A 
ENDBRANCH   4   3
ENDBRANCH  10   9
BRANCH  12  13
ATOM     13  N   UNL     1      78.573  37.101  87.669  0.00  0.00    -0.281 N 
ATOM     14  C   UNL     1      78.365  37.722  86.449  0.00  0.00    +0.248 C 
ATOM     30  O   UNL     1      78.082  37.136  85.414  0.00  0.00    -0.270 OA
ATOM     31  H   UNL     1      78.991  37.677  88.400  0.00  0.00    +0.155 HD
BRANCH  14  15
ATOM     15  C   UNL     1      78.506  39.207  86.361  0.00  0.00    +0.037 A 
ATOM     16  C   UNL     1      79.517  39.922  87.143  0.00  0.00    +0.013 A 
ATOM     17  C   UNL     1      79.621  41.357  87.053  0.00  0.00    +0.005 A 
ATOM     18  C   UNL     1      78.710  42.087  86.175  0.00  0.00    -0.033 A 
ATOM     28  C   UNL     1      77.719  41.352  85.406  0.00  0.00    +0.005 A 
ATOM     29  C   UNL     1      77.614  39.946  85.492  0.00  0.00    +0.013 A 
BRANCH  18  19
ATOM     19  C   UNL     1      78.734  43.620  86.032  0.00  0.00    +0.119 C 
BRANCH  19  20
ATOM     20  N   UNL     1      79.819  44.212  85.194  0.00  0.00    -0.302 NA
ATOM     21  C   UNL     1      79.755  45.742  85.167  0.00  0.00    +0.066 C 
ATOM     22  C   UNL     1      80.911  46.345  84.305  0.00  0.00    -0.064 C 
ATOM     23  N   UNL     1      80.837  45.775  82.887  0.00  0.00    +0.379 N 
ATOM     24  C   UNL     1      81.887  46.384  82.058  0.00  0.00    -0.096 C 
ATOM     25  H   UNL     1      79.852  46.068  82.456  0.00  0.00    -0.082 HD
ATOM     26  C   UNL     1      80.897  44.254  82.905  0.00  0.00    -0.064 C 
ATOM     27  C   UNL     1      79.762  43.666  83.789  0.00  0.00    +0.066 C 
ENDBRANCH  19  20
ENDBRANCH  18  19
ENDBRANCH  14  15
ENDBRANCH  12  13
TORSDOF 6
ENDMDL
MODEL 4
REMARK VINA RESULT:      -8.4      2.124      2.854
REMARK  Name = C:\Users\Docking\Desktop\test protocol\1iep_ligandH.pdb
REMARK  8 active torsions:
REMARK  status: ('A' for Active; 'I' for Inactive)
REMARK    1  A    between atoms: _5  and  _11
REMARK    2  A    between atoms: _19  and  _21
REMARK    3  A    between atoms: _22  and  _66
REMARK    4  A    between atoms: _27  and  _30
REMARK    5  A    between atoms: _32  and  _33
REMARK    6  A    between atoms: _38  and  _43
REMARK    7  A    between atoms: _43  and  _46
REMARK    8  A    between atoms: _53  and  _55
REMARK                            x       y       z     vdW  Elec       q    Type
REMARK                         _______ _______ _______ _____ _____    ______ ____
ROOT
ATOM     10  C   UNL     1      69.360  45.108  77.306  0.00  0.00    +0.038 A 
ATOM     11  C   UNL     1      68.910  44.689  76.028  0.00  0.00    +0.047 A 
ATOM     12  C   UNL     1      68.185  45.596  75.152  0.00  0.00    +0.035 A 
ATOM     32  C   UNL     1      67.936  46.923  75.609  0.00  0.00    +0.024 A 
ATOM     33  C   UNL     1      68.385  47.364  76.906  0.00  0.00    +0.007 A 
ATOM     34  C   UNL     1      69.099  46.474  77.776  0.00  0.00    -0.029 A 
ATOM     35  C   UNL     1      69.551  46.999  79.158  0.00  0.00    +0.045 C 
ENDROOT
BRANCH  10   9
ATOM      4  C   UNL     1      73.369  42.814  78.613  0.00  0.00    +0.077 A 
ATOM      5  C   UNL     1      74.144  43.469  77.599  0.00  0.00    +0.048 A 
ATOM      6  C   UNL     1      73.472  44.383  76.757  0.00  0.00    +0.116 A 
ATOM      7  N   UNL     1      72.125  44.618  76.926  0.00  0.00    -0.223 NA
ATOM      8  C   UNL     1      71.406  43.969  77.913  0.00  0.00    +0.220 A 
ATOM      9  N   UNL     1      70.052  44.196  78.106  0.00  0.00    -0.283 N 
ATOM     36  H   UNL     1      69.556  43.691  78.841  0.00  0.00    +0.155 HD
ATOM     37  N   UNL     1      72.025  43.090  78.729  0.00  0.00    -0.214 NA
BRANCH   4   3
ATOM      1  C   UNL     1      73.966  40.639  81.809  0.00  0.00    +0.020 A 
ATOM      2  C   UNL     1      73.379  41.608  80.911  0.00  0.00    +0.013 A 
ATOM      3  C   UNL     1      73.937  41.825  79.582  0.00  0.00    +0.019 A 
ATOM     38  C   UNL     1      75.096  41.038  79.189  0.00  0.00    +0.120 A 
ATOM     39  N   UNL     1      75.640  40.114  80.075  0.00  0.00    -0.263 NA
ATOM     40  C   UNL     1      75.113  39.898  81.357  0.00  0.00    +0.111 A 
ENDBRANCH   4   3
ENDBRANCH  10   9
BRANCH  12  13
ATOM     13  N   UNL     1      67.697  45.225  73.847  0.00  0.00    -0.281 N 
ATOM     14  C   UNL     1      68.435  44.848  72.737  0.00  0.00    +0.248 C 
ATOM     30  O   UNL     1      69.646  44.979  72.635  0.00  0.00    -0.270 OA
ATOM     31  H   UNL     1      66.684  45.243  73.726  0.00  0.00    +0.155 HD
BRANCH  14  15
ATOM     15  C   UNL     1      67.724  44.252  71.565  0.00  0.00    +0.037 A 
ATOM     16  C   UNL     1      66.313  44.548  71.302  0.00  0.00    +0.013 A 
ATOM     17  C   UNL     1      65.646  43.946  70.174  0.00  0.00    +0.005 A 
ATOM     18  C   UNL     1      66.392  43.044  69.299  0.00  0.00    -0.033 A 
ATOM     28  C   UNL     1      67.792  42.773  69.580  0.00  0.00    +0.005 A 
ATOM     29  C   UNL     1      68.448  43.360  70.685  0.00  0.00    +0.013 A 
BRANCH  18  19
ATOM     19  C   UNL     1      65.755  42.342  68.085  0.00  0.00    +0.119 C 
BRANCH  19  20
ATOM     20  N   UNL     1      65.135  41.003  68.317  0.00  0.00    -0.302 NA
ATOM     21  C   UNL     1      64.821  40.765  69.797  0.00  0.00    +0.066 C 
ATOM     22  C   UNL     1      64.152  39.369  70.019  0.00  0.00    -0.064 C 
ATOM     23  N   UNL     1      65.072  38.274  69.477  0.00  0.00    +0.379 N 
ATOM     24  C   UNL     1      64.472  36.957  69.736  0.00  0.00    -0.096 C 
ATOM     25  H   UNL     1      66.030  38.327  70.044  0.00  0.00    -0.082 HD
ATOM     26  C   UNL     1      65.391  38.505  68.007  0.00  0.00    -0.064 C 
ATOM     27  C   UNL     1      66.029  39.906  67.794  0.00  0.00    +0.066 C 
ENDBRANCH  19  20
ENDBRANCH  18  19
ENDBRANCH  14  15
ENDBRANCH  12  13
TORSDOF 6
ENDMDL
MODEL 5
REMARK VINA RESULT:      -8.4     15.397     19.253
REMARK  Name = C:\Users\Docking\Desktop\test protocol\1iep_ligandH.pdb
REMARK  8 active torsions:
REMARK  status: ('A' for Active; 'I' for Inactive)
REMARK    1  A    between atoms: _5  and  _11
REMARK    2  A    between atoms: _19  and  _21
REMARK    3  A    between atoms: _22  and  _66
REMARK    4  A    between atoms: _27  and  _30
REMARK    5  A    between atoms: _32  and  _33
REMARK    6  A    between atoms: _38  and  _43
REMARK    7  A    between atoms: _43  and  _46
REMARK    8  A    between atoms: _53  and  _55
REMARK                            x       y       z     vdW  Elec       q    Type
REMARK                         _______ _______ _______ _____ _____    ______ ____
ROOT
ATOM     10  C   UNL     1      76.839  33.971  89.282  0.00  0.00    +0.038 A 
ATOM     11  C   UNL     1      77.056  35.323  88.914  0.00  0.00    +0.047 A 
ATOM     12  C   UNL     1      78.182  35.703  88.075  0.00  0.00    +0.035 A 
ATOM     32  C   UNL     1      79.066  34.679  87.626  0.00  0.00    +0.024 A 
ATOM     33  C   UNL     1      78.861  33.299  87.992  0.00  0.00    +0.007 A 
ATOM     34  C   UNL     1      77.753  32.919  88.821  0.00  0.00    -0.029 A 
ATOM     35  C   UNL     1      77.586  31.426  89.187  0.00  0.00    +0.045 C 
ENDROOT
BRANCH  10   9
ATOM      4  C   UNL     1      73.562  35.129  92.592  0.00  0.00    +0.077 A 
ATOM      5  C   UNL     1      74.098  36.451  92.746  0.00  0.00    +0.048 A 
ATOM      6  C   UNL     1      75.221  36.791  91.959  0.00  0.00    +0.116 A 
ATOM      7  N   UNL     1      75.761  35.870  91.088  0.00  0.00    -0.223 NA
ATOM      8  C   UNL     1      75.221  34.603  90.965  0.00  0.00    +0.220 A 
ATOM      9  N   UNL     1      75.742  33.663  90.089  0.00  0.00    -0.283 N 
ATOM     36  H   UNL     1      75.320  32.736  90.034  0.00  0.00    +0.155 HD
ATOM     37  N   UNL     1      74.149  34.253  91.706  0.00  0.00    -0.214 NA
BRANCH   4   3
ATOM      1  C   UNL     1      70.749  32.808  94.006  0.00  0.00    +0.020 A 
ATOM      2  C   UNL     1      71.900  33.247  93.251  0.00  0.00    +0.013 A 
ATOM      3  C   UNL     1      72.375  34.621  93.351  0.00  0.00    +0.019 A 
ATOM     38  C   UNL     1      71.658  35.533  94.230  0.00  0.00    +0.120 A 
ATOM     39  N   UNL     1      70.552  35.081  94.943  0.00  0.00    -0.263 NA
ATOM     40  C   UNL     1      70.084  33.762  94.854  0.00  0.00    +0.111 A 
ENDBRANCH   4   3
ENDBRANCH  10   9
BRANCH  12  13
ATOM     13  N   UNL     1      78.458  37.061  87.675  0.00  0.00    -0.281 N 
ATOM     14  C   UNL     1      78.406  37.600  86.400  0.00  0.00    +0.248 C 
ATOM     30  O   UNL     1      78.320  36.942  85.374  0.00  0.00    -0.270 OA
ATOM     31  H   UNL     1      78.725  37.702  88.422  0.00  0.00    +0.155 HD
BRANCH  14  15
ATOM     15  C   UNL     1      78.473  39.085  86.241  0.00  0.00    +0.037 A 
ATOM     16  C   UNL     1      79.329  39.904  87.104  0.00  0.00    +0.013 A 
ATOM     17  C   UNL     1      79.361  41.336  86.941  0.00  0.00    +0.005 A 
ATOM     18  C   UNL     1      78.536  41.958  85.908  0.00  0.00    -0.033 A 
ATOM     28  C   UNL     1      77.700  41.121  85.063  0.00  0.00    +0.005 A 
ATOM     29  C   UNL     1      77.664  39.718  85.221  0.00  0.00    +0.013 A 
BRANCH  18  19
ATOM     19  C   UNL     1      78.492  43.480  85.677  0.00  0.00    +0.119 C 
BRANCH  19  20
ATOM     20  N   UNL     1      77.807  44.309  86.713  0.00  0.00    -0.302 NA
ATOM     21  C   UNL     1      76.839  43.482  87.564  0.00  0.00    +0.066 C 
ATOM     22  C   UNL     1      76.148  44.361  88.657  0.00  0.00    -0.064 C 
ATOM     23  N   UNL     1      75.420  45.527  87.985  0.00  0.00    +0.379 N 
ATOM     24  C   UNL     1      74.721  46.322  89.006  0.00  0.00    -0.096 C 
ATOM     25  H   UNL     1      74.648  45.096  87.305  0.00  0.00    -0.082 HD
ATOM     26  C   UNL     1      76.375  46.353  87.136  0.00  0.00    -0.064 C 
ATOM     27  C   UNL     1      77.078  45.464  86.072  0.00  0.00    +0.066 C 
ENDBRANCH  19  20
ENDBRANCH  18  19
ENDBRANCH  14  15
ENDBRANCH  12  13
TORSDOF 6
ENDMDL
