MODEL 1
REMARK VINA RESULT:      -8.7      0.000      0.000
REMARK  Name = C:\Users\Docking\Desktop\test protocol\1iep_ligandH.pdb
REMARK  8 active torsions:
REMARK  status: ('A' for Active; 'I' for Inactive)
REMARK    1  A    between atoms: _5  and  _11
REMARK    2  A    between atoms: _19  and  _21
REMARK    3  A    between atoms: _22  and  _66
REMARK    4  A    between atoms: _27  and  _30
REMARK    5  A    between atoms: _32  and  _33
REMARK    6  A    between atoms: _38  and  _43
REMARK    7  A    between atoms: _43  and  _46
REMARK    8  A    between atoms: _53  and  _55
REMARK                            x       y       z     vdW  Elec       q    Type
REMARK                         _______ _______ _______ _____ _____    ______ ____
ROOT
ATOM     10  C   UNL     1       1.359   1.056  -5.556  0.00  0.00    +0.038 A 
ATOM     11  C   UNL     1       2.363   1.741  -6.288  0.00  0.00    +0.047 A 
ATOM     12  C   UNL     1       3.226   1.035  -7.222  0.00  0.00    +0.035 A 
ATOM     32  C   UNL     1       3.038  -0.368  -7.388  0.00  0.00    +0.024 A 
ATOM     33  C   UNL     1       2.023  -1.080  -6.651  0.00  0.00    +0.007 A 
ATOM     34  C   UNL     1       1.170  -0.389  -5.727  0.00  0.00    -0.029 A 
ATOM     35  C   UNL     1       0.103  -1.204  -4.959  0.00  0.00    +0.045 C 
ENDROOT
BRANCH  10   9
ATOM      4  C   UNL     1       0.297   2.686  -1.168  0.00  0.00    +0.077 A 
ATOM      5  C   UNL     1       1.417   2.009  -0.581  0.00  0.00    +0.048 A 
ATOM      6  C   UNL     1       2.238   1.246  -1.442  0.00  0.00    +0.116 A 
ATOM      7  N   UNL     1       1.951   1.173  -2.788  0.00  0.00    -0.223 NA
ATOM      8  C   UNL     1       0.861   1.837  -3.321  0.00  0.00    +0.220 A 
ATOM      9  N   UNL     1       0.558   1.784  -4.673  0.00  0.00    -0.283 N 
ATOM     36  H   UNL     1      -0.259   2.281  -5.026  0.00  0.00    +0.155 HD
ATOM     37  N   UNL     1       0.061   2.571  -2.520  0.00  0.00    -0.214 NA
BRANCH   4   3
ATOM      1  C   UNL     1      -1.416   4.695   1.718  0.00  0.00    +0.020 A 
ATOM      2  C   UNL     1      -0.460   3.872   1.013  0.00  0.00    +0.013 A 
ATOM      3  C   UNL     1      -0.661   3.534  -0.390  0.00  0.00    +0.019 A 
ATOM     38  C   UNL     1      -1.848   4.049  -1.056  0.00  0.00    +0.120 A 
ATOM     39  N   UNL     1      -2.752   4.837  -0.351  0.00  0.00    -0.263 NA
ATOM     40  C   UNL     1      -2.570   5.168   1.000  0.00  0.00    +0.111 A 
ENDBRANCH   4   3
ENDBRANCH  10   9
BRANCH  12  13
ATOM     13  N   UNL     1       4.267   1.675  -7.987  0.00  0.00    -0.281 N 
ATOM     14  C   UNL     1       5.566   1.954  -7.592  0.00  0.00    +0.248 C 
ATOM     30  O   UNL     1       5.967   1.886  -6.439  0.00  0.00    -0.270 OA
ATOM     31  H   UNL     1       4.017   1.957  -8.935  0.00  0.00    +0.155 HD
BRANCH  14  15
ATOM     15  C   UNL     1       6.558   2.383  -8.623  0.00  0.00    +0.037 A 
ATOM     16  C   UNL     1       7.061   1.446  -9.631  0.00  0.00    +0.013 A 
ATOM     17  C   UNL     1       8.031   1.882 -10.604  0.00  0.00    +0.005 A 
ATOM     18  C   UNL     1       8.503   3.264 -10.575  0.00  0.00    -0.033 A 
ATOM     28  C   UNL     1       7.983   4.175  -9.568  0.00  0.00    +0.005 A 
ATOM     29  C   UNL     1       7.033   3.751  -8.612  0.00  0.00    +0.013 A 
BRANCH  18  19
ATOM     19  C   UNL     1       9.552   3.811 -11.562  0.00  0.00    +0.119 C 
BRANCH  19  20
ATOM     20  N   UNL     1       9.134   4.936 -12.450  0.00  0.00    -0.302 NA
ATOM     21  C   UNL     1       9.534   4.696 -13.908  0.00  0.00    +0.066 C 
ATOM     22  C   UNL     1       9.069   5.872 -14.827  0.00  0.00    -0.064 C 
ATOM     23  N   UNL     1       9.665   7.184 -14.312  0.00  0.00    +0.379 N 
ATOM     24  C   UNL     1       9.277   8.284 -15.207  0.00  0.00    -0.096 C 
ATOM     25  H   UNL     1      10.775   7.090 -14.352  0.00  0.00    -0.082 HD
ATOM     26  C   UNL     1       9.275   7.429 -12.861  0.00  0.00    -0.064 C 
ATOM     27  C   UNL     1       9.715   6.241 -11.962  0.00  0.00    +0.066 C 
ENDBRANCH  19  20
ENDBRANCH  18  19
ENDBRANCH  14  15
ENDBRANCH  12  13
TORSDOF 6
ENDMDL
MODEL 2
REMARK VINA RESULT:      -8.7      1.689      2.171
REMARK  Name = C:\Users\Docking\Desktop\test protocol\1iep_ligandH.pdb
REMARK  8 active torsions:
REMARK  status: ('A' for Active; 'I' for Inactive)
REMARK    1  A    between atoms: _5  and  _11
REMARK    2  A    between atoms: _19  and  _21
REMARK    3  A    between atoms: _22  and  _66
REMARK    4  A    between atoms: _27  and  _30
REMARK    5  A    between atoms: _32  and  _33
REMARK    6  A    between atoms: _38  and  _43
REMARK    7  A    between atoms: _43  and  _46
REMARK    8  A    between atoms: _53  and  _55
REMARK                            x       y       z     vdW  Elec       q    Type
REMARK                         _______ _______ _______ _____ _____    ______ ____
ROOT
ATOM     10  C   UNL     1       3.533   1.601  -3.983  0.00  0.00    +0.038 A 
ATOM     11  C   UNL     1       3.913   2.200  -5.211  0.00  0.00    +0.047 A 
ATOM     12  C   UNL     1       4.675   1.460  -6.205  0.00  0.00    +0.035 A 
ATOM     32  C   UNL     1       5.031   0.111  -5.916  0.00  0.00    +0.024 A 
ATOM     33  C   UNL     1       4.655  -0.513  -4.672  0.00  0.00    +0.007 A 
ATOM     34  C   UNL     1       3.905   0.212  -3.687  0.00  0.00    -0.029 A 
ATOM     35  C   UNL     1       3.533  -0.505  -2.368  0.00  0.00    +0.045 C 
ENDROOT
BRANCH  10   9
ATOM      4  C   UNL     1      -0.591   2.888  -1.891  0.00  0.00    +0.077 A 
ATOM      5  C   UNL     1      -1.356   1.998  -2.716  0.00  0.00    +0.048 A 
ATOM      6  C   UNL     1      -0.651   1.231  -3.671  0.00  0.00    +0.116 A 
ATOM      7  N   UNL     1       0.717   1.354  -3.784  0.00  0.00    -0.223 NA
ATOM      8  C   UNL     1       1.424   2.224  -2.974  0.00  0.00    +0.220 A 
ATOM      9  N   UNL     1       2.801   2.358  -3.064  0.00  0.00    -0.283 N 
ATOM     36  H   UNL     1       3.285   3.015  -2.454  0.00  0.00    +0.155 HD
ATOM     37  N   UNL     1       0.774   2.968  -2.055  0.00  0.00    -0.214 NA
BRANCH   4   3
ATOM      1  C   UNL     1      -1.178   4.848   1.443  0.00  0.00    +0.020 A 
ATOM      2  C   UNL     1      -0.556   3.995   0.457  0.00  0.00    +0.013 A 
ATOM      3  C   UNL     1      -1.192   3.762  -0.834  0.00  0.00    +0.019 A 
ATOM     38  C   UNL     1      -2.466   4.413  -1.098  0.00  0.00    +0.120 A 
ATOM     39  N   UNL     1      -3.042   5.228  -0.128  0.00  0.00    -0.263 NA
ATOM     40  C   UNL     1      -2.441   5.458   1.118  0.00  0.00    +0.111 A 
ENDBRANCH   4   3
ENDBRANCH  10   9
BRANCH  12  13
ATOM     13  N   UNL     1       5.096   2.018  -7.466  0.00  0.00    -0.281 N 
ATOM     14  C   UNL     1       6.145   2.891  -7.703  0.00  0.00    +0.248 C 
ATOM     30  O   UNL     1       6.753   3.494  -6.832  0.00  0.00    -0.270 OA
ATOM     31  H   UNL     1       4.554   1.736  -8.283  0.00  0.00    +0.155 HD
BRANCH  14  15
ATOM     15  C   UNL     1       6.572   3.140  -9.114  0.00  0.00    +0.037 A 
ATOM     16  C   UNL     1       7.628   4.105  -9.429  0.00  0.00    +0.013 A 
ATOM     17  C   UNL     1       8.009   4.338 -10.799  0.00  0.00    +0.005 A 
ATOM     18  C   UNL     1       7.334   3.603 -11.866  0.00  0.00    -0.033 A 
ATOM     28  C   UNL     1       6.294   2.647 -11.524  0.00  0.00    +0.005 A 
ATOM     29  C   UNL     1       5.917   2.416 -10.182  0.00  0.00    +0.013 A 
BRANCH  18  19
ATOM     19  C   UNL     1       7.661   3.804 -13.357  0.00  0.00    +0.119 C 
BRANCH  19  20
ATOM     20  N   UNL     1       8.207   5.133 -13.765  0.00  0.00    -0.302 NA
ATOM     21  C   UNL     1       7.453   5.721 -14.961  0.00  0.00    +0.066 C 
ATOM     22  C   UNL     1       8.023   7.121 -15.360  0.00  0.00    -0.064 C 
ATOM     23  N   UNL     1       9.515   6.993 -15.670  0.00  0.00    +0.379 N 
ATOM     24  C   UNL     1      10.040   8.296 -16.101  0.00  0.00    -0.096 C 
ATOM     25  H   UNL     1       9.623   6.285 -16.524  0.00  0.00    -0.082 HD
ATOM     26  C   UNL     1      10.271   6.406 -14.486  0.00  0.00    -0.064 C 
ATOM     27  C   UNL     1       9.679   5.028 -14.080  0.00  0.00    +0.066 C 
ENDBRANCH  19  20
ENDBRANCH  18  19
ENDBRANCH  14  15
ENDBRANCH  12  13
TORSDOF 6
ENDMDL
MODEL 3
REMARK VINA RESULT:      -8.6      1.938      2.669
REMARK  Name = C:\Users\Docking\Desktop\test protocol\1iep_ligandH.pdb
REMARK  8 active torsions:
REMARK  status: ('A' for Active; 'I' for Inactive)
REMARK    1  A    between atoms: _5  and  _11
REMARK    2  A    between atoms: _19  and  _21
REMARK    3  A    between atoms: _22  and  _66
REMARK    4  A    between atoms: _27  and  _30
REMARK    5  A    between atoms: _32  and  _33
REMARK    6  A    between atoms: _38  and  _43
REMARK    7  A    between atoms: _43  and  _46
REMARK    8  A    between atoms: _53  and  _55
REMARK                            x       y       z     vdW  Elec       q    Type
REMARK                         _______ _______ _______ _____ _____    ______ ____
ROOT
ATOM     10  C   UNL     1       3.652   1.681  -4.153  0.00  0.00    +0.038 A 
ATOM     11  C   UNL     1       4.050   2.322  -5.353  0.00  0.00    +0.047 A 
ATOM     12  C   UNL     1       4.816   1.614  -6.367  0.00  0.00    +0.035 A 
ATOM     32  C   UNL     1       5.156   0.251  -6.127  0.00  0.00    +0.024 A 
ATOM     33  C   UNL     1       4.760  -0.417  -4.912  0.00  0.00    +0.007 A 
ATOM     34  C   UNL     1       4.007   0.278  -3.907  0.00  0.00    -0.029 A 
ATOM     35  C   UNL     1       3.615  -0.486  -2.620  0.00  0.00    +0.045 C 
ENDROOT
BRANCH  10   9
ATOM      4  C   UNL     1      -0.464   2.843  -1.975  0.00  0.00    +0.077 A 
ATOM      5  C   UNL     1      -1.222   1.942  -2.796  0.00  0.00    +0.048 A 
ATOM      6  C   UNL     1      -0.515   1.204  -3.771  0.00  0.00    +0.116 A 
ATOM      7  N   UNL     1       0.847   1.362  -3.907  0.00  0.00    -0.223 NA
ATOM      8  C   UNL     1       1.547   2.240  -3.100  0.00  0.00    +0.220 A 
ATOM      9  N   UNL     1       2.918   2.409  -3.213  0.00  0.00    -0.283 N 
ATOM     36  H   UNL     1       3.397   3.072  -2.604  0.00  0.00    +0.155 HD
ATOM     37  N   UNL     1       0.895   2.958  -2.161  0.00  0.00    -0.214 NA
BRANCH   4   3
ATOM      1  C   UNL     1      -1.098   4.658   1.432  0.00  0.00    +0.020 A 
ATOM      2  C   UNL     1      -0.475   3.827   0.427  0.00  0.00    +0.013 A 
ATOM      3  C   UNL     1      -1.067   3.690  -0.897  0.00  0.00    +0.019 A 
ATOM     38  C   UNL     1      -2.299   4.413  -1.176  0.00  0.00    +0.120 A 
ATOM     39  N   UNL     1      -2.876   5.205  -0.188  0.00  0.00    -0.263 NA
ATOM     40  C   UNL     1      -2.317   5.343   1.091  0.00  0.00    +0.111 A 
ENDBRANCH   4   3
ENDBRANCH  10   9
BRANCH  12  13
ATOM     13  N   UNL     1       5.255   2.215  -7.602  0.00  0.00    -0.281 N 
ATOM     14  C   UNL     1       6.223   3.190  -7.777  0.00  0.00    +0.248 C 
ATOM     30  O   UNL     1       6.712   3.849  -6.871  0.00  0.00    -0.270 OA
ATOM     31  H   UNL     1       4.796   1.882  -8.450  0.00  0.00    +0.155 HD
BRANCH  14  15
ATOM     15  C   UNL     1       6.709   3.485  -9.159  0.00  0.00    +0.037 A 
ATOM     16  C   UNL     1       6.212   2.736 -10.316  0.00  0.00    +0.013 A 
ATOM     17  C   UNL     1       6.710   3.029 -11.636  0.00  0.00    +0.005 A 
ATOM     18  C   UNL     1       7.711   4.079 -11.807  0.00  0.00    -0.033 A 
ATOM     28  C   UNL     1       8.183   4.811 -10.643  0.00  0.00    +0.005 A 
ATOM     29  C   UNL     1       7.698   4.525  -9.347  0.00  0.00    +0.013 A 
BRANCH  18  19
ATOM     19  C   UNL     1       8.314   4.445 -13.176  0.00  0.00    +0.119 C 
BRANCH  19  20
ATOM     20  N   UNL     1       9.699   3.965 -13.464  0.00  0.00    -0.302 NA
ATOM     21  C   UNL     1      10.020   2.663 -12.726  0.00  0.00    +0.066 C 
ATOM     22  C   UNL     1      11.464   2.163 -13.057  0.00  0.00    -0.064 C 
ATOM     23  N   UNL     1      12.474   3.254 -12.694  0.00  0.00    +0.379 N 
ATOM     24  C   UNL     1      13.837   2.765 -12.949  0.00  0.00    -0.096 C 
ATOM     25  H   UNL     1      12.383   3.448 -11.600  0.00  0.00    -0.082 HD
ATOM     26  C   UNL     1      12.160   4.554 -13.421  0.00  0.00    -0.064 C 
ATOM     27  C   UNL     1      10.712   5.026 -13.109  0.00  0.00    +0.066 C 
ENDBRANCH  19  20
ENDBRANCH  18  19
ENDBRANCH  14  15
ENDBRANCH  12  13
TORSDOF 6
ENDMDL
MODEL 4
REMARK VINA RESULT:      -8.4     16.089     19.797
REMARK  Name = C:\Users\Docking\Desktop\test protocol\1iep_ligandH.pdb
REMARK  8 active torsions:
REMARK  status: ('A' for Active; 'I' for Inactive)
REMARK    1  A    between atoms: _5  and  _11
REMARK    2  A    between atoms: _19  and  _21
REMARK    3  A    between atoms: _22  and  _66
REMARK    4  A    between atoms: _27  and  _30
REMARK    5  A    between atoms: _32  and  _33
REMARK    6  A    between atoms: _38  and  _43
REMARK    7  A    between atoms: _43  and  _46
REMARK    8  A    between atoms: _53  and  _55
REMARK                            x       y       z     vdW  Elec       q    Type
REMARK                         _______ _______ _______ _____ _____    ______ ____
ROOT
ATOM     10  C   UNL     1      -3.958  11.330   8.962  0.00  0.00    +0.038 A 
ATOM     11  C   UNL     1      -4.160   9.966   8.627  0.00  0.00    +0.047 A 
ATOM     12  C   UNL     1      -5.265   9.556   7.774  0.00  0.00    +0.035 A 
ATOM     32  C   UNL     1      -6.144  10.562   7.277  0.00  0.00    +0.024 A 
ATOM     33  C   UNL     1      -5.954  11.953   7.608  0.00  0.00    +0.007 A 
ATOM     34  C   UNL     1      -4.867  12.363   8.451  0.00  0.00    -0.029 A 
ATOM     35  C   UNL     1      -4.716  13.867   8.777  0.00  0.00    +0.045 C 
ENDROOT
BRANCH  10   9
ATOM      4  C   UNL     1      -0.681  10.252  12.299  0.00  0.00    +0.077 A 
ATOM      5  C   UNL     1      -1.174   8.911  12.434  0.00  0.00    +0.048 A 
ATOM      6  C   UNL     1      -2.276   8.541  11.632  0.00  0.00    +0.116 A 
ATOM      7  N   UNL     1      -2.836   9.452  10.763  0.00  0.00    -0.223 NA
ATOM      8  C   UNL     1      -2.339  10.737  10.658  0.00  0.00    +0.220 A 
ATOM      9  N   UNL     1      -2.882  11.667   9.785  0.00  0.00    -0.283 N 
ATOM     36  H   UNL     1      -2.490  12.608   9.742  0.00  0.00    +0.155 HD
ATOM     37  N   UNL     1      -1.287  11.116  11.414  0.00  0.00    -0.214 NA
BRANCH   4   3
ATOM      1  C   UNL     1       2.079  12.635  13.713  0.00  0.00    +0.020 A 
ATOM      2  C   UNL     1       0.955  12.163  12.939  0.00  0.00    +0.013 A 
ATOM      3  C   UNL     1       0.479  10.792  13.076  0.00  0.00    +0.019 A 
ATOM     38  C   UNL     1       1.168   9.918  14.013  0.00  0.00    +0.120 A 
ATOM     39  N   UNL     1       2.250  10.400  14.744  0.00  0.00    -0.263 NA
ATOM     40  C   UNL     1       2.717  11.716  14.619  0.00  0.00    +0.111 A 
ENDBRANCH   4   3
ENDBRANCH  10   9
BRANCH  12  13
ATOM     13  N   UNL     1      -5.525   8.186   7.408  0.00  0.00    -0.281 N 
ATOM     14  C   UNL     1      -5.372   7.593   6.165  0.00  0.00    +0.248 C 
ATOM     30  O   UNL     1      -5.190   8.208   5.124  0.00  0.00    -0.270 OA
ATOM     31  H   UNL     1      -5.862   7.579   8.155  0.00  0.00    +0.155 HD
BRANCH  14  15
ATOM     15  C   UNL     1      -5.445   6.104   6.061  0.00  0.00    +0.037 A 
ATOM     16  C   UNL     1      -6.178   5.309   7.049  0.00  0.00    +0.013 A 
ATOM     17  C   UNL     1      -6.219   3.873   6.935  0.00  0.00    +0.005 A 
ATOM     18  C   UNL     1      -5.525   3.222   5.826  0.00  0.00    -0.033 A 
ATOM     28  C   UNL     1      -4.810   4.036   4.857  0.00  0.00    +0.005 A 
ATOM     29  C   UNL     1      -4.767   5.444   4.966  0.00  0.00    +0.013 A 
BRANCH  18  19
ATOM     19  C   UNL     1      -5.498   1.694   5.638  0.00  0.00    +0.119 C 
BRANCH  19  20
ATOM     20  N   UNL     1      -6.627   1.078   4.879  0.00  0.00    -0.302 NA
ATOM     21  C   UNL     1      -6.583  -0.452   4.924  0.00  0.00    +0.066 C 
ATOM     22  C   UNL     1      -7.784  -1.079   4.144  0.00  0.00    -0.064 C 
ATOM     23  N   UNL     1      -7.767  -0.579   2.698  0.00  0.00    +0.379 N 
ATOM     24  C   UNL     1      -8.860  -1.212   1.947  0.00  0.00    -0.096 C 
ATOM     25  H   UNL     1      -6.806  -0.908   2.239  0.00  0.00    -0.082 HD
ATOM     26  C   UNL     1      -7.807   0.941   2.644  0.00  0.00    -0.064 C 
ATOM     27  C   UNL     1      -6.626   1.555   3.447  0.00  0.00    +0.066 C 
ENDBRANCH  19  20
ENDBRANCH  18  19
ENDBRANCH  14  15
ENDBRANCH  12  13
TORSDOF 6
ENDMDL
MODEL 5
REMARK VINA RESULT:      -8.3      2.045      2.661
REMARK  Name = C:\Users\Docking\Desktop\test protocol\1iep_ligandH.pdb
REMARK  8 active torsions:
REMARK  status: ('A' for Active; 'I' for Inactive)
REMARK    1  A    between atoms: _5  and  _11
REMARK    2  A    between atoms: _19  and  _21
REMARK    3  A    between atoms: _22  and  _66
REMARK    4  A    between atoms: _27  and  _30
REMARK    5  A    between atoms: _32  and  _33
REMARK    6  A    between atoms: _38  and  _43
REMARK    7  A    between atoms: _43  and  _46
REMARK    8  A    between atoms: _53  and  _55
REMARK                            x       y       z     vdW  Elec       q    Type
REMARK                         _______ _______ _______ _____ _____    ______ ____
ROOT
ATOM     10  C   UNL     1       3.334   0.245  -2.912  0.00  0.00    +0.038 A 
ATOM     11  C   UNL     1       3.789   0.661  -4.189  0.00  0.00    +0.047 A 
ATOM     12  C   UNL     1       4.505  -0.251  -5.067  0.00  0.00    +0.035 A 
ATOM     32  C   UNL     1       4.737  -1.582  -4.614  0.00  0.00    +0.024 A 
ATOM     33  C   UNL     1       4.282  -2.022  -3.319  0.00  0.00    +0.007 A 
ATOM     34  C   UNL     1       3.578  -1.126  -2.447  0.00  0.00    -0.029 A 
ATOM     35  C   UNL     1       3.119  -1.650  -1.066  0.00  0.00    +0.045 C 
ENDROOT
BRANCH  10   9
ATOM      4  C   UNL     1      -0.651   2.575  -1.597  0.00  0.00    +0.077 A 
ATOM      5  C   UNL     1      -1.434   1.930  -2.611  0.00  0.00    +0.048 A 
ATOM      6  C   UNL     1      -0.772   1.011  -3.455  0.00  0.00    +0.116 A 
ATOM      7  N   UNL     1       0.573   0.762  -3.288  0.00  0.00    -0.223 NA
ATOM      8  C   UNL     1       1.300   1.403  -2.301  0.00  0.00    +0.220 A 
ATOM      9  N   UNL     1       2.651   1.162  -2.110  0.00  0.00    -0.283 N 
ATOM     36  H   UNL     1       3.153   1.661  -1.376  0.00  0.00    +0.155 HD
ATOM     37  N   UNL     1       0.691   2.286  -1.483  0.00  0.00    -0.214 NA
BRANCH   4   3
ATOM      1  C   UNL     1      -1.175   4.808   1.572  0.00  0.00    +0.020 A 
ATOM      2  C   UNL     1      -0.598   3.838   0.671  0.00  0.00    +0.013 A 
ATOM      3  C   UNL     1      -1.208   3.569  -0.626  0.00  0.00    +0.019 A 
ATOM     38  C   UNL     1      -2.410   4.306  -0.983  0.00  0.00    +0.120 A 
ATOM     39  N   UNL     1      -2.945   5.234  -0.094  0.00  0.00    -0.263 NA
ATOM     40  C   UNL     1      -2.368   5.499   1.157  0.00  0.00    +0.111 A 
ENDBRANCH   4   3
ENDBRANCH  10   9
BRANCH  12  13
ATOM     13  N   UNL     1       4.998   0.118  -6.371  0.00  0.00    -0.281 N 
ATOM     14  C   UNL     1       4.272   0.301  -7.536  0.00  0.00    +0.248 C 
ATOM     30  O   UNL     1       3.106  -0.036  -7.684  0.00  0.00    -0.270 OA
ATOM     31  H   UNL     1       6.006   0.262  -6.444  0.00  0.00    +0.155 HD
BRANCH  14  15
ATOM     15  C   UNL     1       4.941   0.936  -8.712  0.00  0.00    +0.037 A 
ATOM     16  C   UNL     1       4.245   1.085  -9.993  0.00  0.00    +0.013 A 
ATOM     17  C   UNL     1       4.919   1.686 -11.117  0.00  0.00    +0.005 A 
ATOM     18  C   UNL     1       6.298   2.143 -10.963  0.00  0.00    -0.033 A 
ATOM     28  C   UNL     1       6.963   1.988  -9.680  0.00  0.00    +0.005 A 
ATOM     29  C   UNL     1       6.305   1.398  -8.577  0.00  0.00    +0.013 A 
BRANCH  18  19
ATOM     19  C   UNL     1       7.102   2.777 -12.114  0.00  0.00    +0.119 C 
BRANCH  19  20
ATOM     20  N   UNL     1       7.730   4.107 -11.858  0.00  0.00    -0.302 NA
ATOM     21  C   UNL     1       6.728   5.255 -12.016  0.00  0.00    +0.066 C 
ATOM     22  C   UNL     1       7.396   6.638 -11.723  0.00  0.00    -0.064 C 
ATOM     23  N   UNL     1       8.593   6.831 -12.656  0.00  0.00    +0.379 N 
ATOM     24  C   UNL     1       9.188   8.155 -12.423  0.00  0.00    -0.096 C 
ATOM     25  H   UNL     1       8.211   6.811 -13.704  0.00  0.00    -0.082 HD
ATOM     26  C   UNL     1       9.593   5.693 -12.508  0.00  0.00    -0.064 C 
ATOM     27  C   UNL     1       8.912   4.321 -12.772  0.00  0.00    +0.066 C 
ENDBRANCH  19  20
ENDBRANCH  18  19
ENDBRANCH  14  15
ENDBRANCH  12  13
TORSDOF 6
ENDMDL
