MODEL 1
REMARK VINA RESULT:      -9.2      0.000      0.000
REMARK  Name = C:\Users\Docking\Desktop\test protocol\1iep_ligandH.pdb
REMARK  8 active torsions:
REMARK  status: ('A' for Active; 'I' for Inactive)
REMARK    1  A    between atoms: _5  and  _11
REMARK    2  A    between atoms: _19  and  _21
REMARK    3  A    between atoms: _22  and  _66
REMARK    4  A    between atoms: _27  and  _30
REMARK    5  A    between atoms: _32  and  _33
REMARK    6  A    between atoms: _38  and  _43
REMARK    7  A    between atoms: _43  and  _46
REMARK    8  A    between atoms: _53  and  _55
REMARK                            x       y       z     vdW  Elec       q    Type
REMARK                         _______ _______ _______ _____ _____    ______ ____
ROOT
ATOM     10  C   UNL     1     -17.071  20.043  -8.271  0.00  0.00    +0.038 A 
ATOM     11  C   UNL     1     -15.859  19.713  -7.613  0.00  0.00    +0.047 A 
ATOM     12  C   UNL     1     -14.582  20.226  -8.085  0.00  0.00    +0.035 A 
ATOM     32  C   UNL     1     -14.577  21.076  -9.229  0.00  0.00    +0.024 A 
ATOM     33  C   UNL     1     -15.800  21.421  -9.911  0.00  0.00    +0.007 A 
ATOM     34  C   UNL     1     -17.062  20.916  -9.451  0.00  0.00    -0.029 A 
ATOM     35  C   UNL     1     -18.341  21.314 -10.224  0.00  0.00    +0.045 C 
ENDROOT
BRANCH  10   9
ATOM      4  C   UNL     1     -20.403  16.598  -8.011  0.00  0.00    +0.077 A 
ATOM      5  C   UNL     1     -19.714  15.778  -8.965  0.00  0.00    +0.048 A 
ATOM      6  C   UNL     1     -18.509  16.282  -9.505  0.00  0.00    +0.116 A 
ATOM      7  N   UNL     1     -18.038  17.516  -9.111  0.00  0.00    -0.223 NA
ATOM      8  C   UNL     1     -18.728  18.282  -8.190  0.00  0.00    +0.220 A 
ATOM      9  N   UNL     1     -18.268  19.522  -7.774  0.00  0.00    -0.283 N 
ATOM     36  H   UNL     1     -18.810  20.060  -7.098  0.00  0.00    +0.155 HD
ATOM     37  N   UNL     1     -19.881  17.824  -7.662  0.00  0.00    -0.214 NA
BRANCH   4   3
ATOM      1  C   UNL     1     -23.934  15.057  -7.337  0.00  0.00    +0.020 A 
ATOM      2  C   UNL     1     -22.712  15.413  -8.021  0.00  0.00    +0.013 A 
ATOM      3  C   UNL     1     -21.686  16.202  -7.350  0.00  0.00    +0.019 A 
ATOM     38  C   UNL     1     -21.929  16.617  -5.977  0.00  0.00    +0.120 A 
ATOM     39  N   UNL     1     -23.116  16.260  -5.344  0.00  0.00    -0.263 NA
ATOM     40  C   UNL     1     -24.111  15.503  -5.980  0.00  0.00    +0.111 A 
ENDBRANCH   4   3
ENDBRANCH  10   9
BRANCH  12  13
ATOM     13  N   UNL     1     -13.318  19.918  -7.462  0.00  0.00    -0.281 N 
ATOM     14  C   UNL     1     -12.641  20.652  -6.502  0.00  0.00    +0.248 C 
ATOM     30  O   UNL     1     -12.919  21.799  -6.186  0.00  0.00    -0.270 OA
ATOM     31  H   UNL     1     -12.868  19.055  -7.767  0.00  0.00    +0.155 HD
BRANCH  14  15
ATOM     15  C   UNL     1     -11.479  20.025  -5.802  0.00  0.00    +0.037 A 
ATOM     16  C   UNL     1     -11.617  18.752  -5.089  0.00  0.00    +0.013 A 
ATOM     17  C   UNL     1     -10.484  18.178  -4.408  0.00  0.00    +0.005 A 
ATOM     18  C   UNL     1      -9.201  18.877  -4.437  0.00  0.00    -0.033 A 
ATOM     28  C   UNL     1      -9.091  20.136  -5.156  0.00  0.00    +0.005 A 
ATOM     29  C   UNL     1     -10.200  20.702  -5.824  0.00  0.00    +0.013 A 
BRANCH  18  19
ATOM     19  C   UNL     1      -7.944  18.349  -3.720  0.00  0.00    +0.119 C 
BRANCH  19  20
ATOM     20  N   UNL     1      -7.028  19.360  -3.113  0.00  0.00    -0.302 NA
ATOM     21  C   UNL     1      -5.560  18.936  -3.210  0.00  0.00    +0.066 C 
ATOM     22  C   UNL     1      -4.614  20.016  -2.590  0.00  0.00    -0.064 C 
ATOM     23  N   UNL     1      -5.011  20.262  -1.134  0.00  0.00    +0.379 N 
ATOM     24  C   UNL     1      -4.087  21.234  -0.531  0.00  0.00    -0.096 C 
ATOM     25  H   UNL     1      -4.895  19.299  -0.584  0.00  0.00    -0.082 HD
ATOM     26  C   UNL     1      -6.470  20.682  -1.028  0.00  0.00    -0.064 C 
ATOM     27  C   UNL     1      -7.400  19.616  -1.673  0.00  0.00    +0.066 C 
ENDBRANCH  19  20
ENDBRANCH  18  19
ENDBRANCH  14  15
ENDBRANCH  12  13
TORSDOF 6
ENDMDL
MODEL 2
REMARK VINA RESULT:      -9.2      0.885      1.272
REMARK  Name = C:\Users\Docking\Desktop\test protocol\1iep_ligandH.pdb
REMARK  8 active torsions:
REMARK  status: ('A' for Active; 'I' for Inactive)
REMARK    1  A    between atoms: _5  and  _11
REMARK    2  A    between atoms: _19  and  _21
REMARK    3  A    between atoms: _22  and  _66
REMARK    4  A    between atoms: _27  and  _30
REMARK    5  A    between atoms: _32  and  _33
REMARK    6  A    between atoms: _38  and  _43
REMARK    7  A    between atoms: _43  and  _46
REMARK    8  A    between atoms: _53  and  _55
REMARK                            x       y       z     vdW  Elec       q    Type
REMARK                         _______ _______ _______ _____ _____    ______ ____
ROOT
ATOM     10  C   UNL     1     -16.963  20.029  -8.252  0.00  0.00    +0.038 A 
ATOM     11  C   UNL     1     -15.752  19.701  -7.590  0.00  0.00    +0.047 A 
ATOM     12  C   UNL     1     -14.474  20.208  -8.063  0.00  0.00    +0.035 A 
ATOM     32  C   UNL     1     -14.465  21.050  -9.213  0.00  0.00    +0.024 A 
ATOM     33  C   UNL     1     -15.686  21.393  -9.899  0.00  0.00    +0.007 A 
ATOM     34  C   UNL     1     -16.950  20.894  -9.438  0.00  0.00    -0.029 A 
ATOM     35  C   UNL     1     -18.226  21.289 -10.217  0.00  0.00    +0.045 C 
ENDROOT
BRANCH  10   9
ATOM      4  C   UNL     1     -20.334  16.620  -8.023  0.00  0.00    +0.077 A 
ATOM      5  C   UNL     1     -19.663  15.809  -8.997  0.00  0.00    +0.048 A 
ATOM      6  C   UNL     1     -18.457  16.308  -9.538  0.00  0.00    +0.116 A 
ATOM      7  N   UNL     1     -17.967  17.529  -9.128  0.00  0.00    -0.223 NA
ATOM      8  C   UNL     1     -18.640  18.287  -8.187  0.00  0.00    +0.220 A 
ATOM      9  N   UNL     1     -18.162  19.514  -7.754  0.00  0.00    -0.283 N 
ATOM     36  H   UNL     1     -18.691  20.047  -7.064  0.00  0.00    +0.155 HD
ATOM     37  N   UNL     1     -19.795  17.833  -7.657  0.00  0.00    -0.214 NA
BRANCH   4   3
ATOM      1  C   UNL     1     -23.873  15.100  -7.340  0.00  0.00    +0.020 A 
ATOM      2  C   UNL     1     -22.652  15.453  -8.028  0.00  0.00    +0.013 A 
ATOM      3  C   UNL     1     -21.616  16.228  -7.357  0.00  0.00    +0.019 A 
ATOM     38  C   UNL     1     -21.848  16.633  -5.979  0.00  0.00    +0.120 A 
ATOM     39  N   UNL     1     -23.034  16.280  -5.342  0.00  0.00    -0.263 NA
ATOM     40  C   UNL     1     -24.038  15.536  -5.978  0.00  0.00    +0.111 A 
ENDBRANCH   4   3
ENDBRANCH  10   9
BRANCH  12  13
ATOM     13  N   UNL     1     -13.212  19.902  -7.437  0.00  0.00    -0.281 N 
ATOM     14  C   UNL     1     -12.617  20.542  -6.361  0.00  0.00    +0.248 C 
ATOM     30  O   UNL     1     -12.983  21.616  -5.908  0.00  0.00    -0.270 OA
ATOM     31  H   UNL     1     -12.694  19.118  -7.834  0.00  0.00    +0.155 HD
BRANCH  14  15
ATOM     15  C   UNL     1     -11.437  19.904  -5.704  0.00  0.00    +0.037 A 
ATOM     16  C   UNL     1     -10.098  20.490  -5.811  0.00  0.00    +0.013 A 
ATOM     17  C   UNL     1      -8.973  19.845  -5.181  0.00  0.00    +0.005 A 
ATOM     18  C   UNL     1      -9.183  18.605  -4.437  0.00  0.00    -0.033 A 
ATOM     28  C   UNL     1     -10.523  18.048  -4.342  0.00  0.00    +0.005 A 
ATOM     29  C   UNL     1     -11.627  18.677  -4.959  0.00  0.00    +0.013 A 
BRANCH  18  19
ATOM     19  C   UNL     1      -8.038  17.837  -3.751  0.00  0.00    +0.119 C 
BRANCH  19  20
ATOM     20  N   UNL     1      -7.563  18.352  -2.432  0.00  0.00    -0.302 NA
ATOM     21  C   UNL     1      -6.319  19.233  -2.573  0.00  0.00    +0.066 C 
ATOM     22  C   UNL     1      -5.849  19.782  -1.187  0.00  0.00    -0.064 C 
ATOM     23  N   UNL     1      -5.578  18.609  -0.243  0.00  0.00    +0.379 N 
ATOM     24  C   UNL     1      -5.080  19.119   1.043  0.00  0.00    -0.096 C 
ATOM     25  H   UNL     1      -4.769  17.990  -0.697  0.00  0.00    -0.082 HD
ATOM     26  C   UNL     1      -6.809  17.726  -0.099  0.00  0.00    -0.064 C 
ATOM     27  C   UNL     1      -7.285  17.211  -1.485  0.00  0.00    +0.066 C 
ENDBRANCH  19  20
ENDBRANCH  18  19
ENDBRANCH  14  15
ENDBRANCH  12  13
TORSDOF 6
ENDMDL
MODEL 3
REMARK VINA RESULT:      -9.1      2.264     12.647
REMARK  Name = C:\Users\Docking\Desktop\test protocol\1iep_ligandH.pdb
REMARK  8 active torsions:
REMARK  status: ('A' for Active; 'I' for Inactive)
REMARK    1  A    between atoms: _5  and  _11
REMARK    2  A    between atoms: _19  and  _21
REMARK    3  A    between atoms: _22  and  _66
REMARK    4  A    between atoms: _27  and  _30
REMARK    5  A    between atoms: _32  and  _33
REMARK    6  A    between atoms: _38  and  _43
REMARK    7  A    between atoms: _43  and  _46
REMARK    8  A    between atoms: _53  and  _55
REMARK                            x       y       z     vdW  Elec       q    Type
REMARK                         _______ _______ _______ _____ _____    ______ ____
ROOT
ATOM     10  C   UNL     1     -13.838  21.435  -8.862  0.00  0.00    +0.038 A 
ATOM     11  C   UNL     1     -14.932  20.556  -8.653  0.00  0.00    +0.047 A 
ATOM     12  C   UNL     1     -16.247  20.848  -9.203  0.00  0.00    +0.035 A 
ATOM     32  C   UNL     1     -16.411  22.043  -9.963  0.00  0.00    +0.024 A 
ATOM     33  C   UNL     1     -15.311  22.947 -10.183  0.00  0.00    +0.007 A 
ATOM     34  C   UNL     1     -14.012  22.666  -9.642  0.00  0.00    -0.029 A 
ATOM     35  C   UNL     1     -12.870  23.675  -9.904  0.00  0.00    +0.045 C 
ENDROOT
BRANCH  10   9
ATOM      4  C   UNL     1     -10.683  21.419  -5.245  0.00  0.00    +0.077 A 
ATOM      5  C   UNL     1     -11.570  22.152  -4.389  0.00  0.00    +0.048 A 
ATOM      6  C   UNL     1     -12.826  22.521  -4.921  0.00  0.00    +0.116 A 
ATOM      7  N   UNL     1     -13.160  22.176  -6.212  0.00  0.00    -0.223 NA
ATOM      8  C   UNL     1     -12.280  21.470  -7.012  0.00  0.00    +0.220 A 
ATOM      9  N   UNL     1     -12.598  21.105  -8.311  0.00  0.00    -0.283 N 
ATOM     36  H   UNL     1     -11.918  20.591  -8.871  0.00  0.00    +0.155 HD
ATOM     37  N   UNL     1     -11.074  21.107  -6.528  0.00  0.00    -0.214 NA
BRANCH   4   3
ATOM      1  C   UNL     1      -7.540  19.186  -4.583  0.00  0.00    +0.020 A 
ATOM      2  C   UNL     1      -8.864  19.583  -5.003  0.00  0.00    +0.013 A 
ATOM      3  C   UNL     1      -9.322  20.955  -4.827  0.00  0.00    +0.019 A 
ATOM     38  C   UNL     1      -8.408  21.910  -4.219  0.00  0.00    +0.120 A 
ATOM     39  N   UNL     1      -7.139  21.499  -3.822  0.00  0.00    -0.263 NA
ATOM     40  C   UNL     1      -6.688  20.181  -3.985  0.00  0.00    +0.111 A 
ENDBRANCH   4   3
ENDBRANCH  10   9
BRANCH  12  13
ATOM     13  N   UNL     1     -17.397  19.998  -9.018  0.00  0.00    -0.281 N 
ATOM     14  C   UNL     1     -18.171  19.388  -9.991  0.00  0.00    +0.248 C 
ATOM     30  O   UNL     1     -18.120  19.655 -11.182  0.00  0.00    -0.270 OA
ATOM     31  H   UNL     1     -17.673  19.824  -8.051  0.00  0.00    +0.155 HD
BRANCH  14  15
ATOM     15  C   UNL     1     -19.153  18.339  -9.580  0.00  0.00    +0.037 A 
ATOM     16  C   UNL     1     -18.798  16.918  -9.593  0.00  0.00    +0.013 A 
ATOM     17  C   UNL     1     -19.770  15.926  -9.208  0.00  0.00    +0.005 A 
ATOM     18  C   UNL     1     -21.108  16.353  -8.806  0.00  0.00    -0.033 A 
ATOM     28  C   UNL     1     -21.433  17.770  -8.798  0.00  0.00    +0.005 A 
ATOM     29  C   UNL     1     -20.482  18.745  -9.175  0.00  0.00    +0.013 A 
BRANCH  18  19
ATOM     19  C   UNL     1     -22.216  15.362  -8.400  0.00  0.00    +0.119 C 
BRANCH  19  20
ATOM     20  N   UNL     1     -23.168  15.799  -7.336  0.00  0.00    -0.302 NA
ATOM     21  C   UNL     1     -22.520  15.793  -5.948  0.00  0.00    +0.066 C 
ATOM     22  C   UNL     1     -23.523  16.275  -4.850  0.00  0.00    -0.064 C 
ATOM     23  N   UNL     1     -24.765  15.382  -4.871  0.00  0.00    +0.379 N 
ATOM     24  C   UNL     1     -25.685  15.796  -3.801  0.00  0.00    -0.096 C 
ATOM     25  H   UNL     1     -24.437  14.340  -4.651  0.00  0.00    -0.082 HD
ATOM     26  C   UNL     1     -25.414  15.380  -6.248  0.00  0.00    -0.064 C 
ATOM     27  C   UNL     1     -24.400  14.929  -7.336  0.00  0.00    +0.066 C 
ENDBRANCH  19  20
ENDBRANCH  18  19
ENDBRANCH  14  15
ENDBRANCH  12  13
TORSDOF 6
ENDMDL
MODEL 4
REMARK VINA RESULT:      -8.9      3.989     12.382
REMARK  Name = C:\Users\Docking\Desktop\test protocol\1iep_ligandH.pdb
REMARK  8 active torsions:
REMARK  status: ('A' for Active; 'I' for Inactive)
REMARK    1  A    between atoms: _5  and  _11
REMARK    2  A    between atoms: _19  and  _21
REMARK    3  A    between atoms: _22  and  _66
REMARK    4  A    between atoms: _27  and  _30
REMARK    5  A    between atoms: _32  and  _33
REMARK    6  A    between atoms: _38  and  _43
REMARK    7  A    between atoms: _43  and  _46
REMARK    8  A    between atoms: _53  and  _55
REMARK                            x       y       z     vdW  Elec       q    Type
REMARK                         _______ _______ _______ _____ _____    ______ ____
ROOT
ATOM     10  C   UNL     1      -9.279  17.584  -4.082  0.00  0.00    +0.038 A 
ATOM     11  C   UNL     1     -10.553  17.817  -4.661  0.00  0.00    +0.047 A 
ATOM     12  C   UNL     1     -11.141  19.147  -4.676  0.00  0.00    +0.035 A 
ATOM     32  C   UNL     1     -10.402  20.219  -4.095  0.00  0.00    +0.024 A 
ATOM     33  C   UNL     1      -9.106  20.000  -3.501  0.00  0.00    +0.007 A 
ATOM     34  C   UNL     1      -8.523  18.689  -3.481  0.00  0.00    -0.029 A 
ATOM     35  C   UNL     1      -7.133  18.511  -2.826  0.00  0.00    +0.045 C 
ENDROOT
BRANCH  10   9
ATOM      4  C   UNL     1      -8.395  13.358  -1.984  0.00  0.00    +0.077 A 
ATOM      5  C   UNL     1      -8.989  13.781  -0.748  0.00  0.00    +0.048 A 
ATOM      6  C   UNL     1      -9.504  15.095  -0.692  0.00  0.00    +0.116 A 
ATOM      7  N   UNL     1      -9.426  15.917  -1.795  0.00  0.00    -0.223 NA
ATOM      8  C   UNL     1      -8.845  15.479  -2.971  0.00  0.00    +0.220 A 
ATOM      9  N   UNL     1      -8.763  16.286  -4.095  0.00  0.00    -0.283 N 
ATOM     36  H   UNL     1      -8.320  15.928  -4.941  0.00  0.00    +0.155 HD
ATOM     37  N   UNL     1      -8.345  14.229  -3.050  0.00  0.00    -0.214 NA
BRANCH   4   3
ATOM      1  C   UNL     1      -7.419   9.927  -3.588  0.00  0.00    +0.020 A 
ATOM      2  C   UNL     1      -8.006  11.237  -3.429  0.00  0.00    +0.013 A 
ATOM      3  C   UNL     1      -7.810  11.997  -2.201  0.00  0.00    +0.019 A 
ATOM     38  C   UNL     1      -7.008  11.399  -1.145  0.00  0.00    +0.120 A 
ATOM     39  N   UNL     1      -6.456  10.134  -1.326  0.00  0.00    -0.263 NA
ATOM     40  C   UNL     1      -6.639   9.393  -2.502  0.00  0.00    +0.111 A 
ENDBRANCH   4   3
ENDBRANCH  10   9
BRANCH  12  13
ATOM     13  N   UNL     1     -12.434  19.443  -5.242  0.00  0.00    -0.281 N 
ATOM     14  C   UNL     1     -12.719  20.207  -6.361  0.00  0.00    +0.248 C 
ATOM     30  O   UNL     1     -11.914  20.932  -6.926  0.00  0.00    -0.270 OA
ATOM     31  H   UNL     1     -13.236  19.039  -4.758  0.00  0.00    +0.155 HD
BRANCH  14  15
ATOM     15  C   UNL     1     -14.102  20.171  -6.927  0.00  0.00    +0.037 A 
ATOM     16  C   UNL     1     -15.248  19.770  -6.107  0.00  0.00    +0.013 A 
ATOM     17  C   UNL     1     -16.569  19.728  -6.682  0.00  0.00    +0.005 A 
ATOM     18  C   UNL     1     -16.751  20.089  -8.086  0.00  0.00    -0.033 A 
ATOM     28  C   UNL     1     -15.597  20.487  -8.875  0.00  0.00    +0.005 A 
ATOM     29  C   UNL     1     -14.300  20.529  -8.315  0.00  0.00    +0.013 A 
BRANCH  18  19
ATOM     19  C   UNL     1     -18.121  20.052  -8.789  0.00  0.00    +0.119 C 
BRANCH  19  20
ATOM     20  N   UNL     1     -19.005  18.883  -8.502  0.00  0.00    -0.302 NA
ATOM     21  C   UNL     1     -18.360  17.558  -8.921  0.00  0.00    +0.066 C 
ATOM     22  C   UNL     1     -19.289  16.344  -8.594  0.00  0.00    -0.064 C 
ATOM     23  N   UNL     1     -20.637  16.535  -9.290  0.00  0.00    +0.379 N 
ATOM     24  C   UNL     1     -21.493  15.367  -9.031  0.00  0.00    -0.096 C 
ATOM     25  H   UNL     1     -20.448  16.578 -10.388  0.00  0.00    -0.082 HD
ATOM     26  C   UNL     1     -21.284  17.850  -8.881  0.00  0.00    -0.064 C 
ATOM     27  C   UNL     1     -20.341  19.048  -9.184  0.00  0.00    +0.066 C 
ENDBRANCH  19  20
ENDBRANCH  18  19
ENDBRANCH  14  15
ENDBRANCH  12  13
TORSDOF 6
ENDMDL
MODEL 5
REMARK VINA RESULT:      -8.8      1.952      3.313
REMARK  Name = C:\Users\Docking\Desktop\test protocol\1iep_ligandH.pdb
REMARK  8 active torsions:
REMARK  status: ('A' for Active; 'I' for Inactive)
REMARK    1  A    between atoms: _5  and  _11
REMARK    2  A    between atoms: _19  and  _21
REMARK    3  A    between atoms: _22  and  _66
REMARK    4  A    between atoms: _27  and  _30
REMARK    5  A    between atoms: _32  and  _33
REMARK    6  A    between atoms: _38  and  _43
REMARK    7  A    between atoms: _43  and  _46
REMARK    8  A    between atoms: _53  and  _55
REMARK                            x       y       z     vdW  Elec       q    Type
REMARK                         _______ _______ _______ _____ _____    ______ ____
ROOT
ATOM     10  C   UNL     1     -14.228  20.366  -8.336  0.00  0.00    +0.038 A 
ATOM     11  C   UNL     1     -13.140  20.230  -7.436  0.00  0.00    +0.047 A 
ATOM     12  C   UNL     1     -12.114  21.256  -7.336  0.00  0.00    +0.035 A 
ATOM     32  C   UNL     1     -12.228  22.409  -8.167  0.00  0.00    +0.024 A 
ATOM     33  C   UNL     1     -13.326  22.562  -9.088  0.00  0.00    +0.007 A 
ATOM     34  C   UNL     1     -14.340  21.553  -9.192  0.00  0.00    -0.029 A 
ATOM     35  C   UNL     1     -15.492  21.767 -10.202  0.00  0.00    +0.045 C 
ENDROOT
BRANCH  10   9
ATOM      4  C   UNL     1     -18.533  18.545  -7.246  0.00  0.00    +0.077 A 
ATOM      5  C   UNL     1     -18.895  19.703  -6.482  0.00  0.00    +0.048 A 
ATOM      6  C   UNL     1     -17.943  20.742  -6.387  0.00  0.00    +0.116 A 
ATOM      7  N   UNL     1     -16.722  20.621  -7.015  0.00  0.00    -0.223 NA
ATOM      8  C   UNL     1     -16.404  19.490  -7.744  0.00  0.00    +0.220 A 
ATOM      9  N   UNL     1     -15.185  19.350  -8.390  0.00  0.00    -0.283 N 
ATOM     36  H   UNL     1     -14.986  18.497  -8.911  0.00  0.00    +0.155 HD
ATOM     37  N   UNL     1     -17.296  18.483  -7.848  0.00  0.00    -0.214 NA
BRANCH   4   3
ATOM      1  C   UNL     1     -20.423  15.515  -8.842  0.00  0.00    +0.020 A 
ATOM      2  C   UNL     1     -19.539  16.649  -8.707  0.00  0.00    +0.013 A 
ATOM      3  C   UNL     1     -19.433  17.364  -7.441  0.00  0.00    +0.019 A 
ATOM     38  C   UNL     1     -20.243  16.903  -6.324  0.00  0.00    +0.120 A 
ATOM     39  N   UNL     1     -21.087  15.808  -6.484  0.00  0.00    -0.263 NA
ATOM     40  C   UNL     1     -21.198  15.113  -7.698  0.00  0.00    +0.111 A 
ENDBRANCH   4   3
ENDBRANCH  10   9
BRANCH  12  13
ATOM     13  N   UNL     1     -10.982  21.170  -6.446  0.00  0.00    -0.281 N 
ATOM     14  C   UNL     1     -10.590  20.092  -5.669  0.00  0.00    +0.248 C 
ATOM     30  O   UNL     1     -11.280  19.105  -5.458  0.00  0.00    -0.270 OA
ATOM     31  H   UNL     1     -10.399  22.004  -6.382  0.00  0.00    +0.155 HD
BRANCH  14  15
ATOM     15  C   UNL     1      -9.244  20.121  -5.021  0.00  0.00    +0.037 A 
ATOM     16  C   UNL     1      -8.635  21.381  -4.589  0.00  0.00    +0.013 A 
ATOM     17  C   UNL     1      -7.328  21.382  -3.982  0.00  0.00    +0.005 A 
ATOM     18  C   UNL     1      -6.620  20.117  -3.803  0.00  0.00    -0.033 A 
ATOM     28  C   UNL     1      -7.250  18.880  -4.236  0.00  0.00    +0.005 A 
ATOM     29  C   UNL     1      -8.531  18.875  -4.832  0.00  0.00    +0.013 A 
BRANCH  18  19
ATOM     19  C   UNL     1      -5.213  20.026  -3.184  0.00  0.00    +0.119 C 
BRANCH  19  20
ATOM     20  N   UNL     1      -4.566  21.305  -2.766  0.00  0.00    -0.302 NA
ATOM     21  C   UNL     1      -3.633  21.858  -3.848  0.00  0.00    +0.066 C 
ATOM     22  C   UNL     1      -2.982  23.208  -3.403  0.00  0.00    -0.064 C 
ATOM     23  N   UNL     1      -2.225  22.997  -2.091  0.00  0.00    +0.379 N 
ATOM     24  C   UNL     1      -1.563  24.251  -1.700  0.00  0.00    -0.096 C 
ATOM     25  H   UNL     1      -1.429  22.239  -2.278  0.00  0.00    -0.082 HD
ATOM     26  C   UNL     1      -3.144  22.445  -1.010  0.00  0.00    -0.064 C 
ATOM     27  C   UNL     1      -3.808  21.119  -1.474  0.00  0.00    +0.066 C 
ENDBRANCH  19  20
ENDBRANCH  18  19
ENDBRANCH  14  15
ENDBRANCH  12  13
TORSDOF 6
ENDMDL
