MODEL 1
REMARK VINA RESULT:      -9.8      0.000      0.000
REMARK  Name = C:\Users\Docking\Desktop\test protocol\1iep_ligandH.pdb
REMARK  8 active torsions:
REMARK  status: ('A' for Active; 'I' for Inactive)
REMARK    1  A    between atoms: _5  and  _11
REMARK    2  A    between atoms: _19  and  _21
REMARK    3  A    between atoms: _22  and  _66
REMARK    4  A    between atoms: _27  and  _30
REMARK    5  A    between atoms: _32  and  _33
REMARK    6  A    between atoms: _38  and  _43
REMARK    7  A    between atoms: _43  and  _46
REMARK    8  A    between atoms: _53  and  _55
REMARK                            x       y       z     vdW  Elec       q    Type
REMARK                         _______ _______ _______ _____ _____    ______ ____
ROOT
ATOM     10  C   UNL     1      51.176  37.134  54.277  0.00  0.00    +0.038 A 
ATOM     11  C   UNL     1      51.377  36.262  55.377  0.00  0.00    +0.047 A 
ATOM     12  C   UNL     1      52.399  36.533  56.376  0.00  0.00    +0.035 A 
ATOM     32  C   UNL     1      53.199  37.703  56.223  0.00  0.00    +0.024 A 
ATOM     33  C   UNL     1      53.010  38.600  55.111  0.00  0.00    +0.007 A 
ATOM     34  C   UNL     1      52.004  38.337  54.121  0.00  0.00    -0.029 A 
ATOM     35  C   UNL     1      51.850  39.329  52.945  0.00  0.00    +0.045 C 
ENDROOT
BRANCH  10   9
ATOM      4  C   UNL     1      49.704  35.231  50.124  0.00  0.00    +0.077 A 
ATOM      5  C   UNL     1      51.036  34.842  49.762  0.00  0.00    +0.048 A 
ATOM      6  C   UNL     1      52.073  35.156  50.669  0.00  0.00    +0.116 A 
ATOM      7  N   UNL     1      51.787  35.811  51.847  0.00  0.00    -0.223 NA
ATOM      8  C   UNL     1      50.491  36.174  52.165  0.00  0.00    +0.220 A 
ATOM      9  N   UNL     1      50.180  36.826  53.348  0.00  0.00    -0.283 N 
ATOM     36  H   UNL     1      49.213  37.084  53.542  0.00  0.00    +0.155 HD
ATOM     37  N   UNL     1      49.484  35.886  51.315  0.00  0.00    -0.214 NA
BRANCH   4   3
ATOM      1  C   UNL     1      47.053  33.465  47.853  0.00  0.00    +0.020 A 
ATOM      2  C   UNL     1      48.229  33.668  48.668  0.00  0.00    +0.013 A 
ATOM      3  C   UNL     1      48.501  34.966  49.272  0.00  0.00    +0.019 A 
ATOM     38  C   UNL     1      47.556  36.046  49.031  0.00  0.00    +0.120 A 
ATOM     39  N   UNL     1      46.433  35.822  48.242  0.00  0.00    -0.263 NA
ATOM     40  C   UNL     1      46.161  34.577  47.654  0.00  0.00    +0.111 A 
ENDBRANCH   4   3
ENDBRANCH  10   9
BRANCH  12  13
ATOM     13  N   UNL     1      52.654  35.679  57.510  0.00  0.00    -0.281 N 
ATOM     14  C   UNL     1      51.885  35.530  58.652  0.00  0.00    +0.248 C 
ATOM     30  O   UNL     1      50.967  36.272  58.970  0.00  0.00    -0.270 OA
ATOM     31  H   UNL     1      53.504  35.117  57.464  0.00  0.00    +0.155 HD
BRANCH  14  15
ATOM     15  C   UNL     1      52.190  34.403  59.585  0.00  0.00    +0.037 A 
ATOM     16  C   UNL     1      51.792  33.028  59.272  0.00  0.00    +0.013 A 
ATOM     17  C   UNL     1      52.084  31.962  60.197  0.00  0.00    +0.005 A 
ATOM     18  C   UNL     1      52.779  32.267  61.445  0.00  0.00    -0.033 A 
ATOM     28  C   UNL     1      53.166  33.639  61.729  0.00  0.00    +0.005 A 
ATOM     29  C   UNL     1      52.882  34.687  60.825  0.00  0.00    +0.013 A 
BRANCH  18  19
ATOM     19  C   UNL     1      53.112  31.196  62.501  0.00  0.00    +0.119 C 
BRANCH  19  20
ATOM     20  N   UNL     1      52.673  29.797  62.217  0.00  0.00    -0.302 NA
ATOM     21  C   UNL     1      51.400  29.427  62.984  0.00  0.00    +0.066 C 
ATOM     22  C   UNL     1      50.943  27.968  62.658  0.00  0.00    -0.064 C 
ATOM     23  N   UNL     1      52.077  26.995  62.988  0.00  0.00    +0.379 N 
ATOM     24  C   UNL     1      51.629  25.617  62.737  0.00  0.00    -0.096 C 
ATOM     25  H   UNL     1      52.294  27.087  64.078  0.00  0.00    -0.082 HD
ATOM     26  C   UNL     1      53.347  27.357  62.231  0.00  0.00    -0.064 C 
ATOM     27  C   UNL     1      53.776  28.819  62.540  0.00  0.00    +0.066 C 
ENDBRANCH  19  20
ENDBRANCH  18  19
ENDBRANCH  14  15
ENDBRANCH  12  13
TORSDOF 6
ENDMDL
MODEL 2
REMARK VINA RESULT:      -8.9      9.720     15.177
REMARK  Name = C:\Users\Docking\Desktop\test protocol\1iep_ligandH.pdb
REMARK  8 active torsions:
REMARK  status: ('A' for Active; 'I' for Inactive)
REMARK    1  A    between atoms: _5  and  _11
REMARK    2  A    between atoms: _19  and  _21
REMARK    3  A    between atoms: _22  and  _66
REMARK    4  A    between atoms: _27  and  _30
REMARK    5  A    between atoms: _32  and  _33
REMARK    6  A    between atoms: _38  and  _43
REMARK    7  A    between atoms: _43  and  _46
REMARK    8  A    between atoms: _53  and  _55
REMARK                            x       y       z     vdW  Elec       q    Type
REMARK                         _______ _______ _______ _____ _____    ______ ____
ROOT
ATOM     10  C   UNL     1      45.514  19.751  58.272  0.00  0.00    +0.038 A 
ATOM     11  C   UNL     1      46.247  20.965  58.241  0.00  0.00    +0.047 A 
ATOM     12  C   UNL     1      47.500  21.107  58.966  0.00  0.00    +0.035 A 
ATOM     32  C   UNL     1      47.979  19.990  59.711  0.00  0.00    +0.024 A 
ATOM     33  C   UNL     1      47.247  18.749  59.755  0.00  0.00    +0.007 A 
ATOM     34  C   UNL     1      46.009  18.604  59.044  0.00  0.00    -0.029 A 
ATOM     35  C   UNL     1      45.263  17.252  59.131  0.00  0.00    +0.045 C 
ENDROOT
BRANCH  10   9
ATOM      4  C   UNL     1      40.759  20.291  57.904  0.00  0.00    +0.077 A 
ATOM      5  C   UNL     1      40.647  20.748  59.259  0.00  0.00    +0.048 A 
ATOM      6  C   UNL     1      41.835  20.822  60.020  0.00  0.00    +0.116 A 
ATOM      7  N   UNL     1      43.041  20.465  59.456  0.00  0.00    -0.223 NA
ATOM      8  C   UNL     1      43.114  20.027  58.147  0.00  0.00    +0.220 A 
ATOM      9  N   UNL     1      44.317  19.670  57.557  0.00  0.00    -0.283 N 
ATOM     36  H   UNL     1      44.328  19.345  56.591  0.00  0.00    +0.155 HD
ATOM     37  N   UNL     1      41.993  19.945  57.400  0.00  0.00    -0.214 NA
BRANCH   4   3
ATOM      1  C   UNL     1      38.493  20.424  54.718  0.00  0.00    +0.020 A 
ATOM      2  C   UNL     1      39.647  20.571  55.575  0.00  0.00    +0.013 A 
ATOM      3  C   UNL     1      39.594  20.161  56.973  0.00  0.00    +0.019 A 
ATOM     38  C   UNL     1      38.349  19.600  57.476  0.00  0.00    +0.120 A 
ATOM     39  N   UNL     1      37.254  19.472  56.627  0.00  0.00    -0.263 NA
ATOM     40  C   UNL     1      37.293  19.865  55.281  0.00  0.00    +0.111 A 
ENDBRANCH   4   3
ENDBRANCH  10   9
BRANCH  12  13
ATOM     13  N   UNL     1      48.283  22.317  58.978  0.00  0.00    -0.281 N 
ATOM     14  C   UNL     1      48.349  23.279  59.973  0.00  0.00    +0.248 C 
ATOM     30  O   UNL     1      47.577  23.351  60.917  0.00  0.00    -0.270 OA
ATOM     31  H   UNL     1      48.858  22.486  58.153  0.00  0.00    +0.155 HD
BRANCH  14  15
ATOM     15  C   UNL     1      49.419  24.320  59.900  0.00  0.00    +0.037 A 
ATOM     16  C   UNL     1      50.561  24.175  58.994  0.00  0.00    +0.013 A 
ATOM     17  C   UNL     1      51.587  25.186  58.956  0.00  0.00    +0.005 A 
ATOM     18  C   UNL     1      51.475  26.353  59.828  0.00  0.00    -0.033 A 
ATOM     28  C   UNL     1      50.329  26.475  60.714  0.00  0.00    +0.005 A 
ATOM     29  C   UNL     1      49.322  25.485  60.754  0.00  0.00    +0.013 A 
BRANCH  18  19
ATOM     19  C   UNL     1      52.535  27.471  59.869  0.00  0.00    +0.119 C 
BRANCH  19  20
ATOM     20  N   UNL     1      52.275  28.625  60.781  0.00  0.00    -0.302 NA
ATOM     21  C   UNL     1      52.561  29.968  60.102  0.00  0.00    +0.066 C 
ATOM     22  C   UNL     1      52.263  31.165  61.062  0.00  0.00    -0.064 C 
ATOM     23  N   UNL     1      53.097  31.014  62.336  0.00  0.00    +0.379 N 
ATOM     24  C   UNL     1      52.862  32.168  63.216  0.00  0.00    -0.096 C 
ATOM     25  H   UNL     1      54.171  31.026  62.040  0.00  0.00    -0.082 HD
ATOM     26  C   UNL     1      52.821  29.680  63.015  0.00  0.00    -0.064 C 
ATOM     27  C   UNL     1      53.092  28.498  62.043  0.00  0.00    +0.066 C 
ENDBRANCH  19  20
ENDBRANCH  18  19
ENDBRANCH  14  15
ENDBRANCH  12  13
TORSDOF 6
ENDMDL
MODEL 3
REMARK VINA RESULT:      -8.9      7.937     12.065
REMARK  Name = C:\Users\Docking\Desktop\test protocol\1iep_ligandH.pdb
REMARK  8 active torsions:
REMARK  status: ('A' for Active; 'I' for Inactive)
REMARK    1  A    between atoms: _5  and  _11
REMARK    2  A    between atoms: _19  and  _21
REMARK    3  A    between atoms: _22  and  _66
REMARK    4  A    between atoms: _27  and  _30
REMARK    5  A    between atoms: _32  and  _33
REMARK    6  A    between atoms: _38  and  _43
REMARK    7  A    between atoms: _43  and  _46
REMARK    8  A    between atoms: _53  and  _55
REMARK                            x       y       z     vdW  Elec       q    Type
REMARK                         _______ _______ _______ _____ _____    ______ ____
ROOT
ATOM     10  C   UNL     1      49.612  39.614  52.992  0.00  0.00    +0.038 A 
ATOM     11  C   UNL     1      48.873  38.572  52.376  0.00  0.00    +0.047 A 
ATOM     12  C   UNL     1      49.500  37.304  52.035  0.00  0.00    +0.035 A 
ATOM     32  C   UNL     1      50.882  37.131  52.337  0.00  0.00    +0.024 A 
ATOM     33  C   UNL     1      51.649  38.180  52.962  0.00  0.00    +0.007 A 
ATOM     34  C   UNL     1      51.036  39.433  53.299  0.00  0.00    -0.029 A 
ATOM     35  C   UNL     1      51.909  40.525  53.962  0.00  0.00    +0.045 C 
ENDROOT
BRANCH  10   9
ATOM      4  C   UNL     1      48.197  44.065  51.889  0.00  0.00    +0.077 A 
ATOM      5  C   UNL     1      48.834  44.013  50.605  0.00  0.00    +0.048 A 
ATOM      6  C   UNL     1      49.521  42.825  50.269  0.00  0.00    +0.116 A 
ATOM      7  N   UNL     1      49.562  41.774  51.159  0.00  0.00    -0.223 NA
ATOM      8  C   UNL     1      48.938  41.858  52.391  0.00  0.00    +0.220 A 
ATOM      9  N   UNL     1      48.960  40.810  53.298  0.00  0.00    -0.283 N 
ATOM     36  H   UNL     1      48.494  40.914  54.199  0.00  0.00    +0.155 HD
ATOM     37  N   UNL     1      48.276  42.982  52.736  0.00  0.00    -0.214 NA
BRANCH   4   3
ATOM      1  C   UNL     1      45.301  46.574  52.679  0.00  0.00    +0.020 A 
ATOM      2  C   UNL     1      45.995  45.411  52.177  0.00  0.00    +0.013 A 
ATOM      3  C   UNL     1      47.429  45.250  52.387  0.00  0.00    +0.019 A 
ATOM     38  C   UNL     1      48.136  46.293  53.115  0.00  0.00    +0.120 A 
ATOM     39  N   UNL     1      47.441  47.403  53.586  0.00  0.00    -0.263 NA
ATOM     40  C   UNL     1      46.062  47.569  53.388  0.00  0.00    +0.111 A 
ENDBRANCH   4   3
ENDBRANCH  10   9
BRANCH  12  13
ATOM     13  N   UNL     1      48.802  36.213  51.401  0.00  0.00    -0.281 N 
ATOM     14  C   UNL     1      48.346  36.138  50.095  0.00  0.00    +0.248 C 
ATOM     30  O   UNL     1      48.281  37.088  49.330  0.00  0.00    -0.270 OA
ATOM     31  H   UNL     1      48.622  35.397  51.987  0.00  0.00    +0.155 HD
BRANCH  14  15
ATOM     15  C   UNL     1      47.882  34.819  49.567  0.00  0.00    +0.037 A 
ATOM     16  C   UNL     1      48.722  34.021  48.670  0.00  0.00    +0.013 A 
ATOM     17  C   UNL     1      48.243  32.760  48.162  0.00  0.00    +0.005 A 
ATOM     18  C   UNL     1      46.916  32.288  48.552  0.00  0.00    -0.033 A 
ATOM     28  C   UNL     1      46.106  33.097  49.448  0.00  0.00    +0.005 A 
ATOM     29  C   UNL     1      46.572  34.334  49.947  0.00  0.00    +0.013 A 
BRANCH  18  19
ATOM     19  C   UNL     1      46.316  30.965  48.041  0.00  0.00    +0.119 C 
BRANCH  19  20
ATOM     20  N   UNL     1      46.685  30.534  46.660  0.00  0.00    -0.302 NA
ATOM     21  C   UNL     1      46.048  31.426  45.590  0.00  0.00    +0.066 C 
ATOM     22  C   UNL     1      46.464  30.976  44.152  0.00  0.00    -0.064 C 
ATOM     23  N   UNL     1      46.067  29.513  43.944  0.00  0.00    +0.379 N 
ATOM     24  C   UNL     1      46.403  29.104  42.573  0.00  0.00    -0.096 C 
ATOM     25  H   UNL     1      44.959  29.445  44.056  0.00  0.00    -0.082 HD
ATOM     26  C   UNL     1      46.694  28.620  45.005  0.00  0.00    -0.064 C 
ATOM     27  C   UNL     1      46.298  29.094  46.431  0.00  0.00    +0.066 C 
ENDBRANCH  19  20
ENDBRANCH  18  19
ENDBRANCH  14  15
ENDBRANCH  12  13
TORSDOF 6
ENDMDL
MODEL 4
REMARK VINA RESULT:      -8.4      6.665      9.037
REMARK  Name = C:\Users\Docking\Desktop\test protocol\1iep_ligandH.pdb
REMARK  8 active torsions:
REMARK  status: ('A' for Active; 'I' for Inactive)
REMARK    1  A    between atoms: _5  and  _11
REMARK    2  A    between atoms: _19  and  _21
REMARK    3  A    between atoms: _22  and  _66
REMARK    4  A    between atoms: _27  and  _30
REMARK    5  A    between atoms: _32  and  _33
REMARK    6  A    between atoms: _38  and  _43
REMARK    7  A    between atoms: _43  and  _46
REMARK    8  A    between atoms: _53  and  _55
REMARK                            x       y       z     vdW  Elec       q    Type
REMARK                         _______ _______ _______ _____ _____    ______ ____
ROOT
ATOM     10  C   UNL     1      50.561  26.061  48.918  0.00  0.00    +0.038 A 
ATOM     11  C   UNL     1      50.652  25.786  50.306  0.00  0.00    +0.047 A 
ATOM     12  C   UNL     1      51.721  24.957  50.841  0.00  0.00    +0.035 A 
ATOM     32  C   UNL     1      52.683  24.427  49.933  0.00  0.00    +0.024 A 
ATOM     33  C   UNL     1      52.606  24.696  48.518  0.00  0.00    +0.007 A 
ATOM     34  C   UNL     1      51.551  25.510  47.985  0.00  0.00    -0.029 A 
ATOM     35  C   UNL     1      51.513  25.759  46.459  0.00  0.00    +0.045 C 
ENDROOT
BRANCH  10   9
ATOM      4  C   UNL     1      48.688  30.326  47.761  0.00  0.00    +0.077 A 
ATOM      5  C   UNL     1      49.890  31.019  48.127  0.00  0.00    +0.048 A 
ATOM      6  C   UNL     1      50.964  30.242  48.615  0.00  0.00    +0.116 A 
ATOM      7  N   UNL     1      50.835  28.874  48.725  0.00  0.00    -0.223 NA
ATOM      8  C   UNL     1      49.662  28.237  48.365  0.00  0.00    +0.220 A 
ATOM      9  N   UNL     1      49.513  26.862  48.459  0.00  0.00    -0.283 N 
ATOM     36  H   UNL     1      48.629  26.431  48.191  0.00  0.00    +0.155 HD
ATOM     37  N   UNL     1      48.621  28.957  47.897  0.00  0.00    -0.214 NA
BRANCH   4   3
ATOM      1  C   UNL     1      46.223  32.293  45.448  0.00  0.00    +0.020 A 
ATOM      2  C   UNL     1      47.427  31.648  45.918  0.00  0.00    +0.013 A 
ATOM      3  C   UNL     1      47.467  31.008  47.226  0.00  0.00    +0.019 A 
ATOM     38  C   UNL     1      46.262  31.036  48.040  0.00  0.00    +0.120 A 
ATOM     39  N   UNL     1      45.117  31.665  47.562  0.00  0.00    -0.263 NA
ATOM     40  C   UNL     1      45.067  32.287  46.305  0.00  0.00    +0.111 A 
ENDBRANCH   4   3
ENDBRANCH  10   9
BRANCH  12  13
ATOM     13  N   UNL     1      51.860  24.637  52.240  0.00  0.00    -0.281 N 
ATOM     14  C   UNL     1      52.748  25.180  53.154  0.00  0.00    +0.248 C 
ATOM     30  O   UNL     1      53.708  25.876  52.856  0.00  0.00    -0.270 OA
ATOM     31  H   UNL     1      51.227  23.923  52.601  0.00  0.00    +0.155 HD
BRANCH  14  15
ATOM     15  C   UNL     1      52.550  24.899  54.608  0.00  0.00    +0.037 A 
ATOM     16  C   UNL     1      53.066  23.672  55.222  0.00  0.00    +0.013 A 
ATOM     17  C   UNL     1      52.846  23.417  56.624  0.00  0.00    +0.005 A 
ATOM     18  C   UNL     1      52.108  24.392  57.422  0.00  0.00    -0.033 A 
ATOM     28  C   UNL     1      51.612  25.603  56.789  0.00  0.00    +0.005 A 
ATOM     29  C   UNL     1      51.824  25.856  55.415  0.00  0.00    +0.013 A 
BRANCH  18  19
ATOM     19  C   UNL     1      51.808  24.193  58.919  0.00  0.00    +0.119 C 
BRANCH  19  20
ATOM     20  N   UNL     1      51.361  25.389  59.693  0.00  0.00    -0.302 NA
ATOM     21  C   UNL     1      52.529  26.315  60.044  0.00  0.00    +0.066 C 
ATOM     22  C   UNL     1      52.041  27.573  60.834  0.00  0.00    -0.064 C 
ATOM     23  N   UNL     1      51.306  27.125  62.098  0.00  0.00    +0.379 N 
ATOM     24  C   UNL     1      50.896  28.305  62.872  0.00  0.00    -0.096 C 
ATOM     25  H   UNL     1      52.027  26.546  62.721  0.00  0.00    -0.082 HD
ATOM     26  C   UNL     1      50.145  26.201  61.758  0.00  0.00    -0.064 C 
ATOM     27  C   UNL     1      50.637  24.969  60.948  0.00  0.00    +0.066 C 
ENDBRANCH  19  20
ENDBRANCH  18  19
ENDBRANCH  14  15
ENDBRANCH  12  13
TORSDOF 6
ENDMDL
MODEL 5
REMARK VINA RESULT:      -8.1      7.311     10.663
REMARK  Name = C:\Users\Docking\Desktop\test protocol\1iep_ligandH.pdb
REMARK  8 active torsions:
REMARK  status: ('A' for Active; 'I' for Inactive)
REMARK    1  A    between atoms: _5  and  _11
REMARK    2  A    between atoms: _19  and  _21
REMARK    3  A    between atoms: _22  and  _66
REMARK    4  A    between atoms: _27  and  _30
REMARK    5  A    between atoms: _32  and  _33
REMARK    6  A    between atoms: _38  and  _43
REMARK    7  A    between atoms: _43  and  _46
REMARK    8  A    between atoms: _53  and  _55
REMARK                            x       y       z     vdW  Elec       q    Type
REMARK                         _______ _______ _______ _____ _____    ______ ____
ROOT
ATOM     10  C   UNL     1      46.085  32.704  48.417  0.00  0.00    +0.038 A 
ATOM     11  C   UNL     1      46.887  33.456  49.314  0.00  0.00    +0.047 A 
ATOM     12  C   UNL     1      46.807  34.908  49.357  0.00  0.00    +0.035 A 
ATOM     32  C   UNL     1      45.898  35.561  48.475  0.00  0.00    +0.024 A 
ATOM     33  C   UNL     1      45.076  34.812  47.557  0.00  0.00    +0.007 A 
ATOM     34  C   UNL     1      45.153  33.380  47.508  0.00  0.00    -0.029 A 
ATOM     35  C   UNL     1      44.253  32.629  46.499  0.00  0.00    +0.045 C 
ENDROOT
BRANCH  10   9
ATOM      4  C   UNL     1      48.153  28.630  46.947  0.00  0.00    +0.077 A 
ATOM      5  C   UNL     1      49.058  29.331  46.083  0.00  0.00    +0.048 A 
ATOM      6  C   UNL     1      48.954  30.740  46.041  0.00  0.00    +0.116 A 
ATOM      7  N   UNL     1      48.012  31.388  46.810  0.00  0.00    -0.223 NA
ATOM      8  C   UNL     1      47.153  30.681  47.631  0.00  0.00    +0.220 A 
ATOM      9  N   UNL     1      46.203  31.312  48.418  0.00  0.00    -0.283 N 
ATOM     36  H   UNL     1      45.582  30.754  49.005  0.00  0.00    +0.155 HD
ATOM     37  N   UNL     1      47.231  29.335  47.687  0.00  0.00    -0.214 NA
BRANCH   4   3
ATOM      1  C   UNL     1      49.215  24.952  47.749  0.00  0.00    +0.020 A 
ATOM      2  C   UNL     1      49.278  26.389  47.618  0.00  0.00    +0.013 A 
ATOM      3  C   UNL     1      48.141  27.141  47.102  0.00  0.00    +0.019 A 
ATOM     38  C   UNL     1      46.945  26.402  46.727  0.00  0.00    +0.120 A 
ATOM     39  N   UNL     1      46.914  25.018  46.863  0.00  0.00    -0.263 NA
ATOM     40  C   UNL     1      48.002  24.283  47.356  0.00  0.00    +0.111 A 
ENDBRANCH   4   3
ENDBRANCH  10   9
BRANCH  12  13
ATOM     13  N   UNL     1      47.601  35.726  50.240  0.00  0.00    -0.281 N 
ATOM     14  C   UNL     1      48.913  36.137  50.070  0.00  0.00    +0.248 C 
ATOM     30  O   UNL     1      49.675  35.685  49.229  0.00  0.00    -0.270 OA
ATOM     31  H   UNL     1      47.140  36.039  51.095  0.00  0.00    +0.155 HD
BRANCH  14  15
ATOM     15  C   UNL     1      49.461  37.193  50.974  0.00  0.00    +0.037 A 
ATOM     16  C   UNL     1      50.854  37.636  50.868  0.00  0.00    +0.013 A 
ATOM     17  C   UNL     1      51.362  38.645  51.764  0.00  0.00    +0.005 A 
ATOM     18  C   UNL     1      50.476  39.219  52.773  0.00  0.00    -0.033 A 
ATOM     28  C   UNL     1      49.097  38.765  52.853  0.00  0.00    +0.005 A 
ATOM     29  C   UNL     1      48.596  37.776  51.977  0.00  0.00    +0.013 A 
BRANCH  18  19
ATOM     19  C   UNL     1      50.939  40.284  53.784  0.00  0.00    +0.119 C 
BRANCH  19  20
ATOM     20  N   UNL     1      52.353  40.208  54.259  0.00  0.00    -0.302 NA
ATOM     21  C   UNL     1      52.583  39.011  55.187  0.00  0.00    +0.066 C 
ATOM     22  C   UNL     1      54.072  38.934  55.656  0.00  0.00    -0.064 C 
ATOM     23  N   UNL     1      54.453  40.241  56.353  0.00  0.00    +0.379 N 
ATOM     24  C   UNL     1      55.835  40.149  56.847  0.00  0.00    -0.096 C 
ATOM     25  H   UNL     1      53.785  40.359  57.238  0.00  0.00    -0.082 HD
ATOM     26  C   UNL     1      54.225  41.436  55.439  0.00  0.00    -0.064 C 
ATOM     27  C   UNL     1      52.749  41.487  54.955  0.00  0.00    +0.066 C 
ENDBRANCH  19  20
ENDBRANCH  18  19
ENDBRANCH  14  15
ENDBRANCH  12  13
TORSDOF 6
ENDMDL
