MODEL 1
REMARK VINA RESULT:      -8.9      0.000      0.000
REMARK  Name = C:\Users\Docking\Desktop\test protocol\1iep_ligandH.pdb
REMARK  8 active torsions:
REMARK  status: ('A' for Active; 'I' for Inactive)
REMARK    1  A    between atoms: _5  and  _11
REMARK    2  A    between atoms: _19  and  _21
REMARK    3  A    between atoms: _22  and  _66
REMARK    4  A    between atoms: _27  and  _30
REMARK    5  A    between atoms: _32  and  _33
REMARK    6  A    between atoms: _38  and  _43
REMARK    7  A    between atoms: _43  and  _46
REMARK    8  A    between atoms: _53  and  _55
REMARK                            x       y       z     vdW  Elec       q    Type
REMARK                         _______ _______ _______ _____ _____    ______ ____
ROOT
ATOM     10  C   UNL     1      13.980  21.778   8.662  0.00  0.00    +0.038 A 
ATOM     11  C   UNL     1      15.061  20.873   8.504  0.00  0.00    +0.047 A 
ATOM     12  C   UNL     1      16.383  21.183   9.024  0.00  0.00    +0.035 A 
ATOM     32  C   UNL     1      16.569  22.423   9.703  0.00  0.00    +0.024 A 
ATOM     33  C   UNL     1      15.482  23.355   9.871  0.00  0.00    +0.007 A 
ATOM     34  C   UNL     1      14.175  23.055   9.358  0.00  0.00    -0.029 A 
ATOM     35  C   UNL     1      13.048  24.094   9.562  0.00  0.00    +0.045 C 
ENDROOT
BRANCH  10   9
ATOM      4  C   UNL     1      10.897  21.296   5.015  0.00  0.00    +0.077 A 
ATOM      5  C   UNL     1      11.845  21.807   4.068  0.00  0.00    +0.048 A 
ATOM      6  C   UNL     1      13.113  22.189   4.561  0.00  0.00    +0.116 A 
ATOM      7  N   UNL     1      13.400  22.065   5.904  0.00  0.00    -0.223 NA
ATOM      8  C   UNL     1      12.461  21.570   6.790  0.00  0.00    +0.220 A 
ATOM      9  N   UNL     1      12.731  21.429   8.143  0.00  0.00    -0.283 N 
ATOM     36  H   UNL     1      12.009  21.067   8.766  0.00  0.00    +0.155 HD
ATOM     37  N   UNL     1      11.243  21.199   6.345  0.00  0.00    -0.214 NA
BRANCH   4   3
ATOM      1  C   UNL     1       7.661  19.139   4.593  0.00  0.00    +0.020 A 
ATOM      2  C   UNL     1       9.002  19.522   4.971  0.00  0.00    +0.013 A 
ATOM      3  C   UNL     1       9.517  20.847   4.647  0.00  0.00    +0.019 A 
ATOM     38  C   UNL     1       8.642  21.767   3.936  0.00  0.00    +0.120 A 
ATOM     39  N   UNL     1       7.356  21.369   3.584  0.00  0.00    -0.263 NA
ATOM     40  C   UNL     1       6.850  20.097   3.888  0.00  0.00    +0.111 A 
ENDBRANCH   4   3
ENDBRANCH  10   9
BRANCH  12  13
ATOM     13  N   UNL     1      17.520  20.307   8.887  0.00  0.00    -0.281 N 
ATOM     14  C   UNL     1      18.180  19.606   9.883  0.00  0.00    +0.248 C 
ATOM     30  O   UNL     1      18.023  19.793  11.080  0.00  0.00    -0.270 OA
ATOM     31  H   UNL     1      17.883  20.190   7.941  0.00  0.00    +0.155 HD
BRANCH  14  15
ATOM     15  C   UNL     1      19.167  18.554   9.493  0.00  0.00    +0.037 A 
ATOM     16  C   UNL     1      18.799  17.136   9.474  0.00  0.00    +0.013 A 
ATOM     17  C   UNL     1      19.775  16.140   9.110  0.00  0.00    +0.005 A 
ATOM     18  C   UNL     1      21.130  16.559   8.759  0.00  0.00    -0.033 A 
ATOM     28  C   UNL     1      21.467  17.973   8.781  0.00  0.00    +0.005 A 
ATOM     29  C   UNL     1      20.513  18.952   9.138  0.00  0.00    +0.013 A 
BRANCH  18  19
ATOM     19  C   UNL     1      22.242  15.564   8.379  0.00  0.00    +0.119 C 
BRANCH  19  20
ATOM     20  N   UNL     1      23.132  15.936   7.239  0.00  0.00    -0.302 NA
ATOM     21  C   UNL     1      22.428  15.785   5.887  0.00  0.00    +0.066 C 
ATOM     22  C   UNL     1      23.366  16.200   4.707  0.00  0.00    -0.064 C 
ATOM     23  N   UNL     1      24.640  15.355   4.751  0.00  0.00    +0.379 N 
ATOM     24  C   UNL     1      25.499  15.702   3.609  0.00  0.00    -0.096 C 
ATOM     25  H   UNL     1      24.341  14.287   4.637  0.00  0.00    -0.082 HD
ATOM     26  C   UNL     1      25.345  15.497   6.093  0.00  0.00    -0.064 C 
ATOM     27  C   UNL     1      24.395  15.110   7.260  0.00  0.00    +0.066 C 
ENDBRANCH  19  20
ENDBRANCH  18  19
ENDBRANCH  14  15
ENDBRANCH  12  13
TORSDOF 6
ENDMDL
MODEL 2
REMARK VINA RESULT:      -8.8      2.419     12.313
REMARK  Name = C:\Users\Docking\Desktop\test protocol\1iep_ligandH.pdb
REMARK  8 active torsions:
REMARK  status: ('A' for Active; 'I' for Inactive)
REMARK    1  A    between atoms: _5  and  _11
REMARK    2  A    between atoms: _19  and  _21
REMARK    3  A    between atoms: _22  and  _66
REMARK    4  A    between atoms: _27  and  _30
REMARK    5  A    between atoms: _32  and  _33
REMARK    6  A    between atoms: _38  and  _43
REMARK    7  A    between atoms: _43  and  _46
REMARK    8  A    between atoms: _53  and  _55
REMARK                            x       y       z     vdW  Elec       q    Type
REMARK                         _______ _______ _______ _____ _____    ______ ____
ROOT
ATOM     10  C   UNL     1      16.991  20.417   8.034  0.00  0.00    +0.038 A 
ATOM     11  C   UNL     1      15.747  20.091   7.437  0.00  0.00    +0.047 A 
ATOM     12  C   UNL     1      14.503  20.659   7.932  0.00  0.00    +0.035 A 
ATOM     32  C   UNL     1      14.563  21.558   9.036  0.00  0.00    +0.024 A 
ATOM     33  C   UNL     1      15.819  21.900   9.656  0.00  0.00    +0.007 A 
ATOM     34  C   UNL     1      17.049  21.340   9.174  0.00  0.00    -0.029 A 
ATOM     35  C   UNL     1      18.366  21.737   9.881  0.00  0.00    +0.045 C 
ENDROOT
BRANCH  10   9
ATOM      4  C   UNL     1      20.238  16.888   7.829  0.00  0.00    +0.077 A 
ATOM      5  C   UNL     1      19.574  16.137   8.856  0.00  0.00    +0.048 A 
ATOM      6  C   UNL     1      18.404  16.698   9.417  0.00  0.00    +0.116 A 
ATOM      7  N   UNL     1      17.942  17.918   8.975  0.00  0.00    -0.223 NA
ATOM      8  C   UNL     1      18.607  18.617   7.984  0.00  0.00    +0.220 A 
ATOM      9  N   UNL     1      18.155  19.842   7.518  0.00  0.00    -0.283 N 
ATOM     36  H   UNL     1      18.678  20.329   6.791  0.00  0.00    +0.155 HD
ATOM     37  N   UNL     1      19.727  18.103   7.434  0.00  0.00    -0.214 NA
BRANCH   4   3
ATOM      1  C   UNL     1      23.850  15.552   7.142  0.00  0.00    +0.020 A 
ATOM      2  C   UNL     1      22.673  15.989   7.858  0.00  0.00    +0.013 A 
ATOM      3  C   UNL     1      21.483  16.426   7.138  0.00  0.00    +0.019 A 
ATOM     38  C   UNL     1      21.517  16.409   5.684  0.00  0.00    +0.120 A 
ATOM     39  N   UNL     1      22.665  15.985   5.022  0.00  0.00    -0.263 NA
ATOM     40  C   UNL     1      23.816  15.563   5.703  0.00  0.00    +0.111 A 
ENDBRANCH   4   3
ENDBRANCH  10   9
BRANCH  12  13
ATOM     13  N   UNL     1      13.209  20.359   7.371  0.00  0.00    -0.281 N 
ATOM     14  C   UNL     1      12.572  20.987   6.313  0.00  0.00    +0.248 C 
ATOM     30  O   UNL     1      12.930  22.048   5.823  0.00  0.00    -0.270 OA
ATOM     31  H   UNL     1      12.700  19.589   7.807  0.00  0.00    +0.155 HD
BRANCH  14  15
ATOM     15  C   UNL     1      11.354  20.353   5.724  0.00  0.00    +0.037 A 
ATOM     16  C   UNL     1      11.430  19.071   5.018  0.00  0.00    +0.013 A 
ATOM     17  C   UNL     1      10.243  18.490   4.444  0.00  0.00    +0.005 A 
ATOM     18  C   UNL     1       8.967  19.190   4.575  0.00  0.00    -0.033 A 
ATOM     28  C   UNL     1       8.919  20.458   5.285  0.00  0.00    +0.005 A 
ATOM     29  C   UNL     1      10.081  21.031   5.848  0.00  0.00    +0.013 A 
BRANCH  18  19
ATOM     19  C   UNL     1       7.653  18.655   3.976  0.00  0.00    +0.119 C 
BRANCH  19  20
ATOM     20  N   UNL     1       7.375  18.974   2.544  0.00  0.00    -0.302 NA
ATOM     21  C   UNL     1       6.273  20.027   2.394  0.00  0.00    +0.066 C 
ATOM     22  C   UNL     1       6.010  20.365   0.891  0.00  0.00    -0.064 C 
ATOM     23  N   UNL     1       5.641  19.085   0.139  0.00  0.00    +0.379 N 
ATOM     24  C   UNL     1       5.337  19.409  -1.262  0.00  0.00    -0.096 C 
ATOM     25  H   UNL     1       4.713  18.677   0.602  0.00  0.00    -0.082 HD
ATOM     26  C   UNL     1       6.731  18.032   0.285  0.00  0.00    -0.064 C 
ATOM     27  C   UNL     1       7.005  17.724   1.784  0.00  0.00    +0.066 C 
ENDBRANCH  19  20
ENDBRANCH  18  19
ENDBRANCH  14  15
ENDBRANCH  12  13
TORSDOF 6
ENDMDL
MODEL 3
REMARK VINA RESULT:      -8.8      4.662      7.539
REMARK  Name = C:\Users\Docking\Desktop\test protocol\1iep_ligandH.pdb
REMARK  8 active torsions:
REMARK  status: ('A' for Active; 'I' for Inactive)
REMARK    1  A    between atoms: _5  and  _11
REMARK    2  A    between atoms: _19  and  _21
REMARK    3  A    between atoms: _22  and  _66
REMARK    4  A    between atoms: _27  and  _30
REMARK    5  A    between atoms: _32  and  _33
REMARK    6  A    between atoms: _38  and  _43
REMARK    7  A    between atoms: _43  and  _46
REMARK    8  A    between atoms: _53  and  _55
REMARK                            x       y       z     vdW  Elec       q    Type
REMARK                         _______ _______ _______ _____ _____    ______ ____
ROOT
ATOM     10  C   UNL     1       9.315  18.034   4.330  0.00  0.00    +0.038 A 
ATOM     11  C   UNL     1      10.641  18.282   4.768  0.00  0.00    +0.047 A 
ATOM     12  C   UNL     1      11.164  19.637   4.854  0.00  0.00    +0.035 A 
ATOM     32  C   UNL     1      10.307  20.716   4.489  0.00  0.00    +0.024 A 
ATOM     33  C   UNL     1       8.956  20.481   4.041  0.00  0.00    +0.007 A 
ATOM     34  C   UNL     1       8.436  19.147   3.952  0.00  0.00    -0.029 A 
ATOM     35  C   UNL     1       6.983  18.954   3.459  0.00  0.00    +0.045 C 
ENDROOT
BRANCH  10   9
ATOM      4  C   UNL     1       8.525  13.941   1.950  0.00  0.00    +0.077 A 
ATOM      5  C   UNL     1       9.026  14.489   0.723  0.00  0.00    +0.048 A 
ATOM      6  C   UNL     1       9.471  15.830   0.745  0.00  0.00    +0.116 A 
ATOM      7  N   UNL     1       9.414  16.559   1.913  0.00  0.00    -0.223 NA
ATOM      8  C   UNL     1       8.924  16.001   3.079  0.00  0.00    +0.220 A 
ATOM      9  N   UNL     1       8.865  16.713   4.267  0.00  0.00    -0.283 N 
ATOM     36  H   UNL     1       8.490  16.268   5.104  0.00  0.00    +0.155 HD
ATOM     37  N   UNL     1       8.492  14.723   3.084  0.00  0.00    -0.214 NA
BRANCH   4   3
ATOM      1  C   UNL     1       6.706  10.544   1.276  0.00  0.00    +0.020 A 
ATOM      2  C   UNL     1       7.164  11.903   1.095  0.00  0.00    +0.013 A 
ATOM      3  C   UNL     1       8.022  12.538   2.088  0.00  0.00    +0.019 A 
ATOM     38  C   UNL     1       8.401  11.765   3.261  0.00  0.00    +0.120 A 
ATOM     39  N   UNL     1       7.943  10.459   3.409  0.00  0.00    -0.263 NA
ATOM     40  C   UNL     1       7.116   9.838   2.461  0.00  0.00    +0.111 A 
ENDBRANCH   4   3
ENDBRANCH  10   9
BRANCH  12  13
ATOM     13  N   UNL     1      12.504  19.950   5.283  0.00  0.00    -0.281 N 
ATOM     14  C   UNL     1      12.898  20.594   6.445  0.00  0.00    +0.248 C 
ATOM     30  O   UNL     1      12.140  21.191   7.195  0.00  0.00    -0.270 OA
ATOM     31  H   UNL     1      13.254  19.663   4.654  0.00  0.00    +0.155 HD
BRANCH  14  15
ATOM     15  C   UNL     1      14.344  20.585   6.821  0.00  0.00    +0.037 A 
ATOM     16  C   UNL     1      15.377  20.196   5.857  0.00  0.00    +0.013 A 
ATOM     17  C   UNL     1      16.764  20.179   6.251  0.00  0.00    +0.005 A 
ATOM     18  C   UNL     1      17.126  20.555   7.615  0.00  0.00    -0.033 A 
ATOM     28  C   UNL     1      16.081  20.941   8.549  0.00  0.00    +0.005 A 
ATOM     29  C   UNL     1      14.721  20.958   8.167  0.00  0.00    +0.013 A 
BRANCH  18  19
ATOM     19  C   UNL     1      18.578  20.546   8.128  0.00  0.00    +0.119 C 
BRANCH  19  20
ATOM     20  N   UNL     1      19.319  19.251   8.061  0.00  0.00    -0.302 NA
ATOM     21  C   UNL     1      18.437  18.063   8.458  0.00  0.00    +0.066 C 
ATOM     22  C   UNL     1      19.222  16.714   8.360  0.00  0.00    -0.064 C 
ATOM     23  N   UNL     1      20.466  16.785   9.247  0.00  0.00    +0.379 N 
ATOM     24  C   UNL     1      21.174  15.498   9.202  0.00  0.00    -0.096 C 
ATOM     25  H   UNL     1      20.124  16.948  10.295  0.00  0.00    -0.082 HD
ATOM     26  C   UNL     1      21.347  17.965   8.861  0.00  0.00    -0.064 C 
ATOM     27  C   UNL     1      20.549  19.297   8.933  0.00  0.00    +0.066 C 
ENDBRANCH  19  20
ENDBRANCH  18  19
ENDBRANCH  14  15
ENDBRANCH  12  13
TORSDOF 6
ENDMDL
MODEL 4
REMARK VINA RESULT:      -8.7      2.179     11.545
REMARK  Name = C:\Users\Docking\Desktop\test protocol\1iep_ligandH.pdb
REMARK  8 active torsions:
REMARK  status: ('A' for Active; 'I' for Inactive)
REMARK    1  A    between atoms: _5  and  _11
REMARK    2  A    between atoms: _19  and  _21
REMARK    3  A    between atoms: _22  and  _66
REMARK    4  A    between atoms: _27  and  _30
REMARK    5  A    between atoms: _32  and  _33
REMARK    6  A    between atoms: _38  and  _43
REMARK    7  A    between atoms: _43  and  _46
REMARK    8  A    between atoms: _53  and  _55
REMARK                            x       y       z     vdW  Elec       q    Type
REMARK                         _______ _______ _______ _____ _____    ______ ____
ROOT
ATOM     10  C   UNL     1      18.138  20.760   9.202  0.00  0.00    +0.038 A 
ATOM     11  C   UNL     1      16.851  20.670   8.613  0.00  0.00    +0.047 A 
ATOM     12  C   UNL     1      15.689  21.272   9.248  0.00  0.00    +0.035 A 
ATOM     32  C   UNL     1      15.875  21.962  10.481  0.00  0.00    +0.024 A 
ATOM     33  C   UNL     1      17.176  22.063  11.094  0.00  0.00    +0.007 A 
ATOM     34  C   UNL     1      18.326  21.469  10.474  0.00  0.00    -0.029 A 
ATOM     35  C   UNL     1      19.695  21.603  11.179  0.00  0.00    +0.045 C 
ENDROOT
BRANCH  10   9
ATOM      4  C   UNL     1      20.728  16.919   7.947  0.00  0.00    +0.077 A 
ATOM      5  C   UNL     1      19.871  16.029   8.676  0.00  0.00    +0.048 A 
ATOM      6  C   UNL     1      18.778  16.601   9.367  0.00  0.00    +0.116 A 
ATOM      7  N   UNL     1      18.569  17.962   9.324  0.00  0.00    -0.223 NA
ATOM      8  C   UNL     1      19.416  18.792   8.612  0.00  0.00    +0.220 A 
ATOM      9  N   UNL     1      19.219  20.163   8.549  0.00  0.00    -0.283 N 
ATOM     36  H   UNL     1      19.870  20.742   8.020  0.00  0.00    +0.155 HD
ATOM     37  N   UNL     1      20.467  18.271   7.946  0.00  0.00    -0.214 NA
BRANCH   4   3
ATOM      1  C   UNL     1      24.314  15.687   6.987  0.00  0.00    +0.020 A 
ATOM      2  C   UNL     1      23.192  16.120   7.788  0.00  0.00    +0.013 A 
ATOM      3  C   UNL     1      21.921  16.466   7.165  0.00  0.00    +0.019 A 
ATOM     38  C   UNL     1      21.817  16.362   5.717  0.00  0.00    +0.120 A 
ATOM     39  N   UNL     1      22.915  15.944   4.971  0.00  0.00    -0.263 NA
ATOM     40  C   UNL     1      24.144  15.610   5.560  0.00  0.00    +0.111 A 
ENDBRANCH   4   3
ENDBRANCH  10   9
BRANCH  12  13
ATOM     13  N   UNL     1      14.356  21.206   8.702  0.00  0.00    -0.281 N 
ATOM     14  C   UNL     1      13.703  22.155   7.933  0.00  0.00    +0.248 C 
ATOM     30  O   UNL     1      14.090  23.303   7.776  0.00  0.00    -0.270 OA
ATOM     31  H   UNL     1      13.831  20.356   8.907  0.00  0.00    +0.155 HD
BRANCH  14  15
ATOM     15  C   UNL     1      12.427  21.778   7.251  0.00  0.00    +0.037 A 
ATOM     16  C   UNL     1      11.126  22.105   7.839  0.00  0.00    +0.013 A 
ATOM     17  C   UNL     1       9.911  21.715   7.169  0.00  0.00    +0.005 A 
ATOM     18  C   UNL     1       9.992  20.994   5.901  0.00  0.00    -0.033 A 
ATOM     28  C   UNL     1      11.296  20.687   5.337  0.00  0.00    +0.005 A 
ATOM     29  C   UNL     1      12.490  21.067   5.992  0.00  0.00    +0.013 A 
BRANCH  18  19
ATOM     19  C   UNL     1       8.748  20.520   5.127  0.00  0.00    +0.119 C 
BRANCH  19  20
ATOM     20  N   UNL     1       8.955  19.495   4.061  0.00  0.00    -0.302 NA
ATOM     21  C   UNL     1       7.976  19.672   2.896  0.00  0.00    +0.066 C 
ATOM     22  C   UNL     1       8.221  18.605   1.780  0.00  0.00    -0.064 C 
ATOM     23  N   UNL     1       8.101  17.204   2.381  0.00  0.00    +0.379 N 
ATOM     24  C   UNL     1       8.274  16.199   1.322  0.00  0.00    -0.096 C 
ATOM     25  H   UNL     1       7.067  17.097   2.784  0.00  0.00    -0.082 HD
ATOM     26  C   UNL     1       9.069  17.021   3.541  0.00  0.00    -0.064 C 
ATOM     27  C   UNL     1       8.836  18.104   4.632  0.00  0.00    +0.066 C 
ENDBRANCH  19  20
ENDBRANCH  18  19
ENDBRANCH  14  15
ENDBRANCH  12  13
TORSDOF 6
ENDMDL
MODEL 5
REMARK VINA RESULT:      -8.5      5.153      8.237
REMARK  Name = C:\Users\Docking\Desktop\test protocol\1iep_ligandH.pdb
REMARK  8 active torsions:
REMARK  status: ('A' for Active; 'I' for Inactive)
REMARK    1  A    between atoms: _5  and  _11
REMARK    2  A    between atoms: _19  and  _21
REMARK    3  A    between atoms: _22  and  _66
REMARK    4  A    between atoms: _27  and  _30
REMARK    5  A    between atoms: _32  and  _33
REMARK    6  A    between atoms: _38  and  _43
REMARK    7  A    between atoms: _43  and  _46
REMARK    8  A    between atoms: _53  and  _55
REMARK                            x       y       z     vdW  Elec       q    Type
REMARK                         _______ _______ _______ _____ _____    ______ ____
ROOT
ATOM     10  C   UNL     1       9.713  17.771   4.529  0.00  0.00    +0.038 A 
ATOM     11  C   UNL     1      11.086  17.886   4.866  0.00  0.00    +0.047 A 
ATOM     12  C   UNL     1      11.723  19.188   4.993  0.00  0.00    +0.035 A 
ATOM     32  C   UNL     1      10.930  20.352   4.773  0.00  0.00    +0.024 A 
ATOM     33  C   UNL     1       9.533  20.253   4.430  0.00  0.00    +0.007 A 
ATOM     34  C   UNL     1       8.900  18.972   4.300  0.00  0.00    -0.029 A 
ATOM     35  C   UNL     1       7.401  18.926   3.923  0.00  0.00    +0.045 C 
ENDROOT
BRANCH  10   9
ATOM      4  C   UNL     1       8.519  13.875   1.993  0.00  0.00    +0.077 A 
ATOM      5  C   UNL     1       9.030  14.437   0.777  0.00  0.00    +0.048 A 
ATOM      6  C   UNL     1       9.586  15.735   0.845  0.00  0.00    +0.116 A 
ATOM      7  N   UNL     1       9.622  16.410   2.046  0.00  0.00    -0.223 NA
ATOM      8  C   UNL     1       9.119  15.839   3.200  0.00  0.00    +0.220 A 
ATOM      9  N   UNL     1       9.153  16.496   4.421  0.00  0.00    -0.283 N 
ATOM     36  H   UNL     1       8.764  16.044   5.248  0.00  0.00    +0.155 HD
ATOM     37  N   UNL     1       8.582  14.602   3.161  0.00  0.00    -0.214 NA
BRANCH   4   3
ATOM      1  C   UNL     1       6.460  10.647   1.189  0.00  0.00    +0.020 A 
ATOM      2  C   UNL     1       7.028  11.969   1.053  0.00  0.00    +0.013 A 
ATOM      3  C   UNL     1       7.904  12.513   2.083  0.00  0.00    +0.019 A 
ATOM     38  C   UNL     1       8.189  11.686   3.246  0.00  0.00    +0.120 A 
ATOM     39  N   UNL     1       7.627  10.417   3.350  0.00  0.00    -0.263 NA
ATOM     40  C   UNL     1       6.781   9.885   2.366  0.00  0.00    +0.111 A 
ENDBRANCH   4   3
ENDBRANCH  10   9
BRANCH  12  13
ATOM     13  N   UNL     1      13.114  19.367   5.324  0.00  0.00    -0.281 N 
ATOM     14  C   UNL     1      14.184  19.512   4.456  0.00  0.00    +0.248 C 
ATOM     30  O   UNL     1      14.134  19.295   3.255  0.00  0.00    -0.270 OA
ATOM     31  H   UNL     1      13.338  19.389   6.319  0.00  0.00    +0.155 HD
BRANCH  14  15
ATOM     15  C   UNL     1      15.505  19.947   5.005  0.00  0.00    +0.037 A 
ATOM     16  C   UNL     1      16.623  20.280   4.119  0.00  0.00    +0.013 A 
ATOM     17  C   UNL     1      17.892  20.681   4.674  0.00  0.00    +0.005 A 
ATOM     18  C   UNL     1      18.048  20.752   6.125  0.00  0.00    -0.033 A 
ATOM     28  C   UNL     1      16.920  20.421   6.981  0.00  0.00    +0.005 A 
ATOM     29  C   UNL     1      15.676  20.027   6.440  0.00  0.00    +0.013 A 
BRANCH  18  19
ATOM     19  C   UNL     1      19.371  21.150   6.805  0.00  0.00    +0.119 C 
BRANCH  19  20
ATOM     20  N   UNL     1      19.282  21.999   8.031  0.00  0.00    -0.302 NA
ATOM     21  C   UNL     1      19.653  23.457   7.747  0.00  0.00    +0.066 C 
ATOM     22  C   UNL     1      19.533  24.336   9.035  0.00  0.00    -0.064 C 
ATOM     23  N   UNL     1      20.425  23.753  10.131  0.00  0.00    +0.379 N 
ATOM     24  C   UNL     1      20.359  24.610  11.325  0.00  0.00    -0.096 C 
ATOM     25  H   UNL     1      21.476  23.773   9.758  0.00  0.00    -0.082 HD
ATOM     26  C   UNL     1      20.065  22.302  10.418  0.00  0.00    -0.064 C 
ATOM     27  C   UNL     1      20.159  21.444   9.126  0.00  0.00    +0.066 C 
ENDBRANCH  19  20
ENDBRANCH  18  19
ENDBRANCH  14  15
ENDBRANCH  12  13
TORSDOF 6
ENDMDL
