MODEL 1
REMARK VINA RESULT:      -8.3      0.000      0.000
REMARK  Name = C:\Users\Docking\Desktop\test protocol\1iep_ligandH.pdb
REMARK  8 active torsions:
REMARK  status: ('A' for Active; 'I' for Inactive)
REMARK    1  A    between atoms: _5  and  _11
REMARK    2  A    between atoms: _19  and  _21
REMARK    3  A    between atoms: _22  and  _66
REMARK    4  A    between atoms: _27  and  _30
REMARK    5  A    between atoms: _32  and  _33
REMARK    6  A    between atoms: _38  and  _43
REMARK    7  A    between atoms: _43  and  _46
REMARK    8  A    between atoms: _53  and  _55
REMARK                            x       y       z     vdW  Elec       q    Type
REMARK                         _______ _______ _______ _____ _____    ______ ____
ROOT
ATOM     10  C   UNL     1       9.367 -17.757  -4.272  0.00  0.00    +0.038 A 
ATOM     11  C   UNL     1      10.681 -17.911  -4.782  0.00  0.00    +0.047 A 
ATOM     12  C   UNL     1      11.306 -19.221  -4.869  0.00  0.00    +0.035 A 
ATOM     32  C   UNL     1      10.563 -20.355  -4.428  0.00  0.00    +0.024 A 
ATOM     33  C   UNL     1       9.226 -20.217  -3.906  0.00  0.00    +0.007 A 
ATOM     34  C   UNL     1       8.605 -18.926  -3.816  0.00  0.00    -0.029 A 
ATOM     35  C   UNL     1       7.172 -18.837  -3.241  0.00  0.00    +0.045 C 
ENDROOT
BRANCH  10   9
ATOM      4  C   UNL     1       8.255 -13.735  -1.901  0.00  0.00    +0.077 A 
ATOM      5  C   UNL     1       8.794 -14.240  -0.671  0.00  0.00    +0.048 A 
ATOM      6  C   UNL     1       9.342 -15.542  -0.690  0.00  0.00    +0.116 A 
ATOM      7  N   UNL     1       9.345 -16.275  -1.857  0.00  0.00    -0.223 NA
ATOM      8  C   UNL     1       8.815 -15.759  -3.025  0.00  0.00    +0.220 A 
ATOM      9  N   UNL     1       8.815 -16.475  -4.212  0.00  0.00    -0.283 N 
ATOM     36  H   UNL     1       8.408 -16.062  -5.050  0.00  0.00    +0.155 HD
ATOM     37  N   UNL     1       8.285 -14.518  -3.033  0.00  0.00    -0.214 NA
BRANCH   4   3
ATOM      1  C   UNL     1       6.148 -10.503  -1.254  0.00  0.00    +0.020 A 
ATOM      2  C   UNL     1       6.709 -11.822  -1.071  0.00  0.00    +0.013 A 
ATOM      3  C   UNL     1       7.644 -12.375  -2.042  0.00  0.00    +0.019 A 
ATOM     38  C   UNL     1       7.994 -11.562  -3.197  0.00  0.00    +0.120 A 
ATOM     39  N   UNL     1       7.436 -10.296  -3.348  0.00  0.00    -0.263 NA
ATOM     40  C   UNL     1       6.535  -9.753  -2.420  0.00  0.00    +0.111 A 
ENDBRANCH   4   3
ENDBRANCH  10   9
BRANCH  12  13
ATOM     13  N   UNL     1      12.641 -19.438  -5.370  0.00  0.00    -0.281 N 
ATOM     14  C   UNL     1      13.031 -20.231  -6.437  0.00  0.00    +0.248 C 
ATOM     30  O   UNL     1      12.310 -21.047  -6.992  0.00  0.00    -0.270 OA
ATOM     31  H   UNL     1      13.388 -18.947  -4.879  0.00  0.00    +0.155 HD
BRANCH  14  15
ATOM     15  C   UNL     1      14.429 -20.110  -6.953  0.00  0.00    +0.037 A 
ATOM     16  C   UNL     1      14.695 -19.800  -8.360  0.00  0.00    +0.013 A 
ATOM     17  C   UNL     1      16.053 -19.706  -8.835  0.00  0.00    +0.005 A 
ATOM     18  C   UNL     1      17.155 -19.922  -7.900  0.00  0.00    -0.033 A 
ATOM     28  C   UNL     1      16.862 -20.223  -6.509  0.00  0.00    +0.005 A 
ATOM     29  C   UNL     1      15.533 -20.316  -6.040  0.00  0.00    +0.013 A 
BRANCH  18  19
ATOM     19  C   UNL     1      18.635 -19.862  -8.324  0.00  0.00    +0.119 C 
BRANCH  19  20
ATOM     20  N   UNL     1      19.118 -20.912  -9.270  0.00  0.00    -0.302 NA
ATOM     21  C   UNL     1      18.575 -22.299  -8.916  0.00  0.00    +0.066 C 
ATOM     22  C   UNL     1      19.072 -23.381  -9.929  0.00  0.00    -0.064 C 
ATOM     23  N   UNL     1      20.602 -23.388  -9.954  0.00  0.00    +0.379 N 
ATOM     24  C   UNL     1      21.073 -24.443 -10.862  0.00  0.00    -0.096 C 
ATOM     25  H   UNL     1      20.955 -23.642  -8.927  0.00  0.00    -0.082 HD
ATOM     26  C   UNL     1      21.150 -22.011 -10.303  0.00  0.00    -0.064 C 
ATOM     27  C   UNL     1      20.626 -20.939  -9.308  0.00  0.00    +0.066 C 
ENDBRANCH  19  20
ENDBRANCH  18  19
ENDBRANCH  14  15
ENDBRANCH  12  13
TORSDOF 6
ENDMDL
MODEL 2
REMARK VINA RESULT:      -8.2      1.821      2.934
REMARK  Name = C:\Users\Docking\Desktop\test protocol\1iep_ligandH.pdb
REMARK  8 active torsions:
REMARK  status: ('A' for Active; 'I' for Inactive)
REMARK    1  A    between atoms: _5  and  _11
REMARK    2  A    between atoms: _19  and  _21
REMARK    3  A    between atoms: _22  and  _66
REMARK    4  A    between atoms: _27  and  _30
REMARK    5  A    between atoms: _32  and  _33
REMARK    6  A    between atoms: _38  and  _43
REMARK    7  A    between atoms: _43  and  _46
REMARK    8  A    between atoms: _53  and  _55
REMARK                            x       y       z     vdW  Elec       q    Type
REMARK                         _______ _______ _______ _____ _____    ______ ____
ROOT
ATOM     10  C   UNL     1       9.347 -17.781  -4.300  0.00  0.00    +0.038 A 
ATOM     11  C   UNL     1      10.671 -17.945  -4.783  0.00  0.00    +0.047 A 
ATOM     12  C   UNL     1      11.282 -19.261  -4.870  0.00  0.00    +0.035 A 
ATOM     32  C   UNL     1      10.516 -20.391  -4.460  0.00  0.00    +0.024 A 
ATOM     33  C   UNL     1       9.169 -20.243  -3.966  0.00  0.00    +0.007 A 
ATOM     34  C   UNL     1       8.562 -18.946  -3.875  0.00  0.00    -0.029 A 
ATOM     35  C   UNL     1       7.117 -18.846  -3.332  0.00  0.00    +0.045 C 
ENDROOT
BRANCH  10   9
ATOM      4  C   UNL     1       8.272 -13.754  -1.920  0.00  0.00    +0.077 A 
ATOM      5  C   UNL     1       8.802 -14.269  -0.691  0.00  0.00    +0.048 A 
ATOM      6  C   UNL     1       9.336 -15.577  -0.712  0.00  0.00    +0.116 A 
ATOM      7  N   UNL     1       9.335 -16.306  -1.881  0.00  0.00    -0.223 NA
ATOM      8  C   UNL     1       8.814 -15.781  -3.049  0.00  0.00    +0.220 A 
ATOM      9  N   UNL     1       8.809 -16.494  -4.238  0.00  0.00    -0.283 N 
ATOM     36  H   UNL     1       8.409 -16.073  -5.076  0.00  0.00    +0.155 HD
ATOM     37  N   UNL     1       8.297 -14.534  -3.055  0.00  0.00    -0.214 NA
BRANCH   4   3
ATOM      1  C   UNL     1       6.180 -10.511  -1.282  0.00  0.00    +0.020 A 
ATOM      2  C   UNL     1       6.726 -11.836  -1.101  0.00  0.00    +0.013 A 
ATOM      3  C   UNL     1       7.676 -12.387  -2.059  0.00  0.00    +0.019 A 
ATOM     38  C   UNL     1       8.057 -11.565  -3.197  0.00  0.00    +0.120 A 
ATOM     39  N   UNL     1       7.515 -10.292  -3.345  0.00  0.00    -0.263 NA
ATOM     40  C   UNL     1       6.598  -9.752  -2.431  0.00  0.00    +0.111 A 
ENDBRANCH   4   3
ENDBRANCH  10   9
BRANCH  12  13
ATOM     13  N   UNL     1      12.625 -19.488  -5.344  0.00  0.00    -0.281 N 
ATOM     14  C   UNL     1      13.020 -20.055  -6.545  0.00  0.00    +0.248 C 
ATOM     30  O   UNL     1      12.273 -20.652  -7.306  0.00  0.00    -0.270 OA
ATOM     31  H   UNL     1      13.376 -19.195  -4.719  0.00  0.00    +0.155 HD
BRANCH  14  15
ATOM     15  C   UNL     1      14.455 -19.958  -6.952  0.00  0.00    +0.037 A 
ATOM     16  C   UNL     1      15.534 -20.113  -5.974  0.00  0.00    +0.013 A 
ATOM     17  C   UNL     1      16.910 -19.998  -6.390  0.00  0.00    +0.005 A 
ATOM     18  C   UNL     1      17.213 -19.727  -7.794  0.00  0.00    -0.033 A 
ATOM     28  C   UNL     1      16.122 -19.583  -8.744  0.00  0.00    +0.005 A 
ATOM     29  C   UNL     1      14.773 -19.694  -8.339  0.00  0.00    +0.013 A 
BRANCH  18  19
ATOM     19  C   UNL     1      18.650 -19.567  -8.323  0.00  0.00    +0.119 C 
BRANCH  19  20
ATOM     20  N   UNL     1      19.583 -18.718  -7.523  0.00  0.00    -0.302 NA
ATOM     21  C   UNL     1      18.977 -17.351  -7.196  0.00  0.00    +0.066 C 
ATOM     22  C   UNL     1      19.957 -16.484  -6.340  0.00  0.00    -0.064 C 
ATOM     23  N   UNL     1      21.281 -16.325  -7.090  0.00  0.00    +0.379 N 
ATOM     24  C   UNL     1      22.184 -15.463  -6.314  0.00  0.00    -0.096 C 
ATOM     25  H   UNL     1      21.063 -15.807  -8.053  0.00  0.00    -0.082 HD
ATOM     26  C   UNL     1      21.889 -17.680  -7.422  0.00  0.00    -0.064 C 
ATOM     27  C   UNL     1      20.895 -18.544  -8.248  0.00  0.00    +0.066 C 
ENDBRANCH  19  20
ENDBRANCH  18  19
ENDBRANCH  14  15
ENDBRANCH  12  13
TORSDOF 6
ENDMDL
MODEL 3
REMARK VINA RESULT:      -8.2      4.399      7.717
REMARK  Name = C:\Users\Docking\Desktop\test protocol\1iep_ligandH.pdb
REMARK  8 active torsions:
REMARK  status: ('A' for Active; 'I' for Inactive)
REMARK    1  A    between atoms: _5  and  _11
REMARK    2  A    between atoms: _19  and  _21
REMARK    3  A    between atoms: _22  and  _66
REMARK    4  A    between atoms: _27  and  _30
REMARK    5  A    between atoms: _32  and  _33
REMARK    6  A    between atoms: _38  and  _43
REMARK    7  A    between atoms: _43  and  _46
REMARK    8  A    between atoms: _53  and  _55
REMARK                            x       y       z     vdW  Elec       q    Type
REMARK                         _______ _______ _______ _____ _____    ______ ____
ROOT
ATOM     10  C   UNL     1      14.171 -20.222  -8.376  0.00  0.00    +0.038 A 
ATOM     11  C   UNL     1      15.396 -19.549  -8.141  0.00  0.00    +0.047 A 
ATOM     12  C   UNL     1      16.629 -19.985  -8.777  0.00  0.00    +0.035 A 
ATOM     32  C   UNL     1      16.577 -21.111  -9.650  0.00  0.00    +0.024 A 
ATOM     33  C   UNL     1      15.340 -21.808  -9.900  0.00  0.00    +0.007 A 
ATOM     34  C   UNL     1      14.121 -21.383  -9.273  0.00  0.00    -0.029 A 
ATOM     35  C   UNL     1      12.825 -22.172  -9.572  0.00  0.00    +0.045 C 
ENDROOT
BRANCH  10   9
ATOM      4  C   UNL     1      11.196 -20.046  -4.613  0.00  0.00    +0.077 A 
ATOM      5  C   UNL     1      11.993 -20.974  -3.864  0.00  0.00    +0.048 A 
ATOM      6  C   UNL     1      13.157 -21.479  -4.486  0.00  0.00    +0.116 A 
ATOM      7  N   UNL     1      13.489 -21.078  -5.762  0.00  0.00    -0.223 NA
ATOM      8  C   UNL     1      12.698 -20.183  -6.457  0.00  0.00    +0.220 A 
ATOM      9  N   UNL     1      13.017 -19.760  -7.738  0.00  0.00    -0.283 N 
ATOM     36  H   UNL     1      12.403 -19.104  -8.221  0.00  0.00    +0.155 HD
ATOM     37  N   UNL     1      11.580 -19.687  -5.886  0.00  0.00    -0.214 NA
BRANCH   4   3
ATOM      1  C   UNL     1       7.437 -19.095  -4.093  0.00  0.00    +0.020 A 
ATOM      2  C   UNL     1       8.620 -19.725  -4.634  0.00  0.00    +0.013 A 
ATOM      3  C   UNL     1       9.939 -19.422  -4.092  0.00  0.00    +0.019 A 
ATOM     38  C   UNL     1      10.027 -18.471  -2.994  0.00  0.00    +0.120 A 
ATOM     39  N   UNL     1       8.870 -17.879  -2.495  0.00  0.00    -0.263 NA
ATOM     40  C   UNL     1       7.596 -18.161  -3.010  0.00  0.00    +0.111 A 
ENDBRANCH   4   3
ENDBRANCH  10   9
BRANCH  12  13
ATOM     13  N   UNL     1      17.905 -19.346  -8.570  0.00  0.00    -0.281 N 
ATOM     14  C   UNL     1      18.277 -18.056  -8.913  0.00  0.00    +0.248 C 
ATOM     30  O   UNL     1      17.631 -17.323  -9.648  0.00  0.00    -0.270 OA
ATOM     31  H   UNL     1      18.621 -19.913  -8.115  0.00  0.00    +0.155 HD
BRANCH  14  15
ATOM     15  C   UNL     1      19.558 -17.507  -8.375  0.00  0.00    +0.037 A 
ATOM     16  C   UNL     1      20.745 -18.353  -8.227  0.00  0.00    +0.013 A 
ATOM     17  C   UNL     1      21.964 -17.802  -7.689  0.00  0.00    +0.005 A 
ATOM     18  C   UNL     1      22.001 -16.395  -7.296  0.00  0.00    -0.033 A 
ATOM     28  C   UNL     1      20.810 -15.577  -7.458  0.00  0.00    +0.005 A 
ATOM     29  C   UNL     1      19.614 -16.114  -7.984  0.00  0.00    +0.013 A 
BRANCH  18  19
ATOM     19  C   UNL     1      23.252 -15.728  -6.693  0.00  0.00    +0.119 C 
BRANCH  19  20
ATOM     20  N   UNL     1      24.578 -16.140  -7.242  0.00  0.00    -0.302 NA
ATOM     21  C   UNL     1      25.285 -17.152  -6.336  0.00  0.00    +0.066 C 
ATOM     22  C   UNL     1      26.661 -17.589  -6.937  0.00  0.00    -0.064 C 
ATOM     23  N   UNL     1      27.536 -16.353  -7.154  0.00  0.00    +0.379 N 
ATOM     24  C   UNL     1      28.851 -16.766  -7.664  0.00  0.00    -0.096 C 
ATOM     25  H   UNL     1      27.693 -15.872  -6.161  0.00  0.00    -0.082 HD
ATOM     26  C   UNL     1      26.839 -15.340  -8.051  0.00  0.00    -0.064 C 
ATOM     27  C   UNL     1      25.459 -14.935  -7.460  0.00  0.00    +0.066 C 
ENDBRANCH  19  20
ENDBRANCH  18  19
ENDBRANCH  14  15
ENDBRANCH  12  13
TORSDOF 6
ENDMDL
MODEL 4
REMARK VINA RESULT:      -8.1      1.816      2.000
REMARK  Name = C:\Users\Docking\Desktop\test protocol\1iep_ligandH.pdb
REMARK  8 active torsions:
REMARK  status: ('A' for Active; 'I' for Inactive)
REMARK    1  A    between atoms: _5  and  _11
REMARK    2  A    between atoms: _19  and  _21
REMARK    3  A    between atoms: _22  and  _66
REMARK    4  A    between atoms: _27  and  _30
REMARK    5  A    between atoms: _32  and  _33
REMARK    6  A    between atoms: _38  and  _43
REMARK    7  A    between atoms: _43  and  _46
REMARK    8  A    between atoms: _53  and  _55
REMARK                            x       y       z     vdW  Elec       q    Type
REMARK                         _______ _______ _______ _____ _____    ______ ____
ROOT
ATOM     10  C   UNL     1       9.437 -17.470  -3.914  0.00  0.00    +0.038 A 
ATOM     11  C   UNL     1      10.808 -17.506  -4.275  0.00  0.00    +0.047 A 
ATOM     12  C   UNL     1      11.565 -18.747  -4.235  0.00  0.00    +0.035 A 
ATOM     32  C   UNL     1      10.892 -19.935  -3.825  0.00  0.00    +0.024 A 
ATOM     33  C   UNL     1       9.499 -19.917  -3.454  0.00  0.00    +0.007 A 
ATOM     34  C   UNL     1       8.748 -18.695  -3.488  0.00  0.00    -0.029 A 
ATOM     35  C   UNL     1       7.259 -18.733  -3.073  0.00  0.00    +0.045 C 
ENDROOT
BRANCH  10   9
ATOM      4  C   UNL     1       7.958 -13.354  -1.937  0.00  0.00    +0.077 A 
ATOM      5  C   UNL     1       8.565 -13.672  -0.677  0.00  0.00    +0.048 A 
ATOM      6  C   UNL     1       9.242 -14.908  -0.577  0.00  0.00    +0.116 A 
ATOM      7  N   UNL     1       9.302 -15.755  -1.663  0.00  0.00    -0.223 NA
ATOM      8  C   UNL     1       8.704 -15.418  -2.863  0.00  0.00    +0.220 A 
ATOM      9  N   UNL     1       8.759 -16.251  -3.970  0.00  0.00    -0.283 N 
ATOM     36  H   UNL     1       8.298 -15.969  -4.836  0.00  0.00    +0.155 HD
ATOM     37  N   UNL     1       8.050 -14.244  -2.984  0.00  0.00    -0.214 NA
BRANCH   4   3
ATOM      1  C   UNL     1       6.513 -10.166  -3.683  0.00  0.00    +0.020 A 
ATOM      2  C   UNL     1       7.255 -11.389  -3.481  0.00  0.00    +0.013 A 
ATOM      3  C   UNL     1       7.209 -12.084  -2.201  0.00  0.00    +0.019 A 
ATOM     38  C   UNL     1       6.397 -11.511  -1.138  0.00  0.00    +0.120 A 
ATOM     39  N   UNL     1       5.694 -10.331  -1.362  0.00  0.00    -0.263 NA
ATOM     40  C   UNL     1       5.732  -9.652  -2.589  0.00  0.00    +0.111 A 
ENDBRANCH   4   3
ENDBRANCH  10   9
BRANCH  12  13
ATOM     13  N   UNL     1      12.961 -18.843  -4.582  0.00  0.00    -0.281 N 
ATOM     14  C   UNL     1      14.047 -18.925  -3.727  0.00  0.00    +0.248 C 
ATOM     30  O   UNL     1      13.998 -18.713  -2.525  0.00  0.00    -0.270 OA
ATOM     31  H   UNL     1      13.174 -18.851  -5.580  0.00  0.00    +0.155 HD
BRANCH  14  15
ATOM     15  C   UNL     1      15.385 -19.281  -4.291  0.00  0.00    +0.037 A 
ATOM     16  C   UNL     1      16.289 -18.251  -4.810  0.00  0.00    +0.013 A 
ATOM     17  C   UNL     1      17.567 -18.623  -5.365  0.00  0.00    +0.005 A 
ATOM     18  C   UNL     1      17.948 -20.032  -5.402  0.00  0.00    -0.033 A 
ATOM     28  C   UNL     1      17.034 -21.033  -4.876  0.00  0.00    +0.005 A 
ATOM     29  C   UNL     1      15.781 -20.672  -4.332  0.00  0.00    +0.013 A 
BRANCH  18  19
ATOM     19  C   UNL     1      19.283 -20.522  -5.995  0.00  0.00    +0.119 C 
BRANCH  19  20
ATOM     20  N   UNL     1      19.269 -20.995  -7.411  0.00  0.00    -0.302 NA
ATOM     21  C   UNL     1      19.391 -22.518  -7.509  0.00  0.00    +0.066 C 
ATOM     22  C   UNL     1      19.352 -22.998  -8.997  0.00  0.00    -0.064 C 
ATOM     23  N   UNL     1      20.474 -22.313  -9.779  0.00  0.00    +0.379 N 
ATOM     24  C   UNL     1      20.477 -22.806 -11.165  0.00  0.00    -0.096 C 
ATOM     25  H   UNL     1      21.442 -22.611  -9.313  0.00  0.00    -0.082 HD
ATOM     26  C   UNL     1      20.362 -20.798  -9.685  0.00  0.00    -0.064 C 
ATOM     27  C   UNL     1      20.372 -20.335  -8.201  0.00  0.00    +0.066 C 
ENDBRANCH  19  20
ENDBRANCH  18  19
ENDBRANCH  14  15
ENDBRANCH  12  13
TORSDOF 6
ENDMDL
MODEL 5
REMARK VINA RESULT:      -8.0      4.365     12.440
REMARK  Name = C:\Users\Docking\Desktop\test protocol\1iep_ligandH.pdb
REMARK  8 active torsions:
REMARK  status: ('A' for Active; 'I' for Inactive)
REMARK    1  A    between atoms: _5  and  _11
REMARK    2  A    between atoms: _19  and  _21
REMARK    3  A    between atoms: _22  and  _66
REMARK    4  A    between atoms: _27  and  _30
REMARK    5  A    between atoms: _32  and  _33
REMARK    6  A    between atoms: _38  and  _43
REMARK    7  A    between atoms: _43  and  _46
REMARK    8  A    between atoms: _53  and  _55
REMARK                            x       y       z     vdW  Elec       q    Type
REMARK                         _______ _______ _______ _____ _____    ______ ____
ROOT
ATOM     10  C   UNL     1      16.515 -20.143  -8.508  0.00  0.00    +0.038 A 
ATOM     11  C   UNL     1      15.320 -19.942  -7.772  0.00  0.00    +0.047 A 
ATOM     12  C   UNL     1      14.025 -20.306  -8.325  0.00  0.00    +0.035 A 
ATOM     32  C   UNL     1      13.985 -20.875  -9.632  0.00  0.00    +0.024 A 
ATOM     33  C   UNL     1      15.190 -21.086 -10.394  0.00  0.00    +0.007 A 
ATOM     34  C   UNL     1      16.470 -20.726  -9.854  0.00  0.00    -0.029 A 
ATOM     35  C   UNL     1      17.729 -20.969 -10.719  0.00  0.00    +0.045 C 
ENDROOT
BRANCH  10   9
ATOM      4  C   UNL     1      20.030 -16.978  -7.690  0.00  0.00    +0.077 A 
ATOM      5  C   UNL     1      19.404 -15.982  -8.510  0.00  0.00    +0.048 A 
ATOM      6  C   UNL     1      18.182 -16.326  -9.131  0.00  0.00    +0.116 A 
ATOM      7  N   UNL     1      17.636 -17.576  -8.938  0.00  0.00    -0.223 NA
ATOM      8  C   UNL     1      18.266 -18.515  -8.141  0.00  0.00    +0.220 A 
ATOM      9  N   UNL     1      17.731 -19.776  -7.927  0.00  0.00    -0.283 N 
ATOM     36  H   UNL     1      18.231 -20.442  -7.339  0.00  0.00    +0.155 HD
ATOM     37  N   UNL     1      19.435 -18.211  -7.539  0.00  0.00    -0.214 NA
BRANCH   4   3
ATOM      1  C   UNL     1      23.841 -16.809  -6.824  0.00  0.00    +0.020 A 
ATOM      2  C   UNL     1      22.622 -17.034  -7.567  0.00  0.00    +0.013 A 
ATOM      3  C   UNL     1      21.322 -16.764  -6.965  0.00  0.00    +0.019 A 
ATOM     38  C   UNL     1      21.290 -16.263  -5.599  0.00  0.00    +0.120 A 
ATOM     39  N   UNL     1      22.480 -16.059  -4.908  0.00  0.00    -0.263 NA
ATOM     40  C   UNL     1      23.737 -16.316  -5.476  0.00  0.00    +0.111 A 
ENDBRANCH   4   3
ENDBRANCH  10   9
BRANCH  12  13
ATOM     13  N   UNL     1      12.777 -20.117  -7.628  0.00  0.00    -0.281 N 
ATOM     14  C   UNL     1      12.295 -20.824  -6.539  0.00  0.00    +0.248 C 
ATOM     30  O   UNL     1      12.772 -21.872  -6.129  0.00  0.00    -0.270 OA
ATOM     31  H   UNL     1      12.175 -19.373  -7.981  0.00  0.00    +0.155 HD
BRANCH  14  15
ATOM     15  C   UNL     1      11.102 -20.299  -5.807  0.00  0.00    +0.037 A 
ATOM     16  C   UNL     1      11.178 -19.070  -5.013  0.00  0.00    +0.013 A 
ATOM     17  C   UNL     1      10.017 -18.594  -4.304  0.00  0.00    +0.005 A 
ATOM     18  C   UNL     1       8.768 -19.348  -4.387  0.00  0.00    -0.033 A 
ATOM     28  C   UNL     1       8.719 -20.561  -5.187  0.00  0.00    +0.005 A 
ATOM     29  C   UNL     1       9.856 -21.031  -5.882  0.00  0.00    +0.013 A 
BRANCH  18  19
ATOM     19  C   UNL     1       7.486 -18.926  -3.646  0.00  0.00    +0.119 C 
BRANCH  19  20
ATOM     20  N   UNL     1       6.755 -19.984  -2.887  0.00  0.00    -0.302 NA
ATOM     21  C   UNL     1       5.264 -20.015  -3.234  0.00  0.00    +0.066 C 
ATOM     22  C   UNL     1       4.519 -21.142  -2.448  0.00  0.00    -0.064 C 
ATOM     23  N   UNL     1       4.721 -20.932  -0.947  0.00  0.00    +0.379 N 
ATOM     24  C   UNL     1       3.974 -21.957  -0.203  0.00  0.00    -0.096 C 
ATOM     25  H   UNL     1       4.287 -19.939  -0.683  0.00  0.00    -0.082 HD
ATOM     26  C   UNL     1       6.201 -20.898  -0.593  0.00  0.00    -0.064 C 
ATOM     27  C   UNL     1       6.937 -19.793  -1.401  0.00  0.00    +0.066 C 
ENDBRANCH  19  20
ENDBRANCH  18  19
ENDBRANCH  14  15
ENDBRANCH  12  13
TORSDOF 6
ENDMDL
