MODEL 1
REMARK VINA RESULT:      -9.1      0.000      0.000
REMARK  Name = C:\Users\Docking\Desktop\test protocol\1iep_ligandH.pdb
REMARK  8 active torsions:
REMARK  status: ('A' for Active; 'I' for Inactive)
REMARK    1  A    between atoms: _5  and  _11
REMARK    2  A    between atoms: _19  and  _21
REMARK    3  A    between atoms: _22  and  _66
REMARK    4  A    between atoms: _27  and  _30
REMARK    5  A    between atoms: _32  and  _33
REMARK    6  A    between atoms: _38  and  _43
REMARK    7  A    between atoms: _43  and  _46
REMARK    8  A    between atoms: _53  and  _55
REMARK                            x       y       z     vdW  Elec       q    Type
REMARK                         _______ _______ _______ _____ _____    ______ ____
ROOT
ATOM     10  C   UNL     1      23.294  23.295   7.086  0.00  0.00    +0.038 A 
ATOM     11  C   UNL     1      23.105  22.044   6.446  0.00  0.00    +0.047 A 
ATOM     12  C   UNL     1      23.944  21.635   5.330  0.00  0.00    +0.035 A 
ATOM     32  C   UNL     1      24.968  22.525   4.893  0.00  0.00    +0.024 A 
ATOM     33  C   UNL     1      25.173  23.801   5.531  0.00  0.00    +0.007 A 
ATOM     34  C   UNL     1      24.348  24.211   6.631  0.00  0.00    -0.029 A 
ATOM     35  C   UNL     1      24.609  25.593   7.273  0.00  0.00    +0.045 C 
ENDROOT
BRANCH  10   9
ATOM      4  C   UNL     1      22.396  23.746  11.779  0.00  0.00    +0.077 A 
ATOM      5  C   UNL     1      23.687  23.232  12.136  0.00  0.00    +0.048 A 
ATOM      6  C   UNL     1      24.550  22.856  11.082  0.00  0.00    +0.116 A 
ATOM      7  N   UNL     1      24.142  22.990   9.773  0.00  0.00    -0.223 NA
ATOM      8  C   UNL     1      22.889  23.487   9.463  0.00  0.00    +0.220 A 
ATOM      9  N   UNL     1      22.461  23.637   8.153  0.00  0.00    -0.283 N 
ATOM     36  H   UNL     1      21.527  24.000   7.967  0.00  0.00    +0.155 HD
ATOM     37  N   UNL     1      22.046  23.851  10.452  0.00  0.00    -0.214 NA
BRANCH   4   3
ATOM      1  C   UNL     1      19.173  23.938  13.988  0.00  0.00    +0.020 A 
ATOM      2  C   UNL     1      20.127  23.468  13.010  0.00  0.00    +0.013 A 
ATOM      3  C   UNL     1      21.374  24.188  12.780  0.00  0.00    +0.019 A 
ATOM     38  C   UNL     1      21.627  25.388  13.563  0.00  0.00    +0.120 A 
ATOM     39  N   UNL     1      20.689  25.817  14.497  0.00  0.00    -0.263 NA
ATOM     40  C   UNL     1      19.486  25.133  14.726  0.00  0.00    +0.111 A 
ENDBRANCH   4   3
ENDBRANCH  10   9
BRANCH  12  13
ATOM     13  N   UNL     1      23.793  20.380   4.636  0.00  0.00    -0.281 N 
ATOM     14  C   UNL     1      23.821  19.102   5.171  0.00  0.00    +0.248 C 
ATOM     30  O   UNL     1      24.193  18.835   6.304  0.00  0.00    -0.270 OA
ATOM     31  H   UNL     1      23.650  20.441   3.628  0.00  0.00    +0.155 HD
BRANCH  14  15
ATOM     15  C   UNL     1      23.384  17.954   4.320  0.00  0.00    +0.037 A 
ATOM     16  C   UNL     1      23.536  17.986   2.863  0.00  0.00    +0.013 A 
ATOM     17  C   UNL     1      23.091  16.872   2.065  0.00  0.00    +0.005 A 
ATOM     18  C   UNL     1      22.490  15.714   2.722  0.00  0.00    -0.033 A 
ATOM     28  C   UNL     1      22.356  15.706   4.170  0.00  0.00    +0.005 A 
ATOM     29  C   UNL     1      22.790  16.797   4.956  0.00  0.00    +0.013 A 
BRANCH  18  19
ATOM     19  C   UNL     1      21.968  14.490   1.947  0.00  0.00    +0.119 C 
BRANCH  19  20
ATOM     20  N   UNL     1      22.689  14.115   0.694  0.00  0.00    -0.302 NA
ATOM     21  C   UNL     1      21.850  14.394  -0.556  0.00  0.00    +0.066 C 
ATOM     22  C   UNL     1      22.628  14.018  -1.859  0.00  0.00    -0.064 C 
ATOM     23  N   UNL     1      23.036  12.545  -1.798  0.00  0.00    +0.379 N 
ATOM     24  C   UNL     1      23.717  12.173  -3.047  0.00  0.00    -0.096 C 
ATOM     25  H   UNL     1      22.104  11.938  -1.727  0.00  0.00    -0.082 HD
ATOM     26  C   UNL     1      23.868  12.258  -0.556  0.00  0.00    -0.064 C 
ATOM     27  C   UNL     1      23.098  12.663   0.731  0.00  0.00    +0.066 C 
ENDBRANCH  19  20
ENDBRANCH  18  19
ENDBRANCH  14  15
ENDBRANCH  12  13
TORSDOF 6
ENDMDL
MODEL 2
REMARK VINA RESULT:      -9.0      5.325      8.653
REMARK  Name = C:\Users\Docking\Desktop\test protocol\1iep_ligandH.pdb
REMARK  8 active torsions:
REMARK  status: ('A' for Active; 'I' for Inactive)
REMARK    1  A    between atoms: _5  and  _11
REMARK    2  A    between atoms: _19  and  _21
REMARK    3  A    between atoms: _22  and  _66
REMARK    4  A    between atoms: _27  and  _30
REMARK    5  A    between atoms: _32  and  _33
REMARK    6  A    between atoms: _38  and  _43
REMARK    7  A    between atoms: _43  and  _46
REMARK    8  A    between atoms: _53  and  _55
REMARK                            x       y       z     vdW  Elec       q    Type
REMARK                         _______ _______ _______ _____ _____    ______ ____
ROOT
ATOM     10  C   UNL     1      23.932  27.228  13.664  0.00  0.00    +0.038 A 
ATOM     11  C   UNL     1      24.205  26.655  12.396  0.00  0.00    +0.047 A 
ATOM     12  C   UNL     1      23.283  25.712  11.782  0.00  0.00    +0.035 A 
ATOM     32  C   UNL     1      22.090  25.377  12.487  0.00  0.00    +0.024 A 
ATOM     33  C   UNL     1      21.798  25.949  13.778  0.00  0.00    +0.007 A 
ATOM     34  C   UNL     1      22.705  26.878  14.389  0.00  0.00    -0.029 A 
ATOM     35  C   UNL     1      22.343  27.455  15.778  0.00  0.00    +0.045 C 
ENDROOT
BRANCH  10   9
ATOM      4  C   UNL     1      27.711  28.261  16.438  0.00  0.00    +0.077 A 
ATOM      5  C   UNL     1      27.846  26.897  16.863  0.00  0.00    +0.048 A 
ATOM      6  C   UNL     1      26.919  25.963  16.350  0.00  0.00    +0.116 A 
ATOM      7  N   UNL     1      25.934  26.372  15.477  0.00  0.00    -0.223 NA
ATOM      8  C   UNL     1      25.830  27.695  15.089  0.00  0.00    +0.220 A 
ATOM      9  N   UNL     1      24.852  28.128  14.207  0.00  0.00    -0.283 N 
ATOM     36  H   UNL     1      24.804  29.113  13.951  0.00  0.00    +0.155 HD
ATOM     37  N   UNL     1      26.703  28.607  15.566  0.00  0.00    -0.214 NA
BRANCH   4   3
ATOM      1  C   UNL     1      29.620  31.668  16.661  0.00  0.00    +0.020 A 
ATOM      2  C   UNL     1      28.731  30.634  16.183  0.00  0.00    +0.013 A 
ATOM      3  C   UNL     1      28.616  29.365  16.889  0.00  0.00    +0.019 A 
ATOM     38  C   UNL     1      29.419  29.172  18.087  0.00  0.00    +0.120 A 
ATOM     39  N   UNL     1      30.268  30.185  18.523  0.00  0.00    -0.263 NA
ATOM     40  C   UNL     1      30.388  31.410  17.850  0.00  0.00    +0.111 A 
ENDBRANCH   4   3
ENDBRANCH  10   9
BRANCH  12  13
ATOM     13  N   UNL     1      23.510  25.092  10.500  0.00  0.00    -0.281 N 
ATOM     14  C   UNL     1      24.622  24.377  10.085  0.00  0.00    +0.248 C 
ATOM     30  O   UNL     1      25.686  24.345  10.686  0.00  0.00    -0.270 OA
ATOM     31  H   UNL     1      22.761  25.192   9.816  0.00  0.00    +0.155 HD
BRANCH  14  15
ATOM     15  C   UNL     1      24.546  23.598   8.812  0.00  0.00    +0.037 A 
ATOM     16  C   UNL     1      24.089  22.206   8.800  0.00  0.00    +0.013 A 
ATOM     17  C   UNL     1      24.041  21.472   7.560  0.00  0.00    +0.005 A 
ATOM     18  C   UNL     1      24.450  22.129   6.322  0.00  0.00    -0.033 A 
ATOM     28  C   UNL     1      24.894  23.513   6.362  0.00  0.00    +0.005 A 
ATOM     29  C   UNL     1      24.944  24.235   7.575  0.00  0.00    +0.013 A 
BRANCH  18  19
ATOM     19  C   UNL     1      24.451  21.416   4.957  0.00  0.00    +0.119 C 
BRANCH  19  20
ATOM     20  N   UNL     1      23.209  20.686   4.566  0.00  0.00    -0.302 NA
ATOM     21  C   UNL     1      23.510  19.466   3.691  0.00  0.00    +0.066 C 
ATOM     22  C   UNL     1      22.201  18.701   3.310  0.00  0.00    -0.064 C 
ATOM     23  N   UNL     1      21.245  19.657   2.595  0.00  0.00    +0.379 N 
ATOM     24  C   UNL     1      20.037  18.926   2.184  0.00  0.00    -0.096 C 
ATOM     25  H   UNL     1      21.755  20.015   1.671  0.00  0.00    -0.082 HD
ATOM     26  C   UNL     1      20.942  20.874   3.457  0.00  0.00    -0.064 C 
ATOM     27  C   UNL     1      22.252  21.610   3.854  0.00  0.00    +0.066 C 
ENDBRANCH  19  20
ENDBRANCH  18  19
ENDBRANCH  14  15
ENDBRANCH  12  13
TORSDOF 6
ENDMDL
MODEL 3
REMARK VINA RESULT:      -8.6     11.054     12.160
REMARK  Name = C:\Users\Docking\Desktop\test protocol\1iep_ligandH.pdb
REMARK  8 active torsions:
REMARK  status: ('A' for Active; 'I' for Inactive)
REMARK    1  A    between atoms: _5  and  _11
REMARK    2  A    between atoms: _19  and  _21
REMARK    3  A    between atoms: _22  and  _66
REMARK    4  A    between atoms: _27  and  _30
REMARK    5  A    between atoms: _32  and  _33
REMARK    6  A    between atoms: _38  and  _43
REMARK    7  A    between atoms: _43  and  _46
REMARK    8  A    between atoms: _53  and  _55
REMARK                            x       y       z     vdW  Elec       q    Type
REMARK                         _______ _______ _______ _____ _____    ______ ____
ROOT
ATOM     10  C   UNL     1      25.573  27.166  13.452  0.00  0.00    +0.038 A 
ATOM     11  C   UNL     1      25.580  27.575  12.094  0.00  0.00    +0.047 A 
ATOM     12  C   UNL     1      26.691  28.333  11.542  0.00  0.00    +0.035 A 
ATOM     32  C   UNL     1      27.782  28.656  12.401  0.00  0.00    +0.024 A 
ATOM     33  C   UNL     1      27.792  28.249  13.784  0.00  0.00    +0.007 A 
ATOM     34  C   UNL     1      26.697  27.503  14.335  0.00  0.00    -0.029 A 
ATOM     35  C   UNL     1      26.757  27.098  15.826  0.00  0.00    +0.045 C 
ENDROOT
BRANCH  10   9
ATOM      4  C   UNL     1      21.192  26.897  15.394  0.00  0.00    +0.077 A 
ATOM      5  C   UNL     1      21.083  28.324  15.490  0.00  0.00    +0.048 A 
ATOM      6  C   UNL     1      22.179  29.091  15.036  0.00  0.00    +0.116 A 
ATOM      7  N   UNL     1      23.296  28.466  14.524  0.00  0.00    -0.223 NA
ATOM      8  C   UNL     1      23.370  27.088  14.447  0.00  0.00    +0.220 A 
ATOM      9  N   UNL     1      24.480  26.439  13.930  0.00  0.00    -0.283 N 
ATOM     36  H   UNL     1      24.499  25.420  13.897  0.00  0.00    +0.155 HD
ATOM     37  N   UNL     1      22.337  26.333  14.876  0.00  0.00    -0.214 NA
BRANCH   4   3
ATOM      1  C   UNL     1      17.781  25.438  16.633  0.00  0.00    +0.020 A 
ATOM      2  C   UNL     1      18.784  26.392  16.220  0.00  0.00    +0.013 A 
ATOM      3  C   UNL     1      20.117  25.951  15.830  0.00  0.00    +0.019 A 
ATOM     38  C   UNL     1      20.405  24.525  15.869  0.00  0.00    +0.120 A 
ATOM     39  N   UNL     1      19.420  23.629  16.273  0.00  0.00    -0.263 NA
ATOM     40  C   UNL     1      18.134  24.043  16.651  0.00  0.00    +0.111 A 
ENDBRANCH   4   3
ENDBRANCH  10   9
BRANCH  12  13
ATOM     13  N   UNL     1      26.749  28.783  10.173  0.00  0.00    -0.281 N 
ATOM     14  C   UNL     1      26.051  28.288   9.084  0.00  0.00    +0.248 C 
ATOM     30  O   UNL     1      25.427  27.237   9.082  0.00  0.00    -0.270 OA
ATOM     31  H   UNL     1      27.382  29.560   9.984  0.00  0.00    +0.155 HD
BRANCH  14  15
ATOM     15  C   UNL     1      26.060  29.065   7.807  0.00  0.00    +0.037 A 
ATOM     16  C   UNL     1      24.834  29.664   7.273  0.00  0.00    +0.013 A 
ATOM     17  C   UNL     1      24.867  30.394   6.031  0.00  0.00    +0.005 A 
ATOM     18  C   UNL     1      26.133  30.529   5.313  0.00  0.00    -0.033 A 
ATOM     28  C   UNL     1      27.335  29.929   5.868  0.00  0.00    +0.005 A 
ATOM     29  C   UNL     1      27.306  29.212   7.085  0.00  0.00    +0.013 A 
BRANCH  18  19
ATOM     19  C   UNL     1      26.257  31.273   3.970  0.00  0.00    +0.119 C 
BRANCH  19  20
ATOM     20  N   UNL     1      27.603  31.297   3.324  0.00  0.00    -0.302 NA
ATOM     21  C   UNL     1      28.308  32.643   3.514  0.00  0.00    +0.066 C 
ATOM     22  C   UNL     1      29.724  32.643   2.852  0.00  0.00    -0.064 C 
ATOM     23  N   UNL     1      29.588  32.308   1.365  0.00  0.00    +0.379 N 
ATOM     24  C   UNL     1      30.912  32.364   0.727  0.00  0.00    -0.096 C 
ATOM     25  H   UNL     1      28.954  33.096   0.898  0.00  0.00    -0.082 HD
ATOM     26  C   UNL     1      28.886  30.972   1.167  0.00  0.00    -0.064 C 
ATOM     27  C   UNL     1      27.492  30.973   1.854  0.00  0.00    +0.066 C 
ENDBRANCH  19  20
ENDBRANCH  18  19
ENDBRANCH  14  15
ENDBRANCH  12  13
TORSDOF 6
ENDMDL
MODEL 4
REMARK VINA RESULT:      -8.6      9.187     11.533
REMARK  Name = C:\Users\Docking\Desktop\test protocol\1iep_ligandH.pdb
REMARK  8 active torsions:
REMARK  status: ('A' for Active; 'I' for Inactive)
REMARK    1  A    between atoms: _5  and  _11
REMARK    2  A    between atoms: _19  and  _21
REMARK    3  A    between atoms: _22  and  _66
REMARK    4  A    between atoms: _27  and  _30
REMARK    5  A    between atoms: _32  and  _33
REMARK    6  A    between atoms: _38  and  _43
REMARK    7  A    between atoms: _43  and  _46
REMARK    8  A    between atoms: _53  and  _55
REMARK                            x       y       z     vdW  Elec       q    Type
REMARK                         _______ _______ _______ _____ _____    ______ ____
ROOT
ATOM     10  C   UNL     1      24.548  24.744  10.854  0.00  0.00    +0.038 A 
ATOM     11  C   UNL     1      24.525  25.784   9.890  0.00  0.00    +0.047 A 
ATOM     12  C   UNL     1      25.672  26.041   9.034  0.00  0.00    +0.035 A 
ATOM     32  C   UNL     1      26.826  25.219   9.185  0.00  0.00    +0.024 A 
ATOM     33  C   UNL     1      26.867  24.158  10.161  0.00  0.00    +0.007 A 
ATOM     34  C   UNL     1      25.739  23.901  11.010  0.00  0.00    -0.029 A 
ATOM     35  C   UNL     1      25.841  22.755  12.044  0.00  0.00    +0.045 C 
ENDROOT
BRANCH  10   9
ATOM      4  C   UNL     1      21.693  25.916  14.531  0.00  0.00    +0.077 A 
ATOM      5  C   UNL     1      22.538  27.009  14.916  0.00  0.00    +0.048 A 
ATOM      6  C   UNL     1      23.702  27.232  14.146  0.00  0.00    +0.116 A 
ATOM      7  N   UNL     1      23.989  26.416  13.073  0.00  0.00    -0.223 NA
ATOM      8  C   UNL     1      23.153  25.369  12.730  0.00  0.00    +0.220 A 
ATOM      9  N   UNL     1      23.418  24.541  11.650  0.00  0.00    -0.283 N 
ATOM     36  H   UNL     1      22.780  23.775  11.434  0.00  0.00    +0.155 HD
ATOM     37  N   UNL     1      22.037  25.135  13.450  0.00  0.00    -0.214 NA
BRANCH   4   3
ATOM      1  C   UNL     1      18.904  23.913  16.405  0.00  0.00    +0.020 A 
ATOM      2  C   UNL     1      20.143  24.208  15.721  0.00  0.00    +0.013 A 
ATOM      3  C   UNL     1      20.427  25.555  15.243  0.00  0.00    +0.019 A 
ATOM     38  C   UNL     1      19.429  26.589  15.475  0.00  0.00    +0.120 A 
ATOM     39  N   UNL     1      18.245  26.275  16.135  0.00  0.00    -0.263 NA
ATOM     40  C   UNL     1      17.960  24.982  16.598  0.00  0.00    +0.111 A 
ENDBRANCH   4   3
ENDBRANCH  10   9
BRANCH  12  13
ATOM     13  N   UNL     1      25.710  27.088   8.042  0.00  0.00    -0.281 N 
ATOM     14  C   UNL     1      24.767  27.373   7.069  0.00  0.00    +0.248 C 
ATOM     30  O   UNL     1      23.842  26.633   6.764  0.00  0.00    -0.270 OA
ATOM     31  H   UNL     1      26.532  27.692   8.061  0.00  0.00    +0.155 HD
BRANCH  14  15
ATOM     15  C   UNL     1      24.874  28.658   6.314  0.00  0.00    +0.037 A 
ATOM     16  C   UNL     1      24.007  28.941   5.167  0.00  0.00    +0.013 A 
ATOM     17  C   UNL     1      24.143  30.181   4.446  0.00  0.00    +0.005 A 
ATOM     18  C   UNL     1      25.150  31.150   4.871  0.00  0.00    -0.033 A 
ATOM     28  C   UNL     1      25.993  30.846   6.015  0.00  0.00    +0.005 A 
ATOM     29  C   UNL     1      25.864  29.631   6.724  0.00  0.00    +0.013 A 
BRANCH  18  19
ATOM     19  C   UNL     1      25.379  32.490   4.147  0.00  0.00    +0.119 C 
BRANCH  19  20
ATOM     20  N   UNL     1      26.642  32.637   3.364  0.00  0.00    -0.302 NA
ATOM     21  C   UNL     1      27.136  31.296   2.814  0.00  0.00    +0.066 C 
ATOM     22  C   UNL     1      28.446  31.471   1.978  0.00  0.00    -0.064 C 
ATOM     23  N   UNL     1      29.519  32.128   2.848  0.00  0.00    +0.379 N 
ATOM     24  C   UNL     1      30.769  32.242   2.083  0.00  0.00    -0.096 C 
ATOM     25  H   UNL     1      29.712  31.453   3.714  0.00  0.00    -0.082 HD
ATOM     26  C   UNL     1      29.035  33.461   3.401  0.00  0.00    -0.064 C 
ATOM     27  C   UNL     1      27.717  33.280   4.205  0.00  0.00    +0.066 C 
ENDBRANCH  19  20
ENDBRANCH  18  19
ENDBRANCH  14  15
ENDBRANCH  12  13
TORSDOF 6
ENDMDL
MODEL 5
REMARK VINA RESULT:      -8.6      3.905      6.632
REMARK  Name = C:\Users\Docking\Desktop\test protocol\1iep_ligandH.pdb
REMARK  8 active torsions:
REMARK  status: ('A' for Active; 'I' for Inactive)
REMARK    1  A    between atoms: _5  and  _11
REMARK    2  A    between atoms: _19  and  _21
REMARK    3  A    between atoms: _22  and  _66
REMARK    4  A    between atoms: _27  and  _30
REMARK    5  A    between atoms: _32  and  _33
REMARK    6  A    between atoms: _38  and  _43
REMARK    7  A    between atoms: _43  and  _46
REMARK    8  A    between atoms: _53  and  _55
REMARK                            x       y       z     vdW  Elec       q    Type
REMARK                         _______ _______ _______ _____ _____    ______ ____
ROOT
ATOM     10  C   UNL     1      24.910  25.269   7.434  0.00  0.00    +0.038 A 
ATOM     11  C   UNL     1      24.449  24.332   6.475  0.00  0.00    +0.047 A 
ATOM     12  C   UNL     1      23.775  23.109   6.882  0.00  0.00    +0.035 A 
ATOM     32  C   UNL     1      23.586  22.873   8.275  0.00  0.00    +0.024 A 
ATOM     33  C   UNL     1      24.050  23.814   9.263  0.00  0.00    +0.007 A 
ATOM     34  C   UNL     1      24.717  25.022   8.868  0.00  0.00    -0.029 A 
ATOM     35  C   UNL     1      25.199  25.992   9.971  0.00  0.00    +0.045 C 
ENDROOT
BRANCH  10   9
ATOM      4  C   UNL     1      24.878  29.568   5.299  0.00  0.00    +0.077 A 
ATOM      5  C   UNL     1      23.472  29.488   5.027  0.00  0.00    +0.048 A 
ATOM      6  C   UNL     1      22.795  28.321   5.446  0.00  0.00    +0.116 A 
ATOM      7  N   UNL     1      23.483  27.315   6.090  0.00  0.00    -0.223 NA
ATOM      8  C   UNL     1      24.840  27.423   6.335  0.00  0.00    +0.220 A 
ATOM      9  N   UNL     1      25.551  26.427   6.987  0.00  0.00    -0.283 N 
ATOM     36  H   UNL     1      26.552  26.542   7.143  0.00  0.00    +0.155 HD
ATOM     37  N   UNL     1      25.509  28.527   5.943  0.00  0.00    -0.214 NA
BRANCH   4   3
ATOM      1  C   UNL     1      26.976  32.866   5.460  0.00  0.00    +0.020 A 
ATOM      2  C   UNL     1      26.151  31.755   5.877  0.00  0.00    +0.013 A 
ATOM      3  C   UNL     1      25.732  30.739   4.921  0.00  0.00    +0.019 A 
ATOM     38  C   UNL     1      26.167  30.876   3.539  0.00  0.00    +0.120 A 
ATOM     39  N   UNL     1      26.960  31.957   3.166  0.00  0.00    -0.263 NA
ATOM     40  C   UNL     1      27.368  32.942   4.078  0.00  0.00    +0.111 A 
ENDBRANCH   4   3
ENDBRANCH  10   9
BRANCH  12  13
ATOM     13  N   UNL     1      23.292  22.117   5.954  0.00  0.00    -0.281 N 
ATOM     14  C   UNL     1      24.026  21.368   5.048  0.00  0.00    +0.248 C 
ATOM     30  O   UNL     1      25.189  21.593   4.748  0.00  0.00    -0.270 OA
ATOM     31  H   UNL     1      22.286  21.945   5.966  0.00  0.00    +0.155 HD
BRANCH  14  15
ATOM     15  C   UNL     1      23.369  20.212   4.367  0.00  0.00    +0.037 A 
ATOM     16  C   UNL     1      23.774  18.832   4.650  0.00  0.00    +0.013 A 
ATOM     17  C   UNL     1      23.135  17.736   3.966  0.00  0.00    +0.005 A 
ATOM     18  C   UNL     1      22.083  18.015   2.992  0.00  0.00    -0.033 A 
ATOM     28  C   UNL     1      21.697  19.393   2.734  0.00  0.00    +0.005 A 
ATOM     29  C   UNL     1      22.321  20.470   3.402  0.00  0.00    +0.013 A 
BRANCH  18  19
ATOM     19  C   UNL     1      21.361  16.909   2.200  0.00  0.00    +0.119 C 
BRANCH  19  20
ATOM     20  N   UNL     1      22.213  15.880   1.532  0.00  0.00    -0.302 NA
ATOM     21  C   UNL     1      21.981  15.836   0.019  0.00  0.00    +0.066 C 
ATOM     22  C   UNL     1      22.896  14.770  -0.667  0.00  0.00    -0.064 C 
ATOM     23  N   UNL     1      22.637  13.400  -0.039  0.00  0.00    +0.379 N 
ATOM     24  C   UNL     1      23.454  12.385  -0.721  0.00  0.00    -0.096 C 
ATOM     25  H   UNL     1      21.566  13.145  -0.214  0.00  0.00    -0.082 HD
ATOM     26  C   UNL     1      22.863  13.435   1.466  0.00  0.00    -0.064 C 
ATOM     27  C   UNL     1      21.970  14.518   2.133  0.00  0.00    +0.066 C 
ENDBRANCH  19  20
ENDBRANCH  18  19
ENDBRANCH  14  15
ENDBRANCH  12  13
TORSDOF 6
ENDMDL
