MODEL 1
REMARK VINA RESULT:      -8.7      0.000      0.000
REMARK  Name = C:\Users\Docking\Desktop\test protocol\1iep_ligandH.pdb
REMARK  8 active torsions:
REMARK  status: ('A' for Active; 'I' for Inactive)
REMARK    1  A    between atoms: _5  and  _11
REMARK    2  A    between atoms: _19  and  _21
REMARK    3  A    between atoms: _22  and  _66
REMARK    4  A    between atoms: _27  and  _30
REMARK    5  A    between atoms: _32  and  _33
REMARK    6  A    between atoms: _38  and  _43
REMARK    7  A    between atoms: _43  and  _46
REMARK    8  A    between atoms: _53  and  _55
REMARK                            x       y       z     vdW  Elec       q    Type
REMARK                         _______ _______ _______ _____ _____    ______ ____
ROOT
ATOM     10  C   UNL     1       9.292  17.804   4.296  0.00  0.00    +0.038 A 
ATOM     11  C   UNL     1      10.616  18.000   4.765  0.00  0.00    +0.047 A 
ATOM     12  C   UNL     1      11.190  19.332   4.864  0.00  0.00    +0.035 A 
ATOM     32  C   UNL     1      10.386  20.445   4.479  0.00  0.00    +0.024 A 
ATOM     33  C   UNL     1       9.039  20.264   3.999  0.00  0.00    +0.007 A 
ATOM     34  C   UNL     1       8.468  18.952   3.897  0.00  0.00    -0.029 A 
ATOM     35  C   UNL     1       7.020  18.817   3.370  0.00  0.00    +0.045 C 
ENDROOT
BRANCH  10   9
ATOM      4  C   UNL     1       8.332  13.770   1.878  0.00  0.00    +0.077 A 
ATOM      5  C   UNL     1       8.848  14.311   0.654  0.00  0.00    +0.048 A 
ATOM      6  C   UNL     1       9.344  15.634   0.687  0.00  0.00    +0.116 A 
ATOM      7  N   UNL     1       9.322  16.352   1.863  0.00  0.00    -0.223 NA
ATOM      8  C   UNL     1       8.816  15.801   3.026  0.00  0.00    +0.220 A 
ATOM      9  N   UNL     1       8.791  16.503   4.221  0.00  0.00    -0.283 N 
ATOM     36  H   UNL     1       8.402  16.064   5.056  0.00  0.00    +0.155 HD
ATOM     37  N   UNL     1       8.334  14.541   3.020  0.00  0.00    -0.214 NA
BRANCH   4   3
ATOM      1  C   UNL     1       6.276  10.502   1.252  0.00  0.00    +0.020 A 
ATOM      2  C   UNL     1       6.781  11.846   1.086  0.00  0.00    +0.013 A 
ATOM      3  C   UNL     1       7.775  12.386   2.005  0.00  0.00    +0.019 A 
ATOM     38  C   UNL     1       8.242  11.535   3.088  0.00  0.00    +0.120 A 
ATOM     39  N   UNL     1       7.737  10.245   3.224  0.00  0.00    -0.263 NA
ATOM     40  C   UNL     1       6.779   9.715   2.347  0.00  0.00    +0.111 A 
ENDBRANCH   4   3
ENDBRANCH  10   9
BRANCH  12  13
ATOM     13  N   UNL     1      12.532  19.591   5.325  0.00  0.00    -0.281 N 
ATOM     14  C   UNL     1      12.924  20.286   6.458  0.00  0.00    +0.248 C 
ATOM     30  O   UNL     1      12.179  20.976   7.137  0.00  0.00    -0.270 OA
ATOM     31  H   UNL     1      13.284  19.218   4.745  0.00  0.00    +0.155 HD
BRANCH  14  15
ATOM     15  C   UNL     1      14.353  20.214   6.890  0.00  0.00    +0.037 A 
ATOM     16  C   UNL     1      15.398  19.736   5.982  0.00  0.00    +0.013 A 
ATOM     17  C   UNL     1      16.766  19.661   6.430  0.00  0.00    +0.005 A 
ATOM     18  C   UNL     1      17.096  20.066   7.794  0.00  0.00    -0.033 A 
ATOM     28  C   UNL     1      16.040  20.542   8.672  0.00  0.00    +0.005 A 
ATOM     29  C   UNL     1      14.698  20.616   8.237  0.00  0.00    +0.013 A 
BRANCH  18  19
ATOM     19  C   UNL     1      18.526  19.999   8.364  0.00  0.00    +0.119 C 
BRANCH  19  20
ATOM     20  N   UNL     1      19.264  18.711   8.207  0.00  0.00    -0.302 NA
ATOM     21  C   UNL     1      18.564  17.556   8.929  0.00  0.00    +0.066 C 
ATOM     22  C   UNL     1      19.339  16.211   8.735  0.00  0.00    -0.064 C 
ATOM     23  N   UNL     1      20.773  16.375   9.240  0.00  0.00    +0.379 N 
ATOM     24  C   UNL     1      21.487  15.096   9.113  0.00  0.00    -0.096 C 
ATOM     25  H   UNL     1      20.723  16.629  10.325  0.00  0.00    -0.082 HD
ATOM     26  C   UNL     1      21.476  17.523   8.530  0.00  0.00    -0.064 C 
ATOM     27  C   UNL     1      20.683  18.849   8.704  0.00  0.00    +0.066 C 
ENDBRANCH  19  20
ENDBRANCH  18  19
ENDBRANCH  14  15
ENDBRANCH  12  13
TORSDOF 6
ENDMDL
MODEL 2
REMARK VINA RESULT:      -8.7      1.506      2.344
REMARK  Name = C:\Users\Docking\Desktop\test protocol\1iep_ligandH.pdb
REMARK  8 active torsions:
REMARK  status: ('A' for Active; 'I' for Inactive)
REMARK    1  A    between atoms: _5  and  _11
REMARK    2  A    between atoms: _19  and  _21
REMARK    3  A    between atoms: _22  and  _66
REMARK    4  A    between atoms: _27  and  _30
REMARK    5  A    between atoms: _32  and  _33
REMARK    6  A    between atoms: _38  and  _43
REMARK    7  A    between atoms: _43  and  _46
REMARK    8  A    between atoms: _53  and  _55
REMARK                            x       y       z     vdW  Elec       q    Type
REMARK                         _______ _______ _______ _____ _____    ______ ____
ROOT
ATOM     10  C   UNL     1       9.350  17.777   4.137  0.00  0.00    +0.038 A 
ATOM     11  C   UNL     1      10.696  17.951   4.549  0.00  0.00    +0.047 A 
ATOM     12  C   UNL     1      11.304  19.272   4.596  0.00  0.00    +0.035 A 
ATOM     32  C   UNL     1      10.511  20.394   4.219  0.00  0.00    +0.024 A 
ATOM     33  C   UNL     1       9.141  20.235   3.797  0.00  0.00    +0.007 A 
ATOM     34  C   UNL     1       8.537  18.935   3.747  0.00  0.00    -0.029 A 
ATOM     35  C   UNL     1       7.067  18.823   3.280  0.00  0.00    +0.045 C 
ENDROOT
BRANCH  10   9
ATOM      4  C   UNL     1       8.294  13.679   1.873  0.00  0.00    +0.077 A 
ATOM      5  C   UNL     1       8.824  14.160   0.630  0.00  0.00    +0.048 A 
ATOM      6  C   UNL     1       9.353  15.471   0.614  0.00  0.00    +0.116 A 
ATOM      7  N   UNL     1       9.347  16.233   1.761  0.00  0.00    -0.223 NA
ATOM      8  C   UNL     1       8.827  15.739   2.943  0.00  0.00    +0.220 A 
ATOM      9  N   UNL     1       8.817  16.486   4.111  0.00  0.00    -0.283 N 
ATOM     36  H   UNL     1       8.418  16.088   4.961  0.00  0.00    +0.155 HD
ATOM     37  N   UNL     1       8.314  14.492   2.984  0.00  0.00    -0.214 NA
BRANCH   4   3
ATOM      1  C   UNL     1       6.210  10.414   1.329  0.00  0.00    +0.020 A 
ATOM      2  C   UNL     1       6.750  11.736   1.112  0.00  0.00    +0.013 A 
ATOM      3  C   UNL     1       7.703  12.315   2.050  0.00  0.00    +0.019 A 
ATOM     38  C   UNL     1       8.093  11.523   3.207  0.00  0.00    +0.120 A 
ATOM     39  N   UNL     1       7.555  10.253   3.391  0.00  0.00    -0.263 NA
ATOM     40  C   UNL     1       6.636   9.686   2.496  0.00  0.00    +0.111 A 
ENDBRANCH   4   3
ENDBRANCH  10   9
BRANCH  12  13
ATOM     13  N   UNL     1      12.668  19.509   4.997  0.00  0.00    -0.281 N 
ATOM     14  C   UNL     1      13.123  20.068   6.181  0.00  0.00    +0.248 C 
ATOM     30  O   UNL     1      12.413  20.648   6.989  0.00  0.00    -0.270 OA
ATOM     31  H   UNL     1      13.386  19.231   4.328  0.00  0.00    +0.155 HD
BRANCH  14  15
ATOM     15  C   UNL     1      14.579  19.983   6.507  0.00  0.00    +0.037 A 
ATOM     16  C   UNL     1      15.583  19.788   5.457  0.00  0.00    +0.013 A 
ATOM     17  C   UNL     1      16.979  19.693   5.801  0.00  0.00    +0.005 A 
ATOM     18  C   UNL     1      17.381  19.794   7.202  0.00  0.00    -0.033 A 
ATOM     28  C   UNL     1      16.364  19.992   8.223  0.00  0.00    +0.005 A 
ATOM     29  C   UNL     1      14.995  20.085   7.890  0.00  0.00    +0.013 A 
BRANCH  18  19
ATOM     19  C   UNL     1      18.846  19.682   7.663  0.00  0.00    +0.119 C 
BRANCH  19  20
ATOM     20  N   UNL     1      19.290  20.596   8.757  0.00  0.00    -0.302 NA
ATOM     21  C   UNL     1      19.549  22.017   8.250  0.00  0.00    +0.066 C 
ATOM     22  C   UNL     1      19.991  22.965   9.412  0.00  0.00    -0.064 C 
ATOM     23  N   UNL     1      21.241  22.394  10.084  0.00  0.00    +0.379 N 
ATOM     24  C   UNL     1      21.693  23.312  11.139  0.00  0.00    -0.096 C 
ATOM     25  H   UNL     1      22.045  22.342   9.314  0.00  0.00    -0.082 HD
ATOM     26  C   UNL     1      20.994  20.980  10.589  0.00  0.00    -0.064 C 
ATOM     27  C   UNL     1      20.526  20.053   9.432  0.00  0.00    +0.066 C 
ENDBRANCH  19  20
ENDBRANCH  18  19
ENDBRANCH  14  15
ENDBRANCH  12  13
TORSDOF 6
ENDMDL
MODEL 3
REMARK VINA RESULT:      -8.6     10.169     13.335
REMARK  Name = C:\Users\Docking\Desktop\test protocol\1iep_ligandH.pdb
REMARK  8 active torsions:
REMARK  status: ('A' for Active; 'I' for Inactive)
REMARK    1  A    between atoms: _5  and  _11
REMARK    2  A    between atoms: _19  and  _21
REMARK    3  A    between atoms: _22  and  _66
REMARK    4  A    between atoms: _27  and  _30
REMARK    5  A    between atoms: _32  and  _33
REMARK    6  A    between atoms: _38  and  _43
REMARK    7  A    between atoms: _43  and  _46
REMARK    8  A    between atoms: _53  and  _55
REMARK                            x       y       z     vdW  Elec       q    Type
REMARK                         _______ _______ _______ _____ _____    ______ ____
ROOT
ATOM     10  C   UNL     1      18.986  25.501  10.809  0.00  0.00    +0.038 A 
ATOM     11  C   UNL     1      19.315  24.204  10.338  0.00  0.00    +0.047 A 
ATOM     12  C   UNL     1      19.467  23.087  11.257  0.00  0.00    +0.035 A 
ATOM     32  C   UNL     1      19.275  23.325  12.649  0.00  0.00    +0.024 A 
ATOM     33  C   UNL     1      18.941  24.637  13.145  0.00  0.00    +0.007 A 
ATOM     34  C   UNL     1      18.792  25.744  12.244  0.00  0.00    -0.029 A 
ATOM     35  C   UNL     1      18.440  27.130  12.832  0.00  0.00    +0.045 C 
ENDROOT
BRANCH  10   9
ATOM      4  C   UNL     1      16.368  28.200   7.826  0.00  0.00    +0.077 A 
ATOM      5  C   UNL     1      15.171  27.465   8.117  0.00  0.00    +0.048 A 
ATOM      6  C   UNL     1      15.273  26.396   9.035  0.00  0.00    +0.116 A 
ATOM      7  N   UNL     1      16.487  26.092   9.612  0.00  0.00    -0.223 NA
ATOM      8  C   UNL     1      17.623  26.820   9.308  0.00  0.00    +0.220 A 
ATOM      9  N   UNL     1      18.853  26.538   9.883  0.00  0.00    -0.283 N 
ATOM     36  H   UNL     1      19.668  27.094   9.627  0.00  0.00    +0.155 HD
ATOM     37  N   UNL     1      17.552  27.846   8.434  0.00  0.00    -0.214 NA
BRANCH   4   3
ATOM      1  C   UNL     1      17.646  31.199   5.664  0.00  0.00    +0.020 A 
ATOM      2  C   UNL     1      17.649  30.087   6.586  0.00  0.00    +0.013 A 
ATOM      3  C   UNL     1      16.421  29.359   6.880  0.00  0.00    +0.019 A 
ATOM     38  C   UNL     1      15.197  29.786   6.219  0.00  0.00    +0.120 A 
ATOM     39  N   UNL     1      15.224  30.861   5.336  0.00  0.00    -0.263 NA
ATOM     40  C   UNL     1      16.400  31.570   5.047  0.00  0.00    +0.111 A 
ENDBRANCH   4   3
ENDBRANCH  10   9
BRANCH  12  13
ATOM     13  N   UNL     1      19.808  21.750  10.838  0.00  0.00    -0.281 N 
ATOM     14  C   UNL     1      18.973  20.648  10.743  0.00  0.00    +0.248 C 
ATOM     30  O   UNL     1      17.845  20.594  11.210  0.00  0.00    -0.270 OA
ATOM     31  H   UNL     1      20.783  21.596  10.581  0.00  0.00    +0.155 HD
BRANCH  14  15
ATOM     15  C   UNL     1      19.468  19.426  10.039  0.00  0.00    +0.037 A 
ATOM     16  C   UNL     1      18.677  18.193  10.012  0.00  0.00    +0.013 A 
ATOM     17  C   UNL     1      19.186  17.023   9.340  0.00  0.00    +0.005 A 
ATOM     18  C   UNL     1      20.492  17.081   8.689  0.00  0.00    -0.033 A 
ATOM     28  C   UNL     1      21.253  18.319   8.727  0.00  0.00    +0.005 A 
ATOM     29  C   UNL     1      20.758  19.468   9.385  0.00  0.00    +0.013 A 
BRANCH  18  19
ATOM     19  C   UNL     1      21.122  15.875   7.968  0.00  0.00    +0.119 C 
BRANCH  19  20
ATOM     20  N   UNL     1      22.321  16.137   7.117  0.00  0.00    -0.302 NA
ATOM     21  C   UNL     1      21.977  16.136   5.624  0.00  0.00    +0.066 C 
ATOM     22  C   UNL     1      23.238  16.434   4.749  0.00  0.00    -0.064 C 
ATOM     23  N   UNL     1      24.324  15.401   5.056  0.00  0.00    +0.379 N 
ATOM     24  C   UNL     1      25.489  15.644   4.193  0.00  0.00    -0.096 C 
ATOM     25  H   UNL     1      23.916  14.396   4.799  0.00  0.00    -0.082 HD
ATOM     26  C   UNL     1      24.670  15.394   6.538  0.00  0.00    -0.064 C 
ATOM     27  C   UNL     1      23.404  15.126   7.400  0.00  0.00    +0.066 C 
ENDBRANCH  19  20
ENDBRANCH  18  19
ENDBRANCH  14  15
ENDBRANCH  12  13
TORSDOF 6
ENDMDL
MODEL 4
REMARK VINA RESULT:      -8.5      1.858      2.296
REMARK  Name = C:\Users\Docking\Desktop\test protocol\1iep_ligandH.pdb
REMARK  8 active torsions:
REMARK  status: ('A' for Active; 'I' for Inactive)
REMARK    1  A    between atoms: _5  and  _11
REMARK    2  A    between atoms: _19  and  _21
REMARK    3  A    between atoms: _22  and  _66
REMARK    4  A    between atoms: _27  and  _30
REMARK    5  A    between atoms: _32  and  _33
REMARK    6  A    between atoms: _38  and  _43
REMARK    7  A    between atoms: _43  and  _46
REMARK    8  A    between atoms: _53  and  _55
REMARK                            x       y       z     vdW  Elec       q    Type
REMARK                         _______ _______ _______ _____ _____    ______ ____
ROOT
ATOM     10  C   UNL     1       9.465  17.451   4.068  0.00  0.00    +0.038 A 
ATOM     11  C   UNL     1      10.832  17.498   4.441  0.00  0.00    +0.047 A 
ATOM     12  C   UNL     1      11.547  18.763   4.522  0.00  0.00    +0.035 A 
ATOM     32  C   UNL     1      10.836  19.961   4.218  0.00  0.00    +0.024 A 
ATOM     33  C   UNL     1       9.446  19.930   3.836  0.00  0.00    +0.007 A 
ATOM     34  C   UNL     1       8.737  18.686   3.752  0.00  0.00    -0.029 A 
ATOM     35  C   UNL     1       7.249  18.712   3.331  0.00  0.00    +0.045 C 
ENDROOT
BRANCH  10   9
ATOM      4  C   UNL     1       8.167  13.470   1.721  0.00  0.00    +0.077 A 
ATOM      5  C   UNL     1       8.786  13.914   0.505  0.00  0.00    +0.048 A 
ATOM      6  C   UNL     1       9.422  15.176   0.524  0.00  0.00    +0.116 A 
ATOM      7  N   UNL     1       9.432  15.929   1.678  0.00  0.00    -0.223 NA
ATOM      8  C   UNL     1       8.824  15.472   2.833  0.00  0.00    +0.220 A 
ATOM      9  N   UNL     1       8.828  16.209   4.007  0.00  0.00    -0.283 N 
ATOM     36  H   UNL     1       8.362  15.840   4.836  0.00  0.00    +0.155 HD
ATOM     37  N   UNL     1       8.208  14.271   2.840  0.00  0.00    -0.214 NA
BRANCH   4   3
ATOM      1  C   UNL     1       5.883  10.370   1.034  0.00  0.00    +0.020 A 
ATOM      2  C   UNL     1       6.542  11.643   0.851  0.00  0.00    +0.013 A 
ATOM      3  C   UNL     1       7.458  12.159   1.860  0.00  0.00    +0.019 A 
ATOM     38  C   UNL     1       7.689  11.356   3.052  0.00  0.00    +0.120 A 
ATOM     39  N   UNL     1       7.039  10.135   3.201  0.00  0.00    -0.263 NA
ATOM     40  C   UNL     1       6.154   9.628   2.238  0.00  0.00    +0.111 A 
ENDBRANCH   4   3
ENDBRANCH  10   9
BRANCH  12  13
ATOM     13  N   UNL     1      12.937  18.873   4.887  0.00  0.00    -0.281 N 
ATOM     14  C   UNL     1      14.033  18.982   4.046  0.00  0.00    +0.248 C 
ATOM     30  O   UNL     1      14.000  18.787   2.840  0.00  0.00    -0.270 OA
ATOM     31  H   UNL     1      13.139  18.870   5.887  0.00  0.00    +0.155 HD
BRANCH  14  15
ATOM     15  C   UNL     1      15.358  19.348   4.631  0.00  0.00    +0.037 A 
ATOM     16  C   UNL     1      15.531  20.572   5.417  0.00  0.00    +0.013 A 
ATOM     17  C   UNL     1      16.824  20.910   5.956  0.00  0.00    +0.005 A 
ATOM     18  C   UNL     1      17.957  20.020   5.711  0.00  0.00    -0.033 A 
ATOM     28  C   UNL     1      17.757  18.809   4.932  0.00  0.00    +0.005 A 
ATOM     29  C   UNL     1      16.490  18.476   4.402  0.00  0.00    +0.013 A 
BRANCH  18  19
ATOM     19  C   UNL     1      19.377  20.312   6.229  0.00  0.00    +0.119 C 
BRANCH  19  20
ATOM     20  N   UNL     1      19.633  20.092   7.684  0.00  0.00    -0.302 NA
ATOM     21  C   UNL     1      18.902  18.855   8.215  0.00  0.00    +0.066 C 
ATOM     22  C   UNL     1      19.199  18.627   9.733  0.00  0.00    -0.064 C 
ATOM     23  N   UNL     1      18.797  19.874  10.522  0.00  0.00    +0.379 N 
ATOM     24  C   UNL     1      19.021  19.640  11.956  0.00  0.00    -0.096 C 
ATOM     25  H   UNL     1      17.703  20.031  10.371  0.00  0.00    -0.082 HD
ATOM     26  C   UNL     1      19.517  21.108   9.999  0.00  0.00    -0.064 C 
ATOM     27  C   UNL     1      19.239  21.310   8.483  0.00  0.00    +0.066 C 
ENDBRANCH  19  20
ENDBRANCH  18  19
ENDBRANCH  14  15
ENDBRANCH  12  13
TORSDOF 6
ENDMDL
MODEL 5
REMARK VINA RESULT:      -8.5      3.361     12.401
REMARK  Name = C:\Users\Docking\Desktop\test protocol\1iep_ligandH.pdb
REMARK  8 active torsions:
REMARK  status: ('A' for Active; 'I' for Inactive)
REMARK    1  A    between atoms: _5  and  _11
REMARK    2  A    between atoms: _19  and  _21
REMARK    3  A    between atoms: _22  and  _66
REMARK    4  A    between atoms: _27  and  _30
REMARK    5  A    between atoms: _32  and  _33
REMARK    6  A    between atoms: _38  and  _43
REMARK    7  A    between atoms: _43  and  _46
REMARK    8  A    between atoms: _53  and  _55
REMARK                            x       y       z     vdW  Elec       q    Type
REMARK                         _______ _______ _______ _____ _____    ______ ____
ROOT
ATOM     10  C   UNL     1      16.752  20.276   8.059  0.00  0.00    +0.038 A 
ATOM     11  C   UNL     1      15.578  19.875   7.370  0.00  0.00    +0.047 A 
ATOM     12  C   UNL     1      14.257  20.230   7.864  0.00  0.00    +0.035 A 
ATOM     32  C   UNL     1      14.168  20.998   9.062  0.00  0.00    +0.024 A 
ATOM     33  C   UNL     1      15.350  21.414   9.775  0.00  0.00    +0.007 A 
ATOM     34  C   UNL     1      16.656  21.064   9.293  0.00  0.00    -0.029 A 
ATOM     35  C   UNL     1      17.888  21.532  10.102  0.00  0.00    +0.045 C 
ENDROOT
BRANCH  10   9
ATOM      4  C   UNL     1      20.394  17.186   7.588  0.00  0.00    +0.077 A 
ATOM      5  C   UNL     1      19.781  16.238   8.473  0.00  0.00    +0.048 A 
ATOM      6  C   UNL     1      18.532  16.587   9.034  0.00  0.00    +0.116 A 
ATOM      7  N   UNL     1      17.948  17.796   8.725  0.00  0.00    -0.223 NA
ATOM      8  C   UNL     1      18.567  18.689   7.870  0.00  0.00    +0.220 A 
ATOM      9  N   UNL     1      17.995  19.908   7.539  0.00  0.00    -0.283 N 
ATOM     36  H   UNL     1      18.486  20.542   6.910  0.00  0.00    +0.155 HD
ATOM     37  N   UNL     1      19.761  18.380   7.322  0.00  0.00    -0.214 NA
BRANCH   4   3
ATOM      1  C   UNL     1      24.222  16.706   6.940  0.00  0.00    +0.020 A 
ATOM      2  C   UNL     1      22.976  16.927   7.638  0.00  0.00    +0.013 A 
ATOM      3  C   UNL     1      21.712  16.961   6.914  0.00  0.00    +0.019 A 
ATOM     38  C   UNL     1      21.742  16.765   5.473  0.00  0.00    +0.120 A 
ATOM     39  N   UNL     1      22.957  16.556   4.827  0.00  0.00    -0.263 NA
ATOM     40  C   UNL     1      24.180  16.523   5.513  0.00  0.00    +0.111 A 
ENDBRANCH   4   3
ENDBRANCH  10   9
BRANCH  12  13
ATOM     13  N   UNL     1      13.030  19.844   7.212  0.00  0.00    -0.281 N 
ATOM     14  C   UNL     1      12.317  20.546   6.255  0.00  0.00    +0.248 C 
ATOM     30  O   UNL     1      12.514  21.718   5.968  0.00  0.00    -0.270 OA
ATOM     31  H   UNL     1      12.641  18.943   7.491  0.00  0.00    +0.155 HD
BRANCH  14  15
ATOM     15  C   UNL     1      11.216  19.851   5.521  0.00  0.00    +0.037 A 
ATOM     16  C   UNL     1      11.464  18.618   4.770  0.00  0.00    +0.013 A 
ATOM     17  C   UNL     1      10.388  17.977   4.057  0.00  0.00    +0.005 A 
ATOM     18  C   UNL     1       9.052  18.569   4.092  0.00  0.00    -0.033 A 
ATOM     28  C   UNL     1       8.834  19.790   4.849  0.00  0.00    +0.005 A 
ATOM     29  C   UNL     1       9.886  20.422   5.548  0.00  0.00    +0.013 A 
BRANCH  18  19
ATOM     19  C   UNL     1       7.850  17.965   3.343  0.00  0.00    +0.119 C 
BRANCH  19  20
ATOM     20  N   UNL     1       7.428  18.633   2.075  0.00  0.00    -0.302 NA
ATOM     21  C   UNL     1       6.190  19.512   2.274  0.00  0.00    +0.066 C 
ATOM     22  C   UNL     1       5.777  20.221   0.943  0.00  0.00    -0.064 C 
ATOM     23  N   UNL     1       5.525  19.166  -0.136  0.00  0.00    +0.379 N 
ATOM     24  C   UNL     1       5.079  19.826  -1.372  0.00  0.00    -0.096 C 
ATOM     25  H   UNL     1       4.693  18.513   0.217  0.00  0.00    -0.082 HD
ATOM     26  C   UNL     1       6.750  18.286  -0.338  0.00  0.00    -0.064 C 
ATOM     27  C   UNL     1       7.170  17.610   0.997  0.00  0.00    +0.066 C 
ENDBRANCH  19  20
ENDBRANCH  18  19
ENDBRANCH  14  15
ENDBRANCH  12  13
TORSDOF 6
ENDMDL
