MODEL 1
REMARK VINA RESULT:      -8.8      0.000      0.000
REMARK  Name = C:\Users\Docking\Desktop\test protocol\1iep_ligandH.pdb
REMARK  8 active torsions:
REMARK  status: ('A' for Active; 'I' for Inactive)
REMARK    1  A    between atoms: _5  and  _11
REMARK    2  A    between atoms: _19  and  _21
REMARK    3  A    between atoms: _22  and  _66
REMARK    4  A    between atoms: _27  and  _30
REMARK    5  A    between atoms: _32  and  _33
REMARK    6  A    between atoms: _38  and  _43
REMARK    7  A    between atoms: _43  and  _46
REMARK    8  A    between atoms: _53  and  _55
REMARK                            x       y       z     vdW  Elec       q    Type
REMARK                         _______ _______ _______ _____ _____    ______ ____
ROOT
ATOM     10  C   UNL     1     -19.781  19.879  -8.879  0.00  0.00    +0.038 A 
ATOM     11  C   UNL     1     -18.567  19.730  -8.161  0.00  0.00    +0.047 A 
ATOM     12  C   UNL     1     -17.376  20.478  -8.532  0.00  0.00    +0.035 A 
ATOM     32  C   UNL     1     -17.458  21.372  -9.639  0.00  0.00    +0.024 A 
ATOM     33  C   UNL     1     -18.683  21.536 -10.381  0.00  0.00    +0.007 A 
ATOM     34  C   UNL     1     -19.861  20.798 -10.021  0.00  0.00    -0.029 A 
ATOM     35  C   UNL     1     -21.145  21.008 -10.856  0.00  0.00    +0.045 C 
ENDROOT
BRANCH  10   9
ATOM      4  C   UNL     1     -22.005  15.710  -8.033  0.00  0.00    +0.077 A 
ATOM      5  C   UNL     1     -20.862  14.949  -8.448  0.00  0.00    +0.048 A 
ATOM      6  C   UNL     1     -19.724  15.668  -8.878  0.00  0.00    +0.116 A 
ATOM      7  N   UNL     1     -19.740  17.046  -8.889  0.00  0.00    -0.223 NA
ATOM      8  C   UNL     1     -20.859  17.750  -8.485  0.00  0.00    +0.220 A 
ATOM      9  N   UNL     1     -20.894  19.135  -8.480  0.00  0.00    -0.283 N 
ATOM     36  H   UNL     1     -21.741  19.618  -8.181  0.00  0.00    +0.155 HD
ATOM     37  N   UNL     1     -21.958  17.086  -8.070  0.00  0.00    -0.214 NA
BRANCH   4   3
ATOM      1  C   UNL     1     -25.017  13.265  -7.536  0.00  0.00    +0.020 A 
ATOM      2  C   UNL     1     -23.778  13.815  -8.037  0.00  0.00    +0.013 A 
ATOM      3  C   UNL     1     -23.281  15.095  -7.549  0.00  0.00    +0.019 A 
ATOM     38  C   UNL     1     -24.065  15.797  -6.544  0.00  0.00    +0.120 A 
ATOM     39  N   UNL     1     -25.255  15.243  -6.082  0.00  0.00    -0.263 NA
ATOM     40  C   UNL     1     -25.745  14.013  -6.546  0.00  0.00    +0.111 A 
ENDBRANCH   4   3
ENDBRANCH  10   9
BRANCH  12  13
ATOM     13  N   UNL     1     -16.114  20.362  -7.845  0.00  0.00    -0.281 N 
ATOM     14  C   UNL     1     -15.865  20.507  -6.490  0.00  0.00    +0.248 C 
ATOM     30  O   UNL     1     -16.660  20.973  -5.688  0.00  0.00    -0.270 OA
ATOM     31  H   UNL     1     -15.306  20.146  -8.428  0.00  0.00    +0.155 HD
BRANCH  14  15
ATOM     15  C   UNL     1     -14.536  20.089  -5.951  0.00  0.00    +0.037 A 
ATOM     16  C   UNL     1     -14.408  19.500  -4.615  0.00  0.00    +0.013 A 
ATOM     17  C   UNL     1     -13.112  19.120  -4.113  0.00  0.00    +0.005 A 
ATOM     18  C   UNL     1     -11.931  19.327  -4.948  0.00  0.00    -0.033 A 
ATOM     28  C   UNL     1     -12.087  19.909  -6.271  0.00  0.00    +0.005 A 
ATOM     29  C   UNL     1     -13.356  20.283  -6.767  0.00  0.00    +0.013 A 
BRANCH  18  19
ATOM     19  C   UNL     1     -10.506  18.971  -4.485  0.00  0.00    +0.119 C 
BRANCH  19  20
ATOM     20  N   UNL     1     -10.370  17.899  -3.454  0.00  0.00    -0.302 NA
ATOM     21  C   UNL     1      -9.143  18.112  -2.563  0.00  0.00    +0.066 C 
ATOM     22  C   UNL     1      -9.028  16.994  -1.476  0.00  0.00    -0.064 C 
ATOM     23  N   UNL     1      -8.972  15.626  -2.159  0.00  0.00    +0.379 N 
ATOM     24  C   UNL     1      -8.805  14.577  -1.143  0.00  0.00    -0.096 C 
ATOM     25  H   UNL     1      -8.068  15.612  -2.811  0.00  0.00    -0.082 HD
ATOM     26  C   UNL     1     -10.187  15.408  -3.049  0.00  0.00    -0.064 C 
ATOM     27  C   UNL     1     -10.308  16.540  -4.107  0.00  0.00    +0.066 C 
ENDBRANCH  19  20
ENDBRANCH  18  19
ENDBRANCH  14  15
ENDBRANCH  12  13
TORSDOF 6
ENDMDL
MODEL 2
REMARK VINA RESULT:      -8.7      2.317     12.283
REMARK  Name = C:\Users\Docking\Desktop\test protocol\1iep_ligandH.pdb
REMARK  8 active torsions:
REMARK  status: ('A' for Active; 'I' for Inactive)
REMARK    1  A    between atoms: _5  and  _11
REMARK    2  A    between atoms: _19  and  _21
REMARK    3  A    between atoms: _22  and  _66
REMARK    4  A    between atoms: _27  and  _30
REMARK    5  A    between atoms: _32  and  _33
REMARK    6  A    between atoms: _38  and  _43
REMARK    7  A    between atoms: _43  and  _46
REMARK    8  A    between atoms: _53  and  _55
REMARK                            x       y       z     vdW  Elec       q    Type
REMARK                         _______ _______ _______ _____ _____    ______ ____
ROOT
ATOM     10  C   UNL     1      -9.486  17.833  -4.303  0.00  0.00    +0.038 A 
ATOM     11  C   UNL     1     -10.781  17.983  -4.861  0.00  0.00    +0.047 A 
ATOM     12  C   UNL     1     -11.414  19.289  -4.955  0.00  0.00    +0.035 A 
ATOM     32  C   UNL     1     -10.697  20.423  -4.474  0.00  0.00    +0.024 A 
ATOM     33  C   UNL     1      -9.380  20.290  -3.903  0.00  0.00    +0.007 A 
ATOM     34  C   UNL     1      -8.752  19.003  -3.805  0.00  0.00    -0.029 A 
ATOM     35  C   UNL     1      -7.341  18.918  -3.178  0.00  0.00    +0.045 C 
ENDROOT
BRANCH  10   9
ATOM      4  C   UNL     1      -8.414  13.799  -1.935  0.00  0.00    +0.077 A 
ATOM      5  C   UNL     1      -8.994  14.289  -0.718  0.00  0.00    +0.048 A 
ATOM      6  C   UNL     1      -9.552  15.587  -0.742  0.00  0.00    +0.116 A 
ATOM      7  N   UNL     1      -9.526  16.330  -1.902  0.00  0.00    -0.223 NA
ATOM      8  C   UNL     1      -8.957  15.829  -3.058  0.00  0.00    +0.220 A 
ATOM      9  N   UNL     1      -8.926  16.556  -4.238  0.00  0.00    -0.283 N 
ATOM     36  H   UNL     1      -8.490  16.153  -5.067  0.00  0.00    +0.155 HD
ATOM     37  N   UNL     1      -8.416  14.592  -3.060  0.00  0.00    -0.214 NA
BRANCH   4   3
ATOM      1  C   UNL     1      -6.160  10.654  -1.359  0.00  0.00    +0.020 A 
ATOM      2  C   UNL     1      -6.730  11.971  -1.187  0.00  0.00    +0.013 A 
ATOM      3  C   UNL     1      -7.788  12.445  -2.069  0.00  0.00    +0.019 A 
ATOM     38  C   UNL     1      -8.251  11.556  -3.124  0.00  0.00    +0.120 A 
ATOM     39  N   UNL     1      -7.682  10.295  -3.267  0.00  0.00    -0.263 NA
ATOM     40  C   UNL     1      -6.662   9.828  -2.425  0.00  0.00    +0.111 A 
ENDBRANCH   4   3
ENDBRANCH  10   9
BRANCH  12  13
ATOM     13  N   UNL     1     -12.731  19.501  -5.504  0.00  0.00    -0.281 N 
ATOM     14  C   UNL     1     -13.087  20.303  -6.576  0.00  0.00    +0.248 C 
ATOM     30  O   UNL     1     -12.353  21.132  -7.094  0.00  0.00    -0.270 OA
ATOM     31  H   UNL     1     -13.492  18.999  -5.047  0.00  0.00    +0.155 HD
BRANCH  14  15
ATOM     15  C   UNL     1     -14.464  20.178  -7.145  0.00  0.00    +0.037 A 
ATOM     16  C   UNL     1     -14.808  20.773  -8.438  0.00  0.00    +0.013 A 
ATOM     17  C   UNL     1     -16.148  20.652  -8.957  0.00  0.00    +0.005 A 
ATOM     18  C   UNL     1     -17.153  19.930  -8.180  0.00  0.00    -0.033 A 
ATOM     28  C   UNL     1     -16.783  19.345  -6.902  0.00  0.00    +0.005 A 
ATOM     29  C   UNL     1     -15.471  19.462  -6.391  0.00  0.00    +0.013 A 
BRANCH  18  19
ATOM     19  C   UNL     1     -18.613  19.769  -8.646  0.00  0.00    +0.119 C 
BRANCH  19  20
ATOM     20  N   UNL     1     -19.318  18.511  -8.261  0.00  0.00    -0.302 NA
ATOM     21  C   UNL     1     -18.858  17.314  -9.099  0.00  0.00    +0.066 C 
ATOM     22  C   UNL     1     -19.591  16.002  -8.667  0.00  0.00    -0.064 C 
ATOM     23  N   UNL     1     -21.102  16.200  -8.791  0.00  0.00    +0.379 N 
ATOM     24  C   UNL     1     -21.791  14.950  -8.442  0.00  0.00    -0.096 C 
ATOM     25  H   UNL     1     -21.327  16.424  -9.860  0.00  0.00    -0.082 HD
ATOM     26  C   UNL     1     -21.568  17.390  -7.963  0.00  0.00    -0.064 C 
ATOM     27  C   UNL     1     -20.813  18.683  -8.380  0.00  0.00    +0.066 C 
ENDBRANCH  19  20
ENDBRANCH  18  19
ENDBRANCH  14  15
ENDBRANCH  12  13
TORSDOF 6
ENDMDL
MODEL 3
REMARK VINA RESULT:      -8.5      1.362      2.080
REMARK  Name = C:\Users\Docking\Desktop\test protocol\1iep_ligandH.pdb
REMARK  8 active torsions:
REMARK  status: ('A' for Active; 'I' for Inactive)
REMARK    1  A    between atoms: _5  and  _11
REMARK    2  A    between atoms: _19  and  _21
REMARK    3  A    between atoms: _22  and  _66
REMARK    4  A    between atoms: _27  and  _30
REMARK    5  A    between atoms: _32  and  _33
REMARK    6  A    between atoms: _38  and  _43
REMARK    7  A    between atoms: _43  and  _46
REMARK    8  A    between atoms: _53  and  _55
REMARK                            x       y       z     vdW  Elec       q    Type
REMARK                         _______ _______ _______ _____ _____    ______ ____
ROOT
ATOM     10  C   UNL     1     -19.778  19.538  -8.586  0.00  0.00    +0.038 A 
ATOM     11  C   UNL     1     -18.578  19.323  -7.862  0.00  0.00    +0.047 A 
ATOM     12  C   UNL     1     -17.343  19.994  -8.237  0.00  0.00    +0.035 A 
ATOM     32  C   UNL     1     -17.367  20.879  -9.353  0.00  0.00    +0.024 A 
ATOM     33  C   UNL     1     -18.578  21.108 -10.102  0.00  0.00    +0.007 A 
ATOM     34  C   UNL     1     -19.799  20.447  -9.738  0.00  0.00    -0.029 A 
ATOM     35  C   UNL     1     -21.066  20.725 -10.580  0.00  0.00    +0.045 C 
ENDROOT
BRANCH  10   9
ATOM      4  C   UNL     1     -22.344  15.532  -7.945  0.00  0.00    +0.077 A 
ATOM      5  C   UNL     1     -21.302  14.708  -8.485  0.00  0.00    +0.048 A 
ATOM      6  C   UNL     1     -20.124  15.354  -8.923  0.00  0.00    +0.116 A 
ATOM      7  N   UNL     1     -20.008  16.723  -8.823  0.00  0.00    -0.223 NA
ATOM      8  C   UNL     1     -21.033  17.490  -8.299  0.00  0.00    +0.220 A 
ATOM      9  N   UNL     1     -20.935  18.867  -8.182  0.00  0.00    -0.283 N 
ATOM     36  H   UNL     1     -21.717  19.398  -7.797  0.00  0.00    +0.155 HD
ATOM     37  N   UNL     1     -22.169  16.896  -7.875  0.00  0.00    -0.214 NA
BRANCH   4   3
ATOM      1  C   UNL     1     -25.427  13.216  -7.290  0.00  0.00    +0.020 A 
ATOM      2  C   UNL     1     -24.164  13.686  -7.810  0.00  0.00    +0.013 A 
ATOM      3  C   UNL     1     -23.647  14.997  -7.437  0.00  0.00    +0.019 A 
ATOM     38  C   UNL     1     -24.439  15.813  -6.529  0.00  0.00    +0.120 A 
ATOM     39  N   UNL     1     -25.653  15.334  -6.046  0.00  0.00    -0.263 NA
ATOM     40  C   UNL     1     -26.161  14.076  -6.399  0.00  0.00    +0.111 A 
ENDBRANCH   4   3
ENDBRANCH  10   9
BRANCH  12  13
ATOM     13  N   UNL     1     -16.092  19.809  -7.544  0.00  0.00    -0.281 N 
ATOM     14  C   UNL     1     -15.554  20.590  -6.534  0.00  0.00    +0.248 C 
ATOM     30  O   UNL     1     -15.971  21.694  -6.218  0.00  0.00    -0.270 OA
ATOM     31  H   UNL     1     -15.535  19.005  -7.834  0.00  0.00    +0.155 HD
BRANCH  14  15
ATOM     15  C   UNL     1     -14.374  20.076  -5.774  0.00  0.00    +0.037 A 
ATOM     16  C   UNL     1     -13.018  20.172  -6.321  0.00  0.00    +0.013 A 
ATOM     17  C   UNL     1     -11.899  19.653  -5.575  0.00  0.00    +0.005 A 
ATOM     18  C   UNL     1     -12.132  19.033  -4.272  0.00  0.00    -0.033 A 
ATOM     28  C   UNL     1     -13.487  18.955  -3.752  0.00  0.00    +0.005 A 
ATOM     29  C   UNL     1     -14.586  19.462  -4.481  0.00  0.00    +0.013 A 
BRANCH  18  19
ATOM     19  C   UNL     1     -11.001  18.433  -3.417  0.00  0.00    +0.119 C 
BRANCH  19  20
ATOM     20  N   UNL     1      -9.690  19.149  -3.418  0.00  0.00    -0.302 NA
ATOM     21  C   UNL     1      -8.703  18.540  -4.418  0.00  0.00    +0.066 C 
ATOM     22  C   UNL     1      -7.345  19.316  -4.422  0.00  0.00    -0.064 C 
ATOM     23  N   UNL     1      -6.756  19.314  -3.010  0.00  0.00    +0.379 N 
ATOM     24  C   UNL     1      -5.452  19.992  -3.022  0.00  0.00    -0.096 C 
ATOM     25  H   UNL     1      -6.583  18.252  -2.717  0.00  0.00    -0.082 HD
ATOM     26  C   UNL     1      -7.732  19.915  -2.009  0.00  0.00    -0.064 C 
ATOM     27  C   UNL     1      -9.088  19.156  -2.034  0.00  0.00    +0.066 C 
ENDBRANCH  19  20
ENDBRANCH  18  19
ENDBRANCH  14  15
ENDBRANCH  12  13
TORSDOF 6
ENDMDL
MODEL 4
REMARK VINA RESULT:      -8.4      1.432      1.874
REMARK  Name = C:\Users\Docking\Desktop\test protocol\1iep_ligandH.pdb
REMARK  8 active torsions:
REMARK  status: ('A' for Active; 'I' for Inactive)
REMARK    1  A    between atoms: _5  and  _11
REMARK    2  A    between atoms: _19  and  _21
REMARK    3  A    between atoms: _22  and  _66
REMARK    4  A    between atoms: _27  and  _30
REMARK    5  A    between atoms: _32  and  _33
REMARK    6  A    between atoms: _38  and  _43
REMARK    7  A    between atoms: _43  and  _46
REMARK    8  A    between atoms: _53  and  _55
REMARK                            x       y       z     vdW  Elec       q    Type
REMARK                         _______ _______ _______ _____ _____    ______ ____
ROOT
ATOM     10  C   UNL     1     -19.735  20.268  -8.996  0.00  0.00    +0.038 A 
ATOM     11  C   UNL     1     -18.471  20.054  -8.389  0.00  0.00    +0.047 A 
ATOM     12  C   UNL     1     -17.314  20.853  -8.760  0.00  0.00    +0.035 A 
ATOM     32  C   UNL     1     -17.480  21.865  -9.750  0.00  0.00    +0.024 A 
ATOM     33  C   UNL     1     -18.758  22.095 -10.378  0.00  0.00    +0.007 A 
ATOM     34  C   UNL     1     -19.902  21.308 -10.018  0.00  0.00    -0.029 A 
ATOM     35  C   UNL     1     -21.246  21.595 -10.728  0.00  0.00    +0.045 C 
ENDROOT
BRANCH  10   9
ATOM      4  C   UNL     1     -21.741  15.999  -8.107  0.00  0.00    +0.077 A 
ATOM      5  C   UNL     1     -20.550  15.295  -8.486  0.00  0.00    +0.048 A 
ATOM      6  C   UNL     1     -19.446  16.068  -8.910  0.00  0.00    +0.116 A 
ATOM      7  N   UNL     1     -19.537  17.442  -8.948  0.00  0.00    -0.223 NA
ATOM      8  C   UNL     1     -20.701  18.090  -8.578  0.00  0.00    +0.220 A 
ATOM      9  N   UNL     1     -20.813  19.472  -8.602  0.00  0.00    -0.283 N 
ATOM     36  H   UNL     1     -21.691  19.911  -8.328  0.00  0.00    +0.155 HD
ATOM     37  N   UNL     1     -21.770  17.374  -8.171  0.00  0.00    -0.214 NA
BRANCH   4   3
ATOM      1  C   UNL     1     -24.592  13.375  -7.572  0.00  0.00    +0.020 A 
ATOM      2  C   UNL     1     -23.375  13.983  -8.059  0.00  0.00    +0.013 A 
ATOM      3  C   UNL     1     -22.990  15.323  -7.634  0.00  0.00    +0.019 A 
ATOM     38  C   UNL     1     -23.864  16.026  -6.707  0.00  0.00    +0.120 A 
ATOM     39  N   UNL     1     -25.030  15.415  -6.256  0.00  0.00    -0.263 NA
ATOM     40  C   UNL     1     -25.412  14.127  -6.660  0.00  0.00    +0.111 A 
ENDBRANCH   4   3
ENDBRANCH  10   9
BRANCH  12  13
ATOM     13  N   UNL     1     -16.003  20.676  -8.185  0.00  0.00    -0.281 N 
ATOM     14  C   UNL     1     -14.774  20.902  -8.781  0.00  0.00    +0.248 C 
ATOM     30  O   UNL     1     -14.610  21.089  -9.977  0.00  0.00    -0.270 OA
ATOM     31  H   UNL     1     -15.980  20.344  -7.220  0.00  0.00    +0.155 HD
BRANCH  14  15
ATOM     15  C   UNL     1     -13.547  20.907  -7.927  0.00  0.00    +0.037 A 
ATOM     16  C   UNL     1     -12.306  21.539  -8.383  0.00  0.00    +0.013 A 
ATOM     17  C   UNL     1     -11.132  21.515  -7.546  0.00  0.00    +0.005 A 
ATOM     18  C   UNL     1     -11.195  20.857  -6.243  0.00  0.00    -0.033 A 
ATOM     28  C   UNL     1     -12.440  20.243  -5.814  0.00  0.00    +0.005 A 
ATOM     29  C   UNL     1     -13.593  20.264  -6.631  0.00  0.00    +0.013 A 
BRANCH  18  19
ATOM     19  C   UNL     1      -9.986  20.765  -5.294  0.00  0.00    +0.119 C 
BRANCH  19  20
ATOM     20  N   UNL     1      -9.924  19.587  -4.378  0.00  0.00    -0.302 NA
ATOM     21  C   UNL     1      -9.927  20.005  -2.905  0.00  0.00    +0.066 C 
ATOM     22  C   UNL     1      -9.884  18.760  -1.960  0.00  0.00    -0.064 C 
ATOM     23  N   UNL     1      -8.647  17.920  -2.283  0.00  0.00    +0.379 N 
ATOM     24  C   UNL     1      -8.573  16.780  -1.358  0.00  0.00    -0.096 C 
ATOM     25  H   UNL     1      -7.750  18.558  -2.106  0.00  0.00    -0.082 HD
ATOM     26  C   UNL     1      -8.635  17.503  -3.747  0.00  0.00    -0.064 C 
ATOM     27  C   UNL     1      -8.707  18.746  -4.676  0.00  0.00    +0.066 C 
ENDBRANCH  19  20
ENDBRANCH  18  19
ENDBRANCH  14  15
ENDBRANCH  12  13
TORSDOF 6
ENDMDL
MODEL 5
REMARK VINA RESULT:      -8.4      2.186     12.127
REMARK  Name = C:\Users\Docking\Desktop\test protocol\1iep_ligandH.pdb
REMARK  8 active torsions:
REMARK  status: ('A' for Active; 'I' for Inactive)
REMARK    1  A    between atoms: _5  and  _11
REMARK    2  A    between atoms: _19  and  _21
REMARK    3  A    between atoms: _22  and  _66
REMARK    4  A    between atoms: _27  and  _30
REMARK    5  A    between atoms: _32  and  _33
REMARK    6  A    between atoms: _38  and  _43
REMARK    7  A    between atoms: _43  and  _46
REMARK    8  A    between atoms: _53  and  _55
REMARK                            x       y       z     vdW  Elec       q    Type
REMARK                         _______ _______ _______ _____ _____    ______ ____
ROOT
ATOM     10  C   UNL     1     -14.794  20.302  -8.080  0.00  0.00    +0.038 A 
ATOM     11  C   UNL     1     -15.938  19.482  -7.904  0.00  0.00    +0.047 A 
ATOM     12  C   UNL     1     -17.235  19.877  -8.430  0.00  0.00    +0.035 A 
ATOM     32  C   UNL     1     -17.332  21.114  -9.131  0.00  0.00    +0.024 A 
ATOM     33  C   UNL     1     -16.180  21.961  -9.318  0.00  0.00    +0.007 A 
ATOM     34  C   UNL     1     -14.898  21.577  -8.800  0.00  0.00    -0.029 A 
ATOM     35  C   UNL     1     -13.699  22.527  -9.024  0.00  0.00    +0.045 C 
ENDROOT
BRANCH  10   9
ATOM      4  C   UNL     1     -11.540  20.097  -4.558  0.00  0.00    +0.077 A 
ATOM      5  C   UNL     1     -12.327  20.937  -3.701  0.00  0.00    +0.048 A 
ATOM      6  C   UNL     1     -13.560  21.406  -4.208  0.00  0.00    +0.116 A 
ATOM      7  N   UNL     1     -13.965  21.056  -5.477  0.00  0.00    -0.223 NA
ATOM      8  C   UNL     1     -13.181  20.245  -6.278  0.00  0.00    +0.220 A 
ATOM      9  N   UNL     1     -13.573  19.874  -7.555  0.00  0.00    -0.283 N 
ATOM     36  H   UNL     1     -12.963  19.281  -8.117  0.00  0.00    +0.155 HD
ATOM     37  N   UNL     1     -11.999  19.785  -5.818  0.00  0.00    -0.214 NA
BRANCH   4   3
ATOM      1  C   UNL     1      -7.723  19.250  -4.442  0.00  0.00    +0.020 A 
ATOM      2  C   UNL     1      -8.976  19.834  -4.862  0.00  0.00    +0.013 A 
ATOM      3  C   UNL     1     -10.216  19.520  -4.164  0.00  0.00    +0.019 A 
ATOM     38  C   UNL     1     -10.154  18.604  -3.036  0.00  0.00    +0.120 A 
ATOM     39  N   UNL     1      -8.933  18.055  -2.654  0.00  0.00    -0.263 NA
ATOM     40  C   UNL     1      -7.733  18.349  -3.320  0.00  0.00    +0.111 A 
ENDBRANCH   4   3
ENDBRANCH  10   9
BRANCH  12  13
ATOM     13  N   UNL     1     -18.433  19.089  -8.275  0.00  0.00    -0.281 N 
ATOM     14  C   UNL     1     -18.959  18.157  -9.155  0.00  0.00    +0.248 C 
ATOM     30  O   UNL     1     -18.590  18.014 -10.311  0.00  0.00    -0.270 OA
ATOM     31  H   UNL     1     -18.957  19.236  -7.413  0.00  0.00    +0.155 HD
BRANCH  14  15
ATOM     15  C   UNL     1     -20.063  17.265  -8.687  0.00  0.00    +0.037 A 
ATOM     16  C   UNL     1     -20.014  15.817  -8.906  0.00  0.00    +0.013 A 
ATOM     17  C   UNL     1     -21.100  14.981  -8.460  0.00  0.00    +0.005 A 
ATOM     18  C   UNL     1     -22.245  15.592  -7.788  0.00  0.00    -0.033 A 
ATOM     28  C   UNL     1     -22.265  17.030  -7.579  0.00  0.00    +0.005 A 
ATOM     29  C   UNL     1     -21.202  17.853  -8.016  0.00  0.00    +0.013 A 
BRANCH  18  19
ATOM     19  C   UNL     1     -23.458  14.780  -7.298  0.00  0.00    +0.119 C 
BRANCH  19  20
ATOM     20  N   UNL     1     -24.777  15.477  -7.259  0.00  0.00    -0.302 NA
ATOM     21  C   UNL     1     -25.220  15.790  -5.827  0.00  0.00    +0.066 C 
ATOM     22  C   UNL     1     -26.592  16.540  -5.806  0.00  0.00    -0.064 C 
ATOM     23  N   UNL     1     -27.643  15.694  -6.525  0.00  0.00    +0.379 N 
ATOM     24  C   UNL     1     -28.947  16.370  -6.457  0.00  0.00    -0.096 C 
ATOM     25  H   UNL     1     -27.734  14.728  -5.976  0.00  0.00    -0.082 HD
ATOM     26  C   UNL     1     -27.210  15.376  -7.949  0.00  0.00    -0.064 C 
ATOM     27  C   UNL     1     -25.832  14.657  -7.960  0.00  0.00    +0.066 C 
ENDBRANCH  19  20
ENDBRANCH  18  19
ENDBRANCH  14  15
ENDBRANCH  12  13
TORSDOF 6
ENDMDL
