MODEL 1
REMARK VINA RESULT:      -7.6      0.000      0.000
REMARK  Name = C:\Users\Docking\Desktop\test protocol\1iep_ligandH.pdb
REMARK  8 active torsions:
REMARK  status: ('A' for Active; 'I' for Inactive)
REMARK    1  A    between atoms: _5  and  _11
REMARK    2  A    between atoms: _19  and  _21
REMARK    3  A    between atoms: _22  and  _66
REMARK    4  A    between atoms: _27  and  _30
REMARK    5  A    between atoms: _32  and  _33
REMARK    6  A    between atoms: _38  and  _43
REMARK    7  A    between atoms: _43  and  _46
REMARK    8  A    between atoms: _53  and  _55
REMARK                            x       y       z     vdW  Elec       q    Type
REMARK                         _______ _______ _______ _____ _____    ______ ____
ROOT
ATOM     10  C   UNL     1      25.327  10.265  -3.495  0.00  0.00    +0.038 A 
ATOM     11  C   UNL     1      26.209  10.235  -2.385  0.00  0.00    +0.047 A 
ATOM     12  C   UNL     1      26.021  11.126  -1.251  0.00  0.00    +0.035 A 
ATOM     32  C   UNL     1      24.922  12.034  -1.279  0.00  0.00    +0.024 A 
ATOM     33  C   UNL     1      24.017  12.078  -2.400  0.00  0.00    +0.007 A 
ATOM     34  C   UNL     1      24.198  11.203  -3.523  0.00  0.00    -0.029 A 
ATOM     35  C   UNL     1      23.200  11.299  -4.700  0.00  0.00    +0.045 C 
ENDROOT
BRANCH  10   9
ATOM      4  C   UNL     1      27.397   9.120  -7.671  0.00  0.00    +0.077 A 
ATOM      5  C   UNL     1      28.061  10.389  -7.758  0.00  0.00    +0.048 A 
ATOM      6  C   UNL     1      27.838  11.311  -6.710  0.00  0.00    +0.116 A 
ATOM      7  N   UNL     1      27.010  10.978  -5.660  0.00  0.00    -0.223 NA
ATOM      8  C   UNL     1      26.384   9.746  -5.608  0.00  0.00    +0.220 A 
ATOM      9  N   UNL     1      25.554   9.387  -4.557  0.00  0.00    -0.283 N 
ATOM     36  H   UNL     1      25.105   8.472  -4.560  0.00  0.00    +0.155 HD
ATOM     37  N   UNL     1      26.580   8.849  -6.597  0.00  0.00    -0.214 NA
BRANCH   4   3
ATOM      1  C   UNL     1      27.138   5.698  -9.548  0.00  0.00    +0.020 A 
ATOM      2  C   UNL     1      26.976   6.705  -8.525  0.00  0.00    +0.013 A 
ATOM      3  C   UNL     1      27.536   8.040  -8.698  0.00  0.00    +0.019 A 
ATOM     38  C   UNL     1      28.258   8.325  -9.929  0.00  0.00    +0.120 A 
ATOM     39  N   UNL     1      28.400   7.334 -10.896  0.00  0.00    -0.263 NA
ATOM     40  C   UNL     1      27.867   6.046 -10.739  0.00  0.00    +0.111 A 
ENDBRANCH   4   3
ENDBRANCH  10   9
BRANCH  12  13
ATOM     13  N   UNL     1      26.889  11.147  -0.099  0.00  0.00    -0.281 N 
ATOM     14  C   UNL     1      27.866  12.078   0.214  0.00  0.00    +0.248 C 
ATOM     30  O   UNL     1      28.289  12.923  -0.560  0.00  0.00    -0.270 OA
ATOM     31  H   UNL     1      26.769  10.382   0.565  0.00  0.00    +0.155 HD
BRANCH  14  15
ATOM     15  C   UNL     1      28.470  12.058   1.581  0.00  0.00    +0.037 A 
ATOM     16  C   UNL     1      27.843  11.315   2.678  0.00  0.00    +0.013 A 
ATOM     17  C   UNL     1      28.437  11.327   3.991  0.00  0.00    +0.005 A 
ATOM     18  C   UNL     1      29.667  12.084   4.215  0.00  0.00    -0.033 A 
ATOM     28  C   UNL     1      30.270  12.808   3.108  0.00  0.00    +0.005 A 
ATOM     29  C   UNL     1      29.690  12.800   1.819  0.00  0.00    +0.013 A 
BRANCH  18  19
ATOM     19  C   UNL     1      30.359  12.170   5.588  0.00  0.00    +0.119 C 
BRANCH  19  20
ATOM     20  N   UNL     1      29.600  11.659   6.769  0.00  0.00    -0.302 NA
ATOM     21  C   UNL     1      29.034  12.797   7.624  0.00  0.00    +0.066 C 
ATOM     22  C   UNL     1      28.225  12.245   8.842  0.00  0.00    -0.064 C 
ATOM     23  N   UNL     1      29.125  11.334   9.679  0.00  0.00    +0.379 N 
ATOM     24  C   UNL     1      28.385  10.859  10.857  0.00  0.00    -0.096 C 
ATOM     25  H   UNL     1      29.982  11.948  10.043  0.00  0.00    -0.082 HD
ATOM     26  C   UNL     1      29.694  10.202   8.835  0.00  0.00    -0.064 C 
ATOM     27  C   UNL     1      30.472  10.761   7.611  0.00  0.00    +0.066 C 
ENDBRANCH  19  20
ENDBRANCH  18  19
ENDBRANCH  14  15
ENDBRANCH  12  13
TORSDOF 6
ENDMDL
MODEL 2
REMARK VINA RESULT:      -7.6      1.002      1.391
REMARK  Name = C:\Users\Docking\Desktop\test protocol\1iep_ligandH.pdb
REMARK  8 active torsions:
REMARK  status: ('A' for Active; 'I' for Inactive)
REMARK    1  A    between atoms: _5  and  _11
REMARK    2  A    between atoms: _19  and  _21
REMARK    3  A    between atoms: _22  and  _66
REMARK    4  A    between atoms: _27  and  _30
REMARK    5  A    between atoms: _32  and  _33
REMARK    6  A    between atoms: _38  and  _43
REMARK    7  A    between atoms: _43  and  _46
REMARK    8  A    between atoms: _53  and  _55
REMARK                            x       y       z     vdW  Elec       q    Type
REMARK                         _______ _______ _______ _____ _____    ______ ____
ROOT
ATOM     10  C   UNL     1      25.242  10.294  -3.481  0.00  0.00    +0.038 A 
ATOM     11  C   UNL     1      26.074  10.291  -2.332  0.00  0.00    +0.047 A 
ATOM     12  C   UNL     1      25.828  11.200  -1.223  0.00  0.00    +0.035 A 
ATOM     32  C   UNL     1      24.725  12.098  -1.317  0.00  0.00    +0.024 A 
ATOM     33  C   UNL     1      23.870  12.115  -2.478  0.00  0.00    +0.007 A 
ATOM     34  C   UNL     1      24.109  11.222  -3.576  0.00  0.00    -0.029 A 
ATOM     35  C   UNL     1      23.164  11.289  -4.798  0.00  0.00    +0.045 C 
ENDROOT
BRANCH  10   9
ATOM      4  C   UNL     1      27.296   9.185  -7.675  0.00  0.00    +0.077 A 
ATOM      5  C   UNL     1      27.831  10.507  -7.830  0.00  0.00    +0.048 A 
ATOM      6  C   UNL     1      27.549  11.445  -6.811  0.00  0.00    +0.116 A 
ATOM      7  N   UNL     1      26.788  11.077  -5.723  0.00  0.00    -0.223 NA
ATOM      8  C   UNL     1      26.285   9.794  -5.605  0.00  0.00    +0.220 A 
ATOM      9  N   UNL     1      25.524   9.400  -4.516  0.00  0.00    -0.283 N 
ATOM     36  H   UNL     1      25.165   8.446  -4.470  0.00  0.00    +0.155 HD
ATOM     37  N   UNL     1      26.540   8.881  -6.565  0.00  0.00    -0.214 NA
BRANCH   4   3
ATOM      1  C   UNL     1      27.124   5.742  -9.522  0.00  0.00    +0.020 A 
ATOM      2  C   UNL     1      26.885   6.772  -8.538  0.00  0.00    +0.013 A 
ATOM      3  C   UNL     1      27.510   8.082  -8.664  0.00  0.00    +0.019 A 
ATOM     38  C   UNL     1      28.378   8.320  -9.808  0.00  0.00    +0.120 A 
ATOM     39  N   UNL     1      28.591   7.308 -10.739  0.00  0.00    -0.263 NA
ATOM     40  C   UNL     1      27.996   6.042 -10.626  0.00  0.00    +0.111 A 
ENDBRANCH   4   3
ENDBRANCH  10   9
BRANCH  12  13
ATOM     13  N   UNL     1      26.644  11.249  -0.035  0.00  0.00    -0.281 N 
ATOM     14  C   UNL     1      27.829  11.939   0.157  0.00  0.00    +0.248 C 
ATOM     30  O   UNL     1      28.483  12.452  -0.738  0.00  0.00    -0.270 OA
ATOM     31  H   UNL     1      26.306  10.708   0.762  0.00  0.00    +0.155 HD
BRANCH  14  15
ATOM     15  C   UNL     1      28.374  12.066   1.543  0.00  0.00    +0.037 A 
ATOM     16  C   UNL     1      27.837  11.266   2.647  0.00  0.00    +0.013 A 
ATOM     17  C   UNL     1      28.370  11.420   3.978  0.00  0.00    +0.005 A 
ATOM     18  C   UNL     1      29.448  12.378   4.211  0.00  0.00    -0.033 A 
ATOM     28  C   UNL     1      29.966  13.154   3.097  0.00  0.00    +0.005 A 
ATOM     29  C   UNL     1      29.446  13.007   1.791  0.00  0.00    +0.013 A 
BRANCH  18  19
ATOM     19  C   UNL     1      30.062  12.623   5.602  0.00  0.00    +0.119 C 
BRANCH  19  20
ATOM     20  N   UNL     1      30.624  11.440   6.320  0.00  0.00    -0.302 NA
ATOM     21  C   UNL     1      30.074  11.318   7.744  0.00  0.00    +0.066 C 
ATOM     22  C   UNL     1      30.654  10.062   8.472  0.00  0.00    -0.064 C 
ATOM     23  N   UNL     1      32.181  10.145   8.487  0.00  0.00    +0.379 N 
ATOM     24  C   UNL     1      32.728   8.996   9.222  0.00  0.00    -0.096 C 
ATOM     25  H   UNL     1      32.464  11.069   9.044  0.00  0.00    -0.082 HD
ATOM     26  C   UNL     1      32.737  10.270   7.075  0.00  0.00    -0.064 C 
ATOM     27  C   UNL     1      32.131  11.504   6.350  0.00  0.00    +0.066 C 
ENDBRANCH  19  20
ENDBRANCH  18  19
ENDBRANCH  14  15
ENDBRANCH  12  13
TORSDOF 6
ENDMDL
MODEL 3
REMARK VINA RESULT:      -7.2     23.347     26.918
REMARK  Name = C:\Users\Docking\Desktop\test protocol\1iep_ligandH.pdb
REMARK  8 active torsions:
REMARK  status: ('A' for Active; 'I' for Inactive)
REMARK    1  A    between atoms: _5  and  _11
REMARK    2  A    between atoms: _19  and  _21
REMARK    3  A    between atoms: _22  and  _66
REMARK    4  A    between atoms: _27  and  _30
REMARK    5  A    between atoms: _32  and  _33
REMARK    6  A    between atoms: _38  and  _43
REMARK    7  A    between atoms: _43  and  _46
REMARK    8  A    between atoms: _53  and  _55
REMARK                            x       y       z     vdW  Elec       q    Type
REMARK                         _______ _______ _______ _____ _____    ______ ____
ROOT
ATOM     10  C   UNL     1      26.365   6.055  22.220  0.00  0.00    +0.038 A 
ATOM     11  C   UNL     1      27.577   5.368  22.487  0.00  0.00    +0.047 A 
ATOM     12  C   UNL     1      28.819   5.752  21.836  0.00  0.00    +0.035 A 
ATOM     32  C   UNL     1      28.791   6.843  20.919  0.00  0.00    +0.024 A 
ATOM     33  C   UNL     1      27.569   7.552  20.635  0.00  0.00    +0.007 A 
ATOM     34  C   UNL     1      26.339   7.176  21.273  0.00  0.00    -0.029 A 
ATOM     35  C   UNL     1      25.057   7.968  20.926  0.00  0.00    +0.045 C 
ENDROOT
BRANCH  10   9
ATOM      4  C   UNL     1      23.340   6.164  25.945  0.00  0.00    +0.077 A 
ATOM      5  C   UNL     1      24.160   7.099  26.660  0.00  0.00    +0.048 A 
ATOM      6  C   UNL     1      25.356   7.521  26.037  0.00  0.00    +0.116 A 
ATOM      7  N   UNL     1      25.696   7.039  24.792  0.00  0.00    -0.223 NA
ATOM      8  C   UNL     1      24.883   6.137  24.131  0.00  0.00    +0.220 A 
ATOM      9  N   UNL     1      25.201   5.644  22.875  0.00  0.00    -0.283 N 
ATOM     36  H   UNL     1      24.579   4.974  22.423  0.00  0.00    +0.155 HD
ATOM     37  N   UNL     1      23.736   5.717  24.705  0.00  0.00    -0.214 NA
BRANCH   4   3
ATOM      1  C   UNL     1      20.662   4.416  28.198  0.00  0.00    +0.020 A 
ATOM      2  C   UNL     1      21.937   4.914  27.737  0.00  0.00    +0.013 A 
ATOM      3  C   UNL     1      22.045   5.626  26.470  0.00  0.00    +0.019 A 
ATOM     38  C   UNL     1      20.833   5.819  25.687  0.00  0.00    +0.120 A 
ATOM     39  N   UNL     1      19.619   5.326  26.156  0.00  0.00    -0.263 NA
ATOM     40  C   UNL     1      19.504   4.638  27.373  0.00  0.00    +0.111 A 
ENDBRANCH   4   3
ENDBRANCH  10   9
BRANCH  12  13
ATOM     13  N   UNL     1      30.078   5.087  22.061  0.00  0.00    -0.281 N 
ATOM     14  C   UNL     1      30.729   4.191  21.228  0.00  0.00    +0.248 C 
ATOM     30  O   UNL     1      30.220   3.660  20.252  0.00  0.00    -0.270 OA
ATOM     31  H   UNL     1      30.546   5.302  22.941  0.00  0.00    +0.155 HD
BRANCH  14  15
ATOM     15  C   UNL     1      32.145   3.821  21.532  0.00  0.00    +0.037 A 
ATOM     16  C   UNL     1      32.506   3.168  22.793  0.00  0.00    +0.013 A 
ATOM     17  C   UNL     1      33.881   2.837  23.068  0.00  0.00    +0.005 A 
ATOM     18  C   UNL     1      34.907   3.157  22.078  0.00  0.00    -0.033 A 
ATOM     28  C   UNL     1      34.520   3.800  20.833  0.00  0.00    +0.005 A 
ATOM     29  C   UNL     1      33.173   4.127  20.560  0.00  0.00    +0.013 A 
BRANCH  18  19
ATOM     19  C   UNL     1      36.402   2.859  22.296  0.00  0.00    +0.119 C 
BRANCH  19  20
ATOM     20  N   UNL     1      37.350   4.009  22.194  0.00  0.00    -0.302 NA
ATOM     21  C   UNL     1      38.804   3.574  22.399  0.00  0.00    +0.066 C 
ATOM     22  C   UNL     1      39.784   4.785  22.267  0.00  0.00    -0.064 C 
ATOM     23  N   UNL     1      39.395   5.865  23.277  0.00  0.00    +0.379 N 
ATOM     24  C   UNL     1      40.349   6.980  23.195  0.00  0.00    -0.096 C 
ATOM     25  H   UNL     1      39.480   5.421  24.296  0.00  0.00    -0.082 HD
ATOM     26  C   UNL     1      37.949   6.301  23.082  0.00  0.00    -0.064 C 
ATOM     27  C   UNL     1      36.986   5.086  23.186  0.00  0.00    +0.066 C 
ENDBRANCH  19  20
ENDBRANCH  18  19
ENDBRANCH  14  15
ENDBRANCH  12  13
TORSDOF 6
ENDMDL
MODEL 4
REMARK VINA RESULT:      -7.1     22.670     27.522
REMARK  Name = C:\Users\Docking\Desktop\test protocol\1iep_ligandH.pdb
REMARK  8 active torsions:
REMARK  status: ('A' for Active; 'I' for Inactive)
REMARK    1  A    between atoms: _5  and  _11
REMARK    2  A    between atoms: _19  and  _21
REMARK    3  A    between atoms: _22  and  _66
REMARK    4  A    between atoms: _27  and  _30
REMARK    5  A    between atoms: _32  and  _33
REMARK    6  A    between atoms: _38  and  _43
REMARK    7  A    between atoms: _43  and  _46
REMARK    8  A    between atoms: _53  and  _55
REMARK                            x       y       z     vdW  Elec       q    Type
REMARK                         _______ _______ _______ _____ _____    ______ ____
ROOT
ATOM     10  C   UNL     1      27.746   5.710  21.643  0.00  0.00    +0.038 A 
ATOM     11  C   UNL     1      26.868   5.302  22.679  0.00  0.00    +0.047 A 
ATOM     12  C   UNL     1      25.630   6.019  22.942  0.00  0.00    +0.035 A 
ATOM     32  C   UNL     1      25.317   7.147  22.129  0.00  0.00    +0.024 A 
ATOM     33  C   UNL     1      26.198   7.576  21.072  0.00  0.00    +0.007 A 
ATOM     34  C   UNL     1      27.422   6.874  20.809  0.00  0.00    -0.029 A 
ATOM     35  C   UNL     1      28.333   7.383  19.668  0.00  0.00    +0.045 C 
ENDROOT
BRANCH  10   9
ATOM      4  C   UNL     1      32.417   4.909  22.401  0.00  0.00    +0.077 A 
ATOM      5  C   UNL     1      32.533   6.048  23.266  0.00  0.00    +0.048 A 
ATOM      6  C   UNL     1      31.368   6.818  23.484  0.00  0.00    +0.116 A 
ATOM      7  N   UNL     1      30.182   6.466  22.878  0.00  0.00    -0.223 NA
ATOM      8  C   UNL     1      30.106   5.362  22.048  0.00  0.00    +0.220 A 
ATOM      9  N   UNL     1      28.921   4.985  21.434  0.00  0.00    -0.283 N 
ATOM     36  H   UNL     1      28.908   4.168  20.823  0.00  0.00    +0.155 HD
ATOM     37  N   UNL     1      31.204   4.612  21.823  0.00  0.00    -0.214 NA
BRANCH   4   3
ATOM      1  C   UNL     1      35.782   2.924  22.594  0.00  0.00    +0.020 A 
ATOM      2  C   UNL     1      34.707   3.819  22.955  0.00  0.00    +0.013 A 
ATOM      3  C   UNL     1      33.558   3.996  22.076  0.00  0.00    +0.019 A 
ATOM     38  C   UNL     1      33.527   3.246  20.829  0.00  0.00    +0.120 A 
ATOM     39  N   UNL     1      34.578   2.392  20.507  0.00  0.00    -0.263 NA
ATOM     40  C   UNL     1      35.689   2.215  21.344  0.00  0.00    +0.111 A 
ENDBRANCH   4   3
ENDBRANCH  10   9
BRANCH  12  13
ATOM     13  N   UNL     1      24.703   5.656  23.986  0.00  0.00    -0.281 N 
ATOM     14  C   UNL     1      24.498   6.289  25.201  0.00  0.00    +0.248 C 
ATOM     30  O   UNL     1      25.236   7.143  25.668  0.00  0.00    -0.270 OA
ATOM     31  H   UNL     1      24.128   4.833  23.806  0.00  0.00    +0.155 HD
BRANCH  14  15
ATOM     15  C   UNL     1      23.310   5.907  26.023  0.00  0.00    +0.037 A 
ATOM     16  C   UNL     1      23.456   5.473  27.414  0.00  0.00    +0.013 A 
ATOM     17  C   UNL     1      22.295   5.094  28.179  0.00  0.00    +0.005 A 
ATOM     18  C   UNL     1      20.976   5.148  27.553  0.00  0.00    -0.033 A 
ATOM     28  C   UNL     1      20.859   5.587  26.173  0.00  0.00    +0.005 A 
ATOM     29  C   UNL     1      21.995   5.958  25.419  0.00  0.00    +0.013 A 
BRANCH  18  19
ATOM     19  C   UNL     1      19.684   4.741  28.288  0.00  0.00    +0.119 C 
BRANCH  19  20
ATOM     20  N   UNL     1      19.275   5.569  29.461  0.00  0.00    -0.302 NA
ATOM     21  C   UNL     1      19.633   4.898  30.790  0.00  0.00    +0.066 C 
ATOM     22  C   UNL     1      19.218   5.788  32.007  0.00  0.00    -0.064 C 
ATOM     23  N   UNL     1      17.718   6.080  31.934  0.00  0.00    +0.379 N 
ATOM     24  C   UNL     1      17.314   6.868  33.107  0.00  0.00    -0.096 C 
ATOM     25  H   UNL     1      17.182   5.104  31.981  0.00  0.00    -0.082 HD
ATOM     26  C   UNL     1      17.353   6.745  30.614  0.00  0.00    -0.064 C 
ATOM     27  C   UNL     1      17.796   5.866  29.411  0.00  0.00    +0.066 C 
ENDBRANCH  19  20
ENDBRANCH  18  19
ENDBRANCH  14  15
ENDBRANCH  12  13
TORSDOF 6
ENDMDL
MODEL 5
REMARK VINA RESULT:      -7.0      2.358     13.141
REMARK  Name = C:\Users\Docking\Desktop\test protocol\1iep_ligandH.pdb
REMARK  8 active torsions:
REMARK  status: ('A' for Active; 'I' for Inactive)
REMARK    1  A    between atoms: _5  and  _11
REMARK    2  A    between atoms: _19  and  _21
REMARK    3  A    between atoms: _22  and  _66
REMARK    4  A    between atoms: _27  and  _30
REMARK    5  A    between atoms: _32  and  _33
REMARK    6  A    between atoms: _38  and  _43
REMARK    7  A    between atoms: _43  and  _46
REMARK    8  A    between atoms: _53  and  _55
REMARK                            x       y       z     vdW  Elec       q    Type
REMARK                         _______ _______ _______ _____ _____    ______ ____
ROOT
ATOM     10  C   UNL     1      25.431  10.716  -1.702  0.00  0.00    +0.038 A 
ATOM     11  C   UNL     1      25.983   9.884  -2.709  0.00  0.00    +0.047 A 
ATOM     12  C   UNL     1      25.418   9.848  -4.049  0.00  0.00    +0.035 A 
ATOM     32  C   UNL     1      24.292  10.676  -4.330  0.00  0.00    +0.024 A 
ATOM     33  C   UNL     1      23.718  11.527  -3.318  0.00  0.00    +0.007 A 
ATOM     34  C   UNL     1      24.269  11.565  -1.993  0.00  0.00    -0.029 A 
ATOM     35  C   UNL     1      23.608  12.491  -0.947  0.00  0.00    +0.045 C 
ENDROOT
BRANCH  10   9
ATOM      4  C   UNL     1      28.626  12.328   1.496  0.00  0.00    +0.077 A 
ATOM      5  C   UNL     1      29.203  13.238   0.549  0.00  0.00    +0.048 A 
ATOM      6  C   UNL     1      28.653  13.256  -0.752  0.00  0.00    +0.116 A 
ATOM      7  N   UNL     1      27.604  12.421  -1.071  0.00  0.00    -0.223 NA
ATOM      8  C   UNL     1      27.073  11.554  -0.135  0.00  0.00    +0.220 A 
ATOM      9  N   UNL     1      26.013  10.711  -0.432  0.00  0.00    -0.283 N 
ATOM     36  H   UNL     1      25.654  10.080   0.284  0.00  0.00    +0.155 HD
ATOM     37  N   UNL     1      27.581  11.517   1.114  0.00  0.00    -0.214 NA
BRANCH   4   3
ATOM      1  C   UNL     1      28.831  11.396   5.290  0.00  0.00    +0.020 A 
ATOM      2  C   UNL     1      28.332  11.496   3.937  0.00  0.00    +0.013 A 
ATOM      3  C   UNL     1      29.096  12.195   2.911  0.00  0.00    +0.019 A 
ATOM     38  C   UNL     1      30.372  12.784   3.289  0.00  0.00    +0.120 A 
ATOM     39  N   UNL     1      30.826  12.673   4.600  0.00  0.00    -0.263 NA
ATOM     40  C   UNL     1      30.098  12.005   5.596  0.00  0.00    +0.111 A 
ENDBRANCH   4   3
ENDBRANCH  10   9
BRANCH  12  13
ATOM     13  N   UNL     1      25.931   9.017  -5.110  0.00  0.00    -0.281 N 
ATOM     14  C   UNL     1      26.591   9.416  -6.261  0.00  0.00    +0.248 C 
ATOM     30  O   UNL     1      26.652  10.570  -6.658  0.00  0.00    -0.270 OA
ATOM     31  H   UNL     1      25.791   8.013  -4.999  0.00  0.00    +0.155 HD
BRANCH  14  15
ATOM     15  C   UNL     1      27.269   8.381  -7.100  0.00  0.00    +0.037 A 
ATOM     16  C   UNL     1      26.499   7.453  -7.931  0.00  0.00    +0.013 A 
ATOM     17  C   UNL     1      27.177   6.453  -8.717  0.00  0.00    +0.005 A 
ATOM     18  C   UNL     1      28.635   6.378  -8.677  0.00  0.00    -0.033 A 
ATOM     28  C   UNL     1      29.375   7.315  -7.848  0.00  0.00    +0.005 A 
ATOM     29  C   UNL     1      28.714   8.296  -7.075  0.00  0.00    +0.013 A 
BRANCH  18  19
ATOM     19  C   UNL     1      29.441   5.330  -9.467  0.00  0.00    +0.119 C 
BRANCH  19  20
ATOM     20  N   UNL     1      30.313   5.829 -10.572  0.00  0.00    -0.302 NA
ATOM     21  C   UNL     1      29.499   6.453 -11.709  0.00  0.00    +0.066 C 
ATOM     22  C   UNL     1      30.428   6.990 -12.846  0.00  0.00    -0.064 C 
ATOM     23  N   UNL     1      31.301   5.848 -13.369  0.00  0.00    +0.379 N 
ATOM     24  C   UNL     1      32.135   6.335 -14.478  0.00  0.00    -0.096 C 
ATOM     25  H   UNL     1      30.622   5.063 -13.776  0.00  0.00    -0.082 HD
ATOM     26  C   UNL     1      32.112   5.219 -12.245  0.00  0.00    -0.064 C 
ATOM     27  C   UNL     1      31.181   4.716 -11.107  0.00  0.00    +0.066 C 
ENDBRANCH  19  20
ENDBRANCH  18  19
ENDBRANCH  14  15
ENDBRANCH  12  13
TORSDOF 6
ENDMDL
