MODEL 1
REMARK VINA RESULT:      -8.4      0.000      0.000
REMARK  Name = C:\Users\Docking\Desktop\test protocol\1iep_ligandH.pdb
REMARK  8 active torsions:
REMARK  status: ('A' for Active; 'I' for Inactive)
REMARK    1  A    between atoms: _5  and  _11
REMARK    2  A    between atoms: _19  and  _21
REMARK    3  A    between atoms: _22  and  _66
REMARK    4  A    between atoms: _27  and  _30
REMARK    5  A    between atoms: _32  and  _33
REMARK    6  A    between atoms: _38  and  _43
REMARK    7  A    between atoms: _43  and  _46
REMARK    8  A    between atoms: _53  and  _55
REMARK                            x       y       z     vdW  Elec       q    Type
REMARK                         _______ _______ _______ _____ _____    ______ ____
ROOT
ATOM     10  C   UNL     1      25.692  11.481  26.258  0.00  0.00    +0.038 A 
ATOM     11  C   UNL     1      24.971  10.297  25.957  0.00  0.00    +0.047 A 
ATOM     12  C   UNL     1      25.201   9.067  26.699  0.00  0.00    +0.035 A 
ATOM     32  C   UNL     1      26.172   9.079  27.742  0.00  0.00    +0.024 A 
ATOM     33  C   UNL     1      26.915  10.273  28.060  0.00  0.00    +0.007 A 
ATOM     34  C   UNL     1      26.694  11.488  27.330  0.00  0.00    -0.029 A 
ATOM     35  C   UNL     1      27.524  12.737  27.710  0.00  0.00    +0.045 C 
ENDROOT
BRANCH  10   9
ATOM      4  C   UNL     1      26.692  14.533  22.691  0.00  0.00    +0.077 A 
ATOM      5  C   UNL     1      27.848  13.783  22.293  0.00  0.00    +0.048 A 
ATOM      6  C   UNL     1      28.155  12.621  23.037  0.00  0.00    +0.116 A 
ATOM      7  N   UNL     1      27.358  12.247  24.097  0.00  0.00    -0.223 NA
ATOM      8  C   UNL     1      26.251  12.995  24.456  0.00  0.00    +0.220 A 
ATOM      9  N   UNL     1      25.431  12.633  25.514  0.00  0.00    -0.283 N 
ATOM     36  H   UNL     1      24.628  13.215  25.751  0.00  0.00    +0.155 HD
ATOM     37  N   UNL     1      25.937  14.109  23.762  0.00  0.00    -0.214 NA
BRANCH   4   3
ATOM      1  C   UNL     1      24.685  17.051  20.470  0.00  0.00    +0.020 A 
ATOM      2  C   UNL     1      25.084  15.819  21.110  0.00  0.00    +0.013 A 
ATOM      3  C   UNL     1      26.236  15.782  22.002  0.00  0.00    +0.019 A 
ATOM     38  C   UNL     1      26.967  17.019  22.228  0.00  0.00    +0.120 A 
ATOM     39  N   UNL     1      26.561  18.191  21.597  0.00  0.00    -0.263 NA
ATOM     40  C   UNL     1      25.455  18.238  20.735  0.00  0.00    +0.111 A 
ENDBRANCH   4   3
ENDBRANCH  10   9
BRANCH  12  13
ATOM     13  N   UNL     1      24.504   7.833  26.434  0.00  0.00    -0.281 N 
ATOM     14  C   UNL     1      23.733   7.510  25.329  0.00  0.00    +0.248 C 
ATOM     30  O   UNL     1      23.349   8.317  24.496  0.00  0.00    -0.270 OA
ATOM     31  H   UNL     1      24.590   7.108  27.147  0.00  0.00    +0.155 HD
BRANCH  14  15
ATOM     15  C   UNL     1      23.318   6.088  25.129  0.00  0.00    +0.037 A 
ATOM     16  C   UNL     1      22.427   5.705  24.031  0.00  0.00    +0.013 A 
ATOM     17  C   UNL     1      22.027   4.329  23.871  0.00  0.00    +0.005 A 
ATOM     18  C   UNL     1      22.521   3.326  24.811  0.00  0.00    -0.033 A 
ATOM     28  C   UNL     1      23.408   3.733  25.888  0.00  0.00    +0.005 A 
ATOM     29  C   UNL     1      23.800   5.081  26.049  0.00  0.00    +0.013 A 
BRANCH  18  19
ATOM     19  C   UNL     1      22.130   1.838  24.729  0.00  0.00    +0.119 C 
BRANCH  19  20
ATOM     20  N   UNL     1      23.121   0.904  24.117  0.00  0.00    -0.302 NA
ATOM     21  C   UNL     1      22.554   0.189  22.888  0.00  0.00    +0.066 C 
ATOM     22  C   UNL     1      23.612  -0.768  22.247  0.00  0.00    -0.064 C 
ATOM     23  N   UNL     1      24.080  -1.780  23.295  0.00  0.00    +0.379 N 
ATOM     24  C   UNL     1      25.031  -2.718  22.680  0.00  0.00    -0.096 C 
ATOM     25  H   UNL     1      23.189  -2.367  23.620  0.00  0.00    -0.082 HD
ATOM     26  C   UNL     1      24.642  -1.078  24.522  0.00  0.00    -0.064 C 
ATOM     27  C   UNL     1      23.593  -0.107  25.133  0.00  0.00    +0.066 C 
ENDBRANCH  19  20
ENDBRANCH  18  19
ENDBRANCH  14  15
ENDBRANCH  12  13
TORSDOF 6
ENDMDL
MODEL 2
REMARK VINA RESULT:      -7.9      3.628     13.538
REMARK  Name = C:\Users\Docking\Desktop\test protocol\1iep_ligandH.pdb
REMARK  8 active torsions:
REMARK  status: ('A' for Active; 'I' for Inactive)
REMARK    1  A    between atoms: _5  and  _11
REMARK    2  A    between atoms: _19  and  _21
REMARK    3  A    between atoms: _22  and  _66
REMARK    4  A    between atoms: _27  and  _30
REMARK    5  A    between atoms: _32  and  _33
REMARK    6  A    between atoms: _38  and  _43
REMARK    7  A    between atoms: _43  and  _46
REMARK    8  A    between atoms: _53  and  _55
REMARK                            x       y       z     vdW  Elec       q    Type
REMARK                         _______ _______ _______ _____ _____    ______ ____
ROOT
ATOM     10  C   UNL     1      27.654  11.677  24.044  0.00  0.00    +0.038 A 
ATOM     11  C   UNL     1      27.091  12.938  23.725  0.00  0.00    +0.047 A 
ATOM     12  C   UNL     1      27.849  14.167  23.902  0.00  0.00    +0.035 A 
ATOM     32  C   UNL     1      29.179  14.074  24.404  0.00  0.00    +0.024 A 
ATOM     33  C   UNL     1      29.767  12.800  24.735  0.00  0.00    +0.007 A 
ATOM     34  C   UNL     1      29.023  11.584  24.565  0.00  0.00    -0.029 A 
ATOM     35  C   UNL     1      29.702  10.247  24.942  0.00  0.00    +0.045 C 
ENDROOT
BRANCH  10   9
ATOM      4  C   UNL     1      24.455   8.432  25.552  0.00  0.00    +0.077 A 
ATOM      5  C   UNL     1      24.332   9.061  26.835  0.00  0.00    +0.048 A 
ATOM      6  C   UNL     1      25.115  10.214  27.070  0.00  0.00    +0.116 A 
ATOM      7  N   UNL     1      25.954  10.692  26.087  0.00  0.00    -0.223 NA
ATOM      8  C   UNL     1      26.050  10.060  24.861  0.00  0.00    +0.220 A 
ATOM      9  N   UNL     1      26.881  10.529  23.855  0.00  0.00    -0.283 N 
ATOM     36  H   UNL     1      26.929  10.030  22.967  0.00  0.00    +0.155 HD
ATOM     37  N   UNL     1      25.314   8.957  24.613  0.00  0.00    -0.214 NA
BRANCH   4   3
ATOM      1  C   UNL     1      22.053   5.975  23.681  0.00  0.00    +0.020 A 
ATOM      2  C   UNL     1      22.766   7.184  24.025  0.00  0.00    +0.013 A 
ATOM      3  C   UNL     1      23.690   7.208  25.152  0.00  0.00    +0.019 A 
ATOM     38  C   UNL     1      23.872   5.982  25.915  0.00  0.00    +0.120 A 
ATOM     39  N   UNL     1      23.171   4.834  25.561  0.00  0.00    -0.263 NA
ATOM     40  C   UNL     1      22.278   4.800  24.480  0.00  0.00    +0.111 A 
ENDBRANCH   4   3
ENDBRANCH  10   9
BRANCH  12  13
ATOM     13  N   UNL     1      27.326  15.477  23.602  0.00  0.00    -0.281 N 
ATOM     14  C   UNL     1      27.064  16.025  22.357  0.00  0.00    +0.248 C 
ATOM     30  O   UNL     1      27.441  15.546  21.298  0.00  0.00    -0.270 OA
ATOM     31  H   UNL     1      27.126  16.074  24.405  0.00  0.00    +0.155 HD
BRANCH  14  15
ATOM     15  C   UNL     1      26.282  17.296  22.277  0.00  0.00    +0.037 A 
ATOM     16  C   UNL     1      26.729  18.508  22.969  0.00  0.00    +0.013 A 
ATOM     17  C   UNL     1      25.946  19.716  22.890  0.00  0.00    +0.005 A 
ATOM     18  C   UNL     1      24.708  19.718  22.114  0.00  0.00    -0.033 A 
ATOM     28  C   UNL     1      24.291  18.503  21.434  0.00  0.00    +0.005 A 
ATOM     29  C   UNL     1      25.055  17.317  21.510  0.00  0.00    +0.013 A 
BRANCH  18  19
ATOM     19  C   UNL     1      23.800  20.956  21.992  0.00  0.00    +0.119 C 
BRANCH  19  20
ATOM     20  N   UNL     1      23.229  21.512  23.255  0.00  0.00    -0.302 NA
ATOM     21  C   UNL     1      22.915  20.415  24.276  0.00  0.00    +0.066 C 
ATOM     22  C   UNL     1      22.340  21.016  25.600  0.00  0.00    -0.064 C 
ATOM     23  N   UNL     1      21.087  21.835  25.282  0.00  0.00    +0.379 N 
ATOM     24  C   UNL     1      20.511  22.354  26.531  0.00  0.00    -0.096 C 
ATOM     25  H   UNL     1      20.340  21.146  24.826  0.00  0.00    -0.082 HD
ATOM     26  C   UNL     1      21.390  22.927  24.266  0.00  0.00    -0.064 C 
ATOM     27  C   UNL     1      21.988  22.321  22.966  0.00  0.00    +0.066 C 
ENDBRANCH  19  20
ENDBRANCH  18  19
ENDBRANCH  14  15
ENDBRANCH  12  13
TORSDOF 6
ENDMDL
MODEL 3
REMARK VINA RESULT:      -7.8     28.018     34.001
REMARK  Name = C:\Users\Docking\Desktop\test protocol\1iep_ligandH.pdb
REMARK  8 active torsions:
REMARK  status: ('A' for Active; 'I' for Inactive)
REMARK    1  A    between atoms: _5  and  _11
REMARK    2  A    between atoms: _19  and  _21
REMARK    3  A    between atoms: _22  and  _66
REMARK    4  A    between atoms: _27  and  _30
REMARK    5  A    between atoms: _32  and  _33
REMARK    6  A    between atoms: _38  and  _43
REMARK    7  A    between atoms: _43  and  _46
REMARK    8  A    between atoms: _53  and  _55
REMARK                            x       y       z     vdW  Elec       q    Type
REMARK                         _______ _______ _______ _____ _____    ______ ____
ROOT
ATOM     10  C   UNL     1      25.973  -9.832  -3.476  0.00  0.00    +0.038 A 
ATOM     11  C   UNL     1      24.719  -9.571  -4.086  0.00  0.00    +0.047 A 
ATOM     12  C   UNL     1      24.510  -9.803  -5.507  0.00  0.00    +0.035 A 
ATOM     32  C   UNL     1      25.601 -10.304  -6.277  0.00  0.00    +0.024 A 
ATOM     33  C   UNL     1      26.882 -10.573  -5.674  0.00  0.00    +0.007 A 
ATOM     34  C   UNL     1      27.095 -10.343  -4.273  0.00  0.00    -0.029 A 
ATOM     35  C   UNL     1      28.491 -10.643  -3.681  0.00  0.00    +0.045 C 
ENDROOT
BRANCH  10   9
ATOM      4  C   UNL     1      26.260  -6.876   0.294  0.00  0.00    +0.077 A 
ATOM      5  C   UNL     1      26.139  -5.711  -0.535  0.00  0.00    +0.048 A 
ATOM      6  C   UNL     1      26.011  -5.916  -1.927  0.00  0.00    +0.116 A 
ATOM      7  N   UNL     1      26.007  -7.194  -2.441  0.00  0.00    -0.223 NA
ATOM      8  C   UNL     1      26.128  -8.296  -1.614  0.00  0.00    +0.220 A 
ATOM      9  N   UNL     1      26.117  -9.591  -2.108  0.00  0.00    -0.283 N 
ATOM     36  H   UNL     1      26.216 -10.377  -1.466  0.00  0.00    +0.155 HD
ATOM     37  N   UNL     1      26.252  -8.127  -0.281  0.00  0.00    -0.214 NA
BRANCH   4   3
ATOM      1  C   UNL     1      25.488  -6.418   4.101  0.00  0.00    +0.020 A 
ATOM      2  C   UNL     1      25.301  -6.453   2.669  0.00  0.00    +0.013 A 
ATOM      3  C   UNL     1      26.399  -6.823   1.784  0.00  0.00    +0.019 A 
ATOM     38  C   UNL     1      27.681  -7.156   2.385  0.00  0.00    +0.120 A 
ATOM     39  N   UNL     1      27.832  -7.112   3.767  0.00  0.00    -0.263 NA
ATOM     40  C   UNL     1      26.784  -6.755   4.629  0.00  0.00    +0.111 A 
ENDBRANCH   4   3
ENDBRANCH  10   9
BRANCH  12  13
ATOM     13  N   UNL     1      23.262  -9.550  -6.182  0.00  0.00    -0.281 N 
ATOM     14  C   UNL     1      22.062 -10.225  -6.035  0.00  0.00    +0.248 C 
ATOM     30  O   UNL     1      21.936 -11.293  -5.453  0.00  0.00    -0.270 OA
ATOM     31  H   UNL     1      23.264  -8.779  -6.850  0.00  0.00    +0.155 HD
BRANCH  14  15
ATOM     15  C   UNL     1      20.824  -9.638  -6.633  0.00  0.00    +0.037 A 
ATOM     16  C   UNL     1      20.622  -9.608  -8.084  0.00  0.00    +0.013 A 
ATOM     17  C   UNL     1      19.427  -9.020  -8.635  0.00  0.00    +0.005 A 
ATOM     18  C   UNL     1      18.424  -8.457  -7.734  0.00  0.00    -0.033 A 
ATOM     28  C   UNL     1      18.648  -8.504  -6.299  0.00  0.00    +0.005 A 
ATOM     29  C   UNL     1      19.819  -9.079  -5.755  0.00  0.00    +0.013 A 
BRANCH  18  19
ATOM     19  C   UNL     1      17.129  -7.791  -8.236  0.00  0.00    +0.119 C 
BRANCH  19  20
ATOM     20  N   UNL     1      16.060  -7.528  -7.226  0.00  0.00    -0.302 NA
ATOM     21  C   UNL     1      14.690  -8.021  -7.700  0.00  0.00    +0.066 C 
ATOM     22  C   UNL     1      13.587  -7.759  -6.623  0.00  0.00    -0.064 C 
ATOM     23  N   UNL     1      13.543  -6.265  -6.295  0.00  0.00    +0.379 N 
ATOM     24  C   UNL     1      12.468  -6.008  -5.325  0.00  0.00    -0.096 C 
ATOM     25  H   UNL     1      13.289  -5.721  -7.234  0.00  0.00    -0.082 HD
ATOM     26  C   UNL     1      14.902  -5.767  -5.826  0.00  0.00    -0.064 C 
ATOM     27  C   UNL     1      15.996  -6.059  -6.891  0.00  0.00    +0.066 C 
ENDBRANCH  19  20
ENDBRANCH  18  19
ENDBRANCH  14  15
ENDBRANCH  12  13
TORSDOF 6
ENDMDL
MODEL 4
REMARK VINA RESULT:      -7.7     26.560     30.998
REMARK  Name = C:\Users\Docking\Desktop\test protocol\1iep_ligandH.pdb
REMARK  8 active torsions:
REMARK  status: ('A' for Active; 'I' for Inactive)
REMARK    1  A    between atoms: _5  and  _11
REMARK    2  A    between atoms: _19  and  _21
REMARK    3  A    between atoms: _22  and  _66
REMARK    4  A    between atoms: _27  and  _30
REMARK    5  A    between atoms: _32  and  _33
REMARK    6  A    between atoms: _38  and  _43
REMARK    7  A    between atoms: _43  and  _46
REMARK    8  A    between atoms: _53  and  _55
REMARK                            x       y       z     vdW  Elec       q    Type
REMARK                         _______ _______ _______ _____ _____    ______ ____
ROOT
ATOM     10  C   UNL     1      26.637  -7.092   0.297  0.00  0.00    +0.038 A 
ATOM     11  C   UNL     1      25.628  -6.154  -0.039  0.00  0.00    +0.047 A 
ATOM     12  C   UNL     1      24.786  -5.554   0.985  0.00  0.00    +0.035 A 
ATOM     32  C   UNL     1      25.002  -5.931   2.343  0.00  0.00    +0.024 A 
ATOM     33  C   UNL     1      26.023  -6.884   2.702  0.00  0.00    +0.007 A 
ATOM     34  C   UNL     1      26.855  -7.480   1.696  0.00  0.00    -0.029 A 
ATOM     35  C   UNL     1      27.929  -8.500   2.139  0.00  0.00    +0.045 C 
ENDROOT
BRANCH  10   9
ATOM      4  C   UNL     1      27.353 -10.225  -3.267  0.00  0.00    +0.077 A 
ATOM      5  C   UNL     1      26.078 -10.848  -3.055  0.00  0.00    +0.048 A 
ATOM      6  C   UNL     1      25.271 -10.337  -2.014  0.00  0.00    +0.116 A 
ATOM      7  N   UNL     1      25.716  -9.281  -1.248  0.00  0.00    -0.223 NA
ATOM      8  C   UNL     1      26.952  -8.704  -1.478  0.00  0.00    +0.220 A 
ATOM      9  N   UNL     1      27.416  -7.636  -0.726  0.00  0.00    -0.283 N 
ATOM     36  H   UNL     1      28.337  -7.243  -0.922  0.00  0.00    +0.155 HD
ATOM     37  N   UNL     1      27.742  -9.175  -2.466  0.00  0.00    -0.214 NA
BRANCH   4   3
ATOM      1  C   UNL     1      29.107 -10.745  -6.725  0.00  0.00    +0.020 A 
ATOM      2  C   UNL     1      28.146 -10.310  -5.737  0.00  0.00    +0.013 A 
ATOM      3  C   UNL     1      28.317 -10.650  -4.331  0.00  0.00    +0.019 A 
ATOM     38  C   UNL     1      29.481 -11.438  -3.953  0.00  0.00    +0.120 A 
ATOM     39  N   UNL     1      30.389 -11.844  -4.926  0.00  0.00    -0.263 NA
ATOM     40  C   UNL     1      30.234 -11.524  -6.283  0.00  0.00    +0.111 A 
ENDBRANCH   4   3
ENDBRANCH  10   9
BRANCH  12  13
ATOM     13  N   UNL     1      23.740  -4.603   0.703  0.00  0.00    -0.281 N 
ATOM     14  C   UNL     1      23.727  -3.245   0.977  0.00  0.00    +0.248 C 
ATOM     30  O   UNL     1      24.531  -2.679   1.704  0.00  0.00    -0.270 OA
ATOM     31  H   UNL     1      22.908  -4.976   0.245  0.00  0.00    +0.155 HD
BRANCH  14  15
ATOM     15  C   UNL     1      22.659  -2.395   0.368  0.00  0.00    +0.037 A 
ATOM     16  C   UNL     1      22.670  -2.070  -1.061  0.00  0.00    +0.013 A 
ATOM     17  C   UNL     1      21.637  -1.234  -1.620  0.00  0.00    +0.005 A 
ATOM     18  C   UNL     1      20.583  -0.719  -0.749  0.00  0.00    -0.033 A 
ATOM     28  C   UNL     1      20.594  -1.062   0.663  0.00  0.00    +0.005 A 
ATOM     29  C   UNL     1      21.605  -1.880   1.215  0.00  0.00    +0.013 A 
BRANCH  18  19
ATOM     19  C   UNL     1      19.453   0.197  -1.256  0.00  0.00    +0.119 C 
BRANCH  19  20
ATOM     20  N   UNL     1      18.143   0.125  -0.542  0.00  0.00    -0.302 NA
ATOM     21  C   UNL     1      17.267  -1.017  -1.064  0.00  0.00    +0.066 C 
ATOM     22  C   UNL     1      15.910  -1.092  -0.291  0.00  0.00    -0.064 C 
ATOM     23  N   UNL     1      15.182   0.248  -0.413  0.00  0.00    +0.379 N 
ATOM     24  C   UNL     1      13.880   0.162   0.263  0.00  0.00    -0.096 C 
ATOM     25  H   UNL     1      14.990   0.430  -1.496  0.00  0.00    -0.082 HD
ATOM     26  C   UNL     1      16.048   1.390   0.100  0.00  0.00    -0.064 C 
ATOM     27  C   UNL     1      17.406   1.437  -0.654  0.00  0.00    +0.066 C 
ENDBRANCH  19  20
ENDBRANCH  18  19
ENDBRANCH  14  15
ENDBRANCH  12  13
TORSDOF 6
ENDMDL
MODEL 5
REMARK VINA RESULT:      -7.6     21.398     26.249
REMARK  Name = C:\Users\Docking\Desktop\test protocol\1iep_ligandH.pdb
REMARK  8 active torsions:
REMARK  status: ('A' for Active; 'I' for Inactive)
REMARK    1  A    between atoms: _5  and  _11
REMARK    2  A    between atoms: _19  and  _21
REMARK    3  A    between atoms: _22  and  _66
REMARK    4  A    between atoms: _27  and  _30
REMARK    5  A    between atoms: _32  and  _33
REMARK    6  A    between atoms: _38  and  _43
REMARK    7  A    between atoms: _43  and  _46
REMARK    8  A    between atoms: _53  and  _55
REMARK                            x       y       z     vdW  Elec       q    Type
REMARK                         _______ _______ _______ _____ _____    ______ ____
ROOT
ATOM     10  C   UNL     1      13.270   5.934   3.204  0.00  0.00    +0.038 A 
ATOM     11  C   UNL     1      14.206   6.904   3.647  0.00  0.00    +0.047 A 
ATOM     12  C   UNL     1      13.778   8.236   4.046  0.00  0.00    +0.035 A 
ATOM     32  C   UNL     1      12.388   8.545   3.984  0.00  0.00    +0.024 A 
ATOM     33  C   UNL     1      11.423   7.572   3.535  0.00  0.00    +0.007 A 
ATOM     34  C   UNL     1      11.840   6.258   3.138  0.00  0.00    -0.029 A 
ATOM     35  C   UNL     1      10.763   5.257   2.660  0.00  0.00    +0.045 C 
ENDROOT
BRANCH  10   9
ATOM      4  C   UNL     1      15.113   2.876  -0.004  0.00  0.00    +0.077 A 
ATOM      5  C   UNL     1      15.123   3.873  -1.036  0.00  0.00    +0.048 A 
ATOM      6  C   UNL     1      14.639   5.158  -0.702  0.00  0.00    +0.116 A 
ATOM      7  N   UNL     1      14.182   5.416   0.572  0.00  0.00    -0.223 NA
ATOM      8  C   UNL     1      14.184   4.431   1.543  0.00  0.00    +0.220 A 
ATOM      9  N   UNL     1      13.736   4.671   2.833  0.00  0.00    -0.283 N 
ATOM     36  H   UNL     1      13.748   3.916   3.519  0.00  0.00    +0.155 HD
ATOM     37  N   UNL     1      14.640   3.196   1.249  0.00  0.00    -0.214 NA
BRANCH   4   3
ATOM      1  C   UNL     1      15.308  -1.030  -0.068  0.00  0.00    +0.020 A 
ATOM      2  C   UNL     1      14.795   0.304   0.142  0.00  0.00    +0.013 A 
ATOM      3  C   UNL     1      15.595   1.473  -0.201  0.00  0.00    +0.019 A 
ATOM     38  C   UNL     1      16.921   1.255  -0.761  0.00  0.00    +0.120 A 
ATOM     39  N   UNL     1      17.389  -0.041  -0.951  0.00  0.00    -0.263 NA
ATOM     40  C   UNL     1      16.628  -1.173  -0.623  0.00  0.00    +0.111 A 
ENDBRANCH   4   3
ENDBRANCH  10   9
BRANCH  12  13
ATOM     13  N   UNL     1      14.683   9.264   4.496  0.00  0.00    -0.281 N 
ATOM     14  C   UNL     1      15.743   9.138   5.379  0.00  0.00    +0.248 C 
ATOM     30  O   UNL     1      15.942   8.161   6.085  0.00  0.00    -0.270 OA
ATOM     31  H   UNL     1      14.524  10.197   4.117  0.00  0.00    +0.155 HD
BRANCH  14  15
ATOM     15  C   UNL     1      16.713  10.268   5.508  0.00  0.00    +0.037 A 
ATOM     16  C   UNL     1      18.106  10.033   5.898  0.00  0.00    +0.013 A 
ATOM     17  C   UNL     1      19.017  11.142   6.031  0.00  0.00    +0.005 A 
ATOM     18  C   UNL     1      18.537  12.497   5.772  0.00  0.00    -0.033 A 
ATOM     28  C   UNL     1      17.152  12.702   5.381  0.00  0.00    +0.005 A 
ATOM     29  C   UNL     1      16.256  11.617   5.251  0.00  0.00    +0.013 A 
BRANCH  18  19
ATOM     19  C   UNL     1      19.434  13.742   5.910  0.00  0.00    +0.119 C 
BRANCH  19  20
ATOM     20  N   UNL     1      19.275  14.816   4.885  0.00  0.00    -0.302 NA
ATOM     21  C   UNL     1      19.955  14.453   3.562  0.00  0.00    +0.066 C 
ATOM     22  C   UNL     1      19.760  15.577   2.494  0.00  0.00    -0.064 C 
ATOM     23  N   UNL     1      20.309  16.897   3.040  0.00  0.00    +0.379 N 
ATOM     24  C   UNL     1      20.180  17.943   2.016  0.00  0.00    -0.096 C 
ATOM     25  H   UNL     1      21.396  16.753   3.242  0.00  0.00    -0.082 HD
ATOM     26  C   UNL     1      19.640  17.264   4.357  0.00  0.00    -0.064 C 
ATOM     27  C   UNL     1      19.815  16.127   5.402  0.00  0.00    +0.066 C 
ENDBRANCH  19  20
ENDBRANCH  18  19
ENDBRANCH  14  15
ENDBRANCH  12  13
TORSDOF 6
ENDMDL
