MODEL 1
REMARK VINA RESULT:     -11.4      0.000      0.000
REMARK  Name = C:\Users\Docking\Desktop\test protocol\1iep_ligandH.pdb
REMARK  8 active torsions:
REMARK  status: ('A' for Active; 'I' for Inactive)
REMARK    1  A    between atoms: _5  and  _11
REMARK    2  A    between atoms: _19  and  _21
REMARK    3  A    between atoms: _22  and  _66
REMARK    4  A    between atoms: _27  and  _30
REMARK    5  A    between atoms: _32  and  _33
REMARK    6  A    between atoms: _38  and  _43
REMARK    7  A    between atoms: _43  and  _46
REMARK    8  A    between atoms: _53  and  _55
REMARK                            x       y       z     vdW  Elec       q    Type
REMARK                         _______ _______ _______ _____ _____    ______ ____
ROOT
ATOM     10  C   UNL     1      27.624  28.070   3.720  0.00  0.00    +0.038 A 
ATOM     11  C   UNL     1      28.413  28.134   4.897  0.00  0.00    +0.047 A 
ATOM     12  C   UNL     1      27.805  28.358   6.199  0.00  0.00    +0.035 A 
ATOM     32  C   UNL     1      26.389  28.509   6.266  0.00  0.00    +0.024 A 
ATOM     33  C   UNL     1      25.572  28.447   5.080  0.00  0.00    +0.007 A 
ATOM     34  C   UNL     1      26.167  28.230   3.792  0.00  0.00    -0.029 A 
ATOM     35  C   UNL     1      25.243  28.179   2.553  0.00  0.00    +0.045 C 
ENDROOT
BRANCH  10   9
ATOM      4  C   UNL     1      30.015  29.623  -0.141  0.00  0.00    +0.077 A 
ATOM      5  C   UNL     1      29.970  30.985   0.305  0.00  0.00    +0.048 A 
ATOM      6  C   UNL     1      29.315  31.245   1.530  0.00  0.00    +0.116 A 
ATOM      7  N   UNL     1      28.752  30.211   2.247  0.00  0.00    -0.223 NA
ATOM      8  C   UNL     1      28.813  28.909   1.787  0.00  0.00    +0.220 A 
ATOM      9  N   UNL     1      28.260  27.853   2.495  0.00  0.00    -0.283 N 
ATOM     36  H   UNL     1      28.320  26.907   2.119  0.00  0.00    +0.155 HD
ATOM     37  N   UNL     1      29.431  28.635   0.619  0.00  0.00    -0.214 NA
BRANCH   4   3
ATOM      1  C   UNL     1      31.999  27.548  -2.799  0.00  0.00    +0.020 A 
ATOM      2  C   UNL     1      31.380  27.920  -1.547  0.00  0.00    +0.013 A 
ATOM      3  C   UNL     1      30.674  29.188  -1.414  0.00  0.00    +0.019 A 
ATOM     38  C   UNL     1      30.612  30.063  -2.575  0.00  0.00    +0.120 A 
ATOM     39  N   UNL     1      31.218  29.679  -3.766  0.00  0.00    -0.263 NA
ATOM     40  C   UNL     1      31.901  28.462  -3.906  0.00  0.00    +0.111 A 
ENDBRANCH   4   3
ENDBRANCH  10   9
BRANCH  12  13
ATOM     13  N   UNL     1      28.555  28.441   7.427  0.00  0.00    -0.281 N 
ATOM     14  C   UNL     1      28.460  29.402   8.420  0.00  0.00    +0.248 C 
ATOM     30  O   UNL     1      27.862  30.461   8.302  0.00  0.00    -0.270 OA
ATOM     31  H   UNL     1      29.240  27.701   7.584  0.00  0.00    +0.155 HD
BRANCH  14  15
ATOM     15  C   UNL     1      29.141  29.159   9.728  0.00  0.00    +0.037 A 
ATOM     16  C   UNL     1      30.538  29.545   9.942  0.00  0.00    +0.013 A 
ATOM     17  C   UNL     1      31.175  29.283  11.208  0.00  0.00    +0.005 A 
ATOM     18  C   UNL     1      30.414  28.632  12.272  0.00  0.00    -0.033 A 
ATOM     28  C   UNL     1      29.028  28.264  12.035  0.00  0.00    +0.005 A 
ATOM     29  C   UNL     1      28.400  28.518  10.795  0.00  0.00    +0.013 A 
BRANCH  18  19
ATOM     19  C   UNL     1      31.020  28.295  13.647  0.00  0.00    +0.119 C 
BRANCH  19  20
ATOM     20  N   UNL     1      30.684  26.963  14.234  0.00  0.00    -0.302 NA
ATOM     21  C   UNL     1      31.082  26.869  15.710  0.00  0.00    +0.066 C 
ATOM     22  C   UNL     1      30.703  25.478  16.314  0.00  0.00    -0.064 C 
ATOM     23  N   UNL     1      31.375  24.371  15.500  0.00  0.00    +0.379 N 
ATOM     24  C   UNL     1      31.068  23.065  16.101  0.00  0.00    -0.096 C 
ATOM     25  H   UNL     1      32.477  24.524  15.568  0.00  0.00    -0.082 HD
ATOM     26  C   UNL     1      30.987  24.459  14.031  0.00  0.00    -0.064 C 
ATOM     27  C   UNL     1      31.341  25.856  13.448  0.00  0.00    +0.066 C 
ENDBRANCH  19  20
ENDBRANCH  18  19
ENDBRANCH  14  15
ENDBRANCH  12  13
TORSDOF 6
ENDMDL
MODEL 2
REMARK VINA RESULT:     -11.2      2.234     13.131
REMARK  Name = C:\Users\Docking\Desktop\test protocol\1iep_ligandH.pdb
REMARK  8 active torsions:
REMARK  status: ('A' for Active; 'I' for Inactive)
REMARK    1  A    between atoms: _5  and  _11
REMARK    2  A    between atoms: _19  and  _21
REMARK    3  A    between atoms: _22  and  _66
REMARK    4  A    between atoms: _27  and  _30
REMARK    5  A    between atoms: _32  and  _33
REMARK    6  A    between atoms: _38  and  _43
REMARK    7  A    between atoms: _43  and  _46
REMARK    8  A    between atoms: _53  and  _55
REMARK                            x       y       z     vdW  Elec       q    Type
REMARK                         _______ _______ _______ _____ _____    ______ ____
ROOT
ATOM     10  C   UNL     1      27.439  28.202   8.288  0.00  0.00    +0.038 A 
ATOM     11  C   UNL     1      28.130  28.364   7.061  0.00  0.00    +0.047 A 
ATOM     12  C   UNL     1      27.599  29.211   6.004  0.00  0.00    +0.035 A 
ATOM     32  C   UNL     1      26.361  29.880   6.232  0.00  0.00    +0.024 A 
ATOM     33  C   UNL     1      25.644  29.725   7.474  0.00  0.00    +0.007 A 
ATOM     34  C   UNL     1      26.162  28.889   8.519  0.00  0.00    -0.029 A 
ATOM     35  C   UNL     1      25.348  28.755   9.826  0.00  0.00    +0.045 C 
ENDROOT
BRANCH  10   9
ATOM      4  C   UNL     1      30.041  27.511  12.261  0.00  0.00    +0.077 A 
ATOM      5  C   UNL     1      30.341  28.909  12.379  0.00  0.00    +0.048 A 
ATOM      6  C   UNL     1      29.812  29.771  11.393  0.00  0.00    +0.116 A 
ATOM      7  N   UNL     1      29.042  29.263  10.370  0.00  0.00    -0.223 NA
ATOM      8  C   UNL     1      28.773  27.909  10.284  0.00  0.00    +0.220 A 
ATOM      9  N   UNL     1      27.995  27.377   9.268  0.00  0.00    -0.283 N 
ATOM     36  H   UNL     1      27.826  26.371   9.236  0.00  0.00    +0.155 HD
ATOM     37  N   UNL     1      29.268  27.064  11.213  0.00  0.00    -0.214 NA
BRANCH   4   3
ATOM      1  C   UNL     1      31.090  24.098  13.860  0.00  0.00    +0.020 A 
ATOM      2  C   UNL     1      30.616  25.059  12.891  0.00  0.00    +0.013 A 
ATOM      3  C   UNL     1      30.525  26.474  13.227  0.00  0.00    +0.019 A 
ATOM     38  C   UNL     1      30.926  26.888  14.563  0.00  0.00    +0.120 A 
ATOM     39  N   UNL     1      31.378  25.940  15.477  0.00  0.00    -0.263 NA
ATOM     40  C   UNL     1      31.468  24.575  15.165  0.00  0.00    +0.111 A 
ENDBRANCH   4   3
ENDBRANCH  10   9
BRANCH  12  13
ATOM     13  N   UNL     1      28.253  29.408   4.734  0.00  0.00    -0.281 N 
ATOM     14  C   UNL     1      27.967  28.796   3.525  0.00  0.00    +0.248 C 
ATOM     30  O   UNL     1      27.239  27.823   3.398  0.00  0.00    -0.270 OA
ATOM     31  H   UNL     1      29.020  30.081   4.725  0.00  0.00    +0.155 HD
BRANCH  14  15
ATOM     15  C   UNL     1      28.590  29.334   2.278  0.00  0.00    +0.037 A 
ATOM     16  C   UNL     1      28.959  28.450   1.170  0.00  0.00    +0.013 A 
ATOM     17  C   UNL     1      29.575  28.993  -0.015  0.00  0.00    +0.005 A 
ATOM     18  C   UNL     1      29.823  30.430  -0.099  0.00  0.00    -0.033 A 
ATOM     28  C   UNL     1      29.442  31.285   1.013  0.00  0.00    +0.005 A 
ATOM     29  C   UNL     1      28.840  30.757   2.176  0.00  0.00    +0.013 A 
BRANCH  18  19
ATOM     19  C   UNL     1      30.494  31.093  -1.316  0.00  0.00    +0.119 C 
BRANCH  19  20
ATOM     20  N   UNL     1      29.630  31.387  -2.498  0.00  0.00    -0.302 NA
ATOM     21  C   UNL     1      28.166  31.018  -2.245  0.00  0.00    +0.066 C 
ATOM     22  C   UNL     1      27.272  31.352  -3.483  0.00  0.00    -0.064 C 
ATOM     23  N   UNL     1      27.811  30.617  -4.711  0.00  0.00    +0.379 N 
ATOM     24  C   UNL     1      26.939  30.883  -5.864  0.00  0.00    -0.096 C 
ATOM     25  H   UNL     1      27.766  29.524  -4.498  0.00  0.00    -0.082 HD
ATOM     26  C   UNL     1      29.268  30.976  -4.969  0.00  0.00    -0.064 C 
ATOM     27  C   UNL     1      30.142  30.668  -3.721  0.00  0.00    +0.066 C 
ENDBRANCH  19  20
ENDBRANCH  18  19
ENDBRANCH  14  15
ENDBRANCH  12  13
TORSDOF 6
ENDMDL
MODEL 3
REMARK VINA RESULT:     -11.2      1.946     13.175
REMARK  Name = C:\Users\Docking\Desktop\test protocol\1iep_ligandH.pdb
REMARK  8 active torsions:
REMARK  status: ('A' for Active; 'I' for Inactive)
REMARK    1  A    between atoms: _5  and  _11
REMARK    2  A    between atoms: _19  and  _21
REMARK    3  A    between atoms: _22  and  _66
REMARK    4  A    between atoms: _27  and  _30
REMARK    5  A    between atoms: _32  and  _33
REMARK    6  A    between atoms: _38  and  _43
REMARK    7  A    between atoms: _43  and  _46
REMARK    8  A    between atoms: _53  and  _55
REMARK                            x       y       z     vdW  Elec       q    Type
REMARK                         _______ _______ _______ _____ _____    ______ ____
ROOT
ATOM     10  C   UNL     1      27.372  28.180   8.247  0.00  0.00    +0.038 A 
ATOM     11  C   UNL     1      28.087  28.337   7.033  0.00  0.00    +0.047 A 
ATOM     12  C   UNL     1      27.575  29.177   5.961  0.00  0.00    +0.035 A 
ATOM     32  C   UNL     1      26.332  29.845   6.162  0.00  0.00    +0.024 A 
ATOM     33  C   UNL     1      25.591  29.695   7.390  0.00  0.00    +0.007 A 
ATOM     34  C   UNL     1      26.090  28.865   8.449  0.00  0.00    -0.029 A 
ATOM     35  C   UNL     1      25.250  28.736   9.741  0.00  0.00    +0.045 C 
ENDROOT
BRANCH  10   9
ATOM      4  C   UNL     1      29.980  27.503  12.220  0.00  0.00    +0.077 A 
ATOM      5  C   UNL     1      30.320  28.894  12.304  0.00  0.00    +0.048 A 
ATOM      6  C   UNL     1      29.810  29.749  11.302  0.00  0.00    +0.116 A 
ATOM      7  N   UNL     1      29.019  29.240  10.295  0.00  0.00    -0.223 NA
ATOM      8  C   UNL     1      28.711  27.893  10.242  0.00  0.00    +0.220 A 
ATOM      9  N   UNL     1      27.911  27.361   9.242  0.00  0.00    -0.283 N 
ATOM     36  H   UNL     1      27.713  26.361   9.234  0.00  0.00    +0.155 HD
ATOM     37  N   UNL     1      29.187  27.055  11.186  0.00  0.00    -0.214 NA
BRANCH   4   3
ATOM      1  C   UNL     1      31.100  24.124  13.842  0.00  0.00    +0.020 A 
ATOM      2  C   UNL     1      30.655  25.077  12.851  0.00  0.00    +0.013 A 
ATOM      3  C   UNL     1      30.440  26.475  13.206  0.00  0.00    +0.019 A 
ATOM     38  C   UNL     1      30.687  26.878  14.582  0.00  0.00    +0.120 A 
ATOM     39  N   UNL     1      31.114  25.938  15.514  0.00  0.00    -0.263 NA
ATOM     40  C   UNL     1      31.323  24.590  15.185  0.00  0.00    +0.111 A 
ENDBRANCH   4   3
ENDBRANCH  10   9
BRANCH  12  13
ATOM     13  N   UNL     1      28.253  29.369   4.703  0.00  0.00    -0.281 N 
ATOM     14  C   UNL     1      27.928  28.829   3.470  0.00  0.00    +0.248 C 
ATOM     30  O   UNL     1      27.125  27.924   3.302  0.00  0.00    -0.270 OA
ATOM     31  H   UNL     1      29.072  29.977   4.725  0.00  0.00    +0.155 HD
BRANCH  14  15
ATOM     15  C   UNL     1      28.603  29.362   2.248  0.00  0.00    +0.037 A 
ATOM     16  C   UNL     1      28.967  28.481   1.135  0.00  0.00    +0.013 A 
ATOM     17  C   UNL     1      29.633  29.019  -0.025  0.00  0.00    +0.005 A 
ATOM     18  C   UNL     1      29.938  30.446  -0.079  0.00  0.00    -0.033 A 
ATOM     28  C   UNL     1      29.561  31.299   1.037  0.00  0.00    +0.005 A 
ATOM     29  C   UNL     1      28.909  30.775   2.176  0.00  0.00    +0.013 A 
BRANCH  18  19
ATOM     19  C   UNL     1      30.665  31.102  -1.267  0.00  0.00    +0.119 C 
BRANCH  19  20
ATOM     20  N   UNL     1      30.483  30.476  -2.611  0.00  0.00    -0.302 NA
ATOM     21  C   UNL     1      31.792  29.903  -3.160  0.00  0.00    +0.066 C 
ATOM     22  C   UNL     1      31.579  29.231  -4.556  0.00  0.00    -0.064 C 
ATOM     23  N   UNL     1      30.986  30.255  -5.526  0.00  0.00    +0.379 N 
ATOM     24  C   UNL     1      30.838  29.643  -6.854  0.00  0.00    -0.096 C 
ATOM     25  H   UNL     1      31.715  31.093  -5.618  0.00  0.00    -0.082 HD
ATOM     26  C   UNL     1      29.685  30.831  -4.986  0.00  0.00    -0.064 C 
ATOM     27  C   UNL     1      29.902  31.470  -3.586  0.00  0.00    +0.066 C 
ENDBRANCH  19  20
ENDBRANCH  18  19
ENDBRANCH  14  15
ENDBRANCH  12  13
TORSDOF 6
ENDMDL
MODEL 4
REMARK VINA RESULT:     -11.1      2.046     12.658
REMARK  Name = C:\Users\Docking\Desktop\test protocol\1iep_ligandH.pdb
REMARK  8 active torsions:
REMARK  status: ('A' for Active; 'I' for Inactive)
REMARK    1  A    between atoms: _5  and  _11
REMARK    2  A    between atoms: _19  and  _21
REMARK    3  A    between atoms: _22  and  _66
REMARK    4  A    between atoms: _27  and  _30
REMARK    5  A    between atoms: _32  and  _33
REMARK    6  A    between atoms: _38  and  _43
REMARK    7  A    between atoms: _43  and  _46
REMARK    8  A    between atoms: _53  and  _55
REMARK                            x       y       z     vdW  Elec       q    Type
REMARK                         _______ _______ _______ _____ _____    ______ ____
ROOT
ATOM     10  C   UNL     1      27.377  28.123   8.569  0.00  0.00    +0.038 A 
ATOM     11  C   UNL     1      28.074  28.253   7.340  0.00  0.00    +0.047 A 
ATOM     12  C   UNL     1      27.562  29.095   6.270  0.00  0.00    +0.035 A 
ATOM     32  C   UNL     1      26.337  29.792   6.486  0.00  0.00    +0.024 A 
ATOM     33  C   UNL     1      25.615  29.670   7.728  0.00  0.00    +0.007 A 
ATOM     34  C   UNL     1      26.114  28.839   8.786  0.00  0.00    -0.029 A 
ATOM     35  C   UNL     1      25.295  28.740  10.094  0.00  0.00    +0.045 C 
ENDROOT
BRANCH  10   9
ATOM      4  C   UNL     1      30.093  27.412  12.462  0.00  0.00    +0.077 A 
ATOM      5  C   UNL     1      30.496  28.789  12.504  0.00  0.00    +0.048 A 
ATOM      6  C   UNL     1      29.988  29.645  11.502  0.00  0.00    +0.116 A 
ATOM      7  N   UNL     1      29.140  29.151  10.534  0.00  0.00    -0.223 NA
ATOM      8  C   UNL     1      28.772  27.818  10.521  0.00  0.00    +0.220 A 
ATOM      9  N   UNL     1      27.915  27.302   9.562  0.00  0.00    -0.283 N 
ATOM     36  H   UNL     1      27.673  26.311   9.583  0.00  0.00    +0.155 HD
ATOM     37  N   UNL     1      29.245  26.980  11.467  0.00  0.00    -0.214 NA
BRANCH   4   3
ATOM      1  C   UNL     1      31.369  24.082  14.069  0.00  0.00    +0.020 A 
ATOM      2  C   UNL     1      30.942  25.036  13.071  0.00  0.00    +0.013 A 
ATOM      3  C   UNL     1      30.543  26.385  13.453  0.00  0.00    +0.019 A 
ATOM     38  C   UNL     1      30.589  26.739  14.864  0.00  0.00    +0.120 A 
ATOM     39  N   UNL     1      31.003  25.799  15.802  0.00  0.00    -0.263 NA
ATOM     40  C   UNL     1      31.388  24.498  15.446  0.00  0.00    +0.111 A 
ENDBRANCH   4   3
ENDBRANCH  10   9
BRANCH  12  13
ATOM     13  N   UNL     1      28.221  29.260   4.999  0.00  0.00    -0.281 N 
ATOM     14  C   UNL     1      27.818  28.783   3.762  0.00  0.00    +0.248 C 
ATOM     30  O   UNL     1      26.934  27.956   3.595  0.00  0.00    -0.270 OA
ATOM     31  H   UNL     1      29.091  29.792   5.012  0.00  0.00    +0.155 HD
BRANCH  14  15
ATOM     15  C   UNL     1      28.506  29.287   2.535  0.00  0.00    +0.037 A 
ATOM     16  C   UNL     1      28.902  30.692   2.408  0.00  0.00    +0.013 A 
ATOM     17  C   UNL     1      29.549  31.156   1.207  0.00  0.00    +0.005 A 
ATOM     18  C   UNL     1      29.805  30.212   0.121  0.00  0.00    -0.033 A 
ATOM     28  C   UNL     1      29.407  28.823   0.275  0.00  0.00    +0.005 A 
ATOM     29  C   UNL     1      28.772  28.365   1.451  0.00  0.00    +0.013 A 
BRANCH  18  19
ATOM     19  C   UNL     1      30.471  30.624  -1.205  0.00  0.00    +0.119 C 
BRANCH  19  20
ATOM     20  N   UNL     1      31.638  29.813  -1.665  0.00  0.00    -0.302 NA
ATOM     21  C   UNL     1      32.936  30.226  -0.967  0.00  0.00    +0.066 C 
ATOM     22  C   UNL     1      34.142  29.352  -1.443  0.00  0.00    -0.064 C 
ATOM     23  N   UNL     1      34.283  29.468  -2.962  0.00  0.00    +0.379 N 
ATOM     24  C   UNL     1      35.451  28.693  -3.406  0.00  0.00    -0.096 C 
ATOM     25  H   UNL     1      34.476  30.539  -3.203  0.00  0.00    -0.082 HD
ATOM     26  C   UNL     1      32.995  29.061  -3.664  0.00  0.00    -0.064 C 
ATOM     27  C   UNL     1      31.798  29.916  -3.162  0.00  0.00    +0.066 C 
ENDBRANCH  19  20
ENDBRANCH  18  19
ENDBRANCH  14  15
ENDBRANCH  12  13
TORSDOF 6
ENDMDL
MODEL 5
REMARK VINA RESULT:     -10.9      5.432     15.053
REMARK  Name = C:\Users\Docking\Desktop\test protocol\1iep_ligandH.pdb
REMARK  8 active torsions:
REMARK  status: ('A' for Active; 'I' for Inactive)
REMARK    1  A    between atoms: _5  and  _11
REMARK    2  A    between atoms: _19  and  _21
REMARK    3  A    between atoms: _22  and  _66
REMARK    4  A    between atoms: _27  and  _30
REMARK    5  A    between atoms: _32  and  _33
REMARK    6  A    between atoms: _38  and  _43
REMARK    7  A    between atoms: _43  and  _46
REMARK    8  A    between atoms: _53  and  _55
REMARK                            x       y       z     vdW  Elec       q    Type
REMARK                         _______ _______ _______ _____ _____    ______ ____
ROOT
ATOM     10  C   UNL     1      35.529  31.269  16.648  0.00  0.00    +0.038 A 
ATOM     11  C   UNL     1      34.655  30.692  15.692  0.00  0.00    +0.047 A 
ATOM     12  C   UNL     1      33.833  31.522  14.825  0.00  0.00    +0.035 A 
ATOM     32  C   UNL     1      33.928  32.938  14.958  0.00  0.00    +0.024 A 
ATOM     33  C   UNL     1      34.810  33.542  15.925  0.00  0.00    +0.007 A 
ATOM     34  C   UNL     1      35.622  32.728  16.784  0.00  0.00    -0.029 A 
ATOM     35  C   UNL     1      36.545  33.430  17.808  0.00  0.00    +0.045 C 
ENDROOT
BRANCH  10   9
ATOM      4  C   UNL     1      36.281  27.093  18.890  0.00  0.00    +0.077 A 
ATOM      5  C   UNL     1      35.029  26.557  18.439  0.00  0.00    +0.048 A 
ATOM      6  C   UNL     1      34.217  27.392  17.638  0.00  0.00    +0.116 A 
ATOM      7  N   UNL     1      34.637  28.665  17.318  0.00  0.00    -0.223 NA
ATOM      8  C   UNL     1      35.850  29.151  17.771  0.00  0.00    +0.220 A 
ATOM      9  N   UNL     1      36.296  30.425  17.454  0.00  0.00    -0.283 N 
ATOM     36  H   UNL     1      37.193  30.749  17.814  0.00  0.00    +0.155 HD
ATOM     37  N   UNL     1      36.643  28.374  18.538  0.00  0.00    -0.214 NA
BRANCH   4   3
ATOM      1  C   UNL     1      37.833  24.502  21.376  0.00  0.00    +0.020 A 
ATOM      2  C   UNL     1      36.857  25.203  20.573  0.00  0.00    +0.013 A 
ATOM      3  C   UNL     1      37.251  26.332  19.740  0.00  0.00    +0.019 A 
ATOM     38  C   UNL     1      38.650  26.729  19.742  0.00  0.00    +0.120 A 
ATOM     39  N   UNL     1      39.567  26.037  20.526  0.00  0.00    -0.263 NA
ATOM     40  C   UNL     1      39.200  24.949  21.333  0.00  0.00    +0.111 A 
ENDBRANCH   4   3
ENDBRANCH  10   9
BRANCH  12  13
ATOM     13  N   UNL     1      32.922  30.992  13.842  0.00  0.00    -0.281 N 
ATOM     14  C   UNL     1      32.756  29.671  13.459  0.00  0.00    +0.248 C 
ATOM     30  O   UNL     1      33.520  28.765  13.754  0.00  0.00    -0.270 OA
ATOM     31  H   UNL     1      32.327  31.674  13.370  0.00  0.00    +0.155 HD
BRANCH  14  15
ATOM     15  C   UNL     1      31.577  29.307  12.615  0.00  0.00    +0.037 A 
ATOM     16  C   UNL     1      31.514  29.677  11.199  0.00  0.00    +0.013 A 
ATOM     17  C   UNL     1      30.358  29.328  10.411  0.00  0.00    +0.005 A 
ATOM     18  C   UNL     1      29.256  28.602  11.038  0.00  0.00    -0.033 A 
ATOM     28  C   UNL     1      29.348  28.243  12.444  0.00  0.00    +0.005 A 
ATOM     29  C   UNL     1      30.479  28.584  13.219  0.00  0.00    +0.013 A 
BRANCH  18  19
ATOM     19  C   UNL     1      27.975  28.208  10.280  0.00  0.00    +0.119 C 
BRANCH  19  20
ATOM     20  N   UNL     1      27.849  28.668   8.865  0.00  0.00    -0.302 NA
ATOM     21  C   UNL     1      26.386  28.832   8.443  0.00  0.00    +0.066 C 
ATOM     22  C   UNL     1      26.273  29.336   6.967  0.00  0.00    -0.064 C 
ATOM     23  N   UNL     1      26.998  28.359   6.040  0.00  0.00    +0.379 N 
ATOM     24  C   UNL     1      26.844  28.799   4.646  0.00  0.00    -0.096 C 
ATOM     25  H   UNL     1      26.499  27.367   6.139  0.00  0.00    -0.082 HD
ATOM     26  C   UNL     1      28.453  28.187   6.455  0.00  0.00    -0.064 C 
ATOM     27  C   UNL     1      28.554  27.715   7.932  0.00  0.00    +0.066 C 
ENDBRANCH  19  20
ENDBRANCH  18  19
ENDBRANCH  14  15
ENDBRANCH  12  13
TORSDOF 6
ENDMDL
