MODEL 1
REMARK VINA RESULT:     -12.0      0.000      0.000
REMARK  Name = C:\Users\Docking\Desktop\test protocol\1iep_ligandH.pdb
REMARK  8 active torsions:
REMARK  status: ('A' for Active; 'I' for Inactive)
REMARK    1  A    between atoms: _5  and  _11
REMARK    2  A    between atoms: _19  and  _21
REMARK    3  A    between atoms: _22  and  _66
REMARK    4  A    between atoms: _27  and  _30
REMARK    5  A    between atoms: _32  and  _33
REMARK    6  A    between atoms: _38  and  _43
REMARK    7  A    between atoms: _43  and  _46
REMARK    8  A    between atoms: _53  and  _55
REMARK                            x       y       z     vdW  Elec       q    Type
REMARK                         _______ _______ _______ _____ _____    ______ ____
ROOT
ATOM     10  C   UNL     1       1.364  -4.031  -3.575  0.00  0.00    +0.038 A 
ATOM     11  C   UNL     1       0.509  -3.863  -4.694  0.00  0.00    +0.047 A 
ATOM     12  C   UNL     1       1.047  -3.588  -6.017  0.00  0.00    +0.035 A 
ATOM     32  C   UNL     1       2.462  -3.492  -6.165  0.00  0.00    +0.024 A 
ATOM     33  C   UNL     1       3.345  -3.658  -5.037  0.00  0.00    +0.007 A 
ATOM     34  C   UNL     1       2.820  -3.928  -3.729  0.00  0.00    -0.029 A 
ATOM     35  C   UNL     1       3.814  -4.091  -2.556  0.00  0.00    +0.045 C 
ENDROOT
BRANCH  10   9
ATOM      4  C   UNL     1      -0.936  -2.647   0.404  0.00  0.00    +0.077 A 
ATOM      5  C   UNL     1      -0.982  -1.279  -0.026  0.00  0.00    +0.048 A 
ATOM      6  C   UNL     1      -0.395  -0.973  -1.275  0.00  0.00    +0.116 A 
ATOM      7  N   UNL     1       0.190  -1.967  -2.028  0.00  0.00    -0.223 NA
ATOM      8  C   UNL     1       0.218  -3.276  -1.583  0.00  0.00    +0.220 A 
ATOM      9  N   UNL     1       0.793  -4.294  -2.327  0.00  0.00    -0.283 N 
ATOM     36  H   UNL     1       0.800  -5.245  -1.960  0.00  0.00    +0.155 HD
ATOM     37  N   UNL     1      -0.334  -3.595  -0.393  0.00  0.00    -0.214 NA
BRANCH   4   3
ATOM      1  C   UNL     1      -2.725  -4.836   3.108  0.00  0.00    +0.020 A 
ATOM      2  C   UNL     1      -2.183  -4.417   1.836  0.00  0.00    +0.013 A 
ATOM      3  C   UNL     1      -1.516  -3.129   1.698  0.00  0.00    +0.019 A 
ATOM     38  C   UNL     1      -1.412  -2.282   2.876  0.00  0.00    +0.120 A 
ATOM     39  N   UNL     1      -1.944  -2.710   4.088  0.00  0.00    -0.263 NA
ATOM     40  C   UNL     1      -2.590  -3.947   4.232  0.00  0.00    +0.111 A 
ENDBRANCH   4   3
ENDBRANCH  10   9
BRANCH  12  13
ATOM     13  N   UNL     1       0.228  -3.400  -7.189  0.00  0.00    -0.281 N 
ATOM     14  C   UNL     1       0.449  -2.541  -8.253  0.00  0.00    +0.248 C 
ATOM     30  O   UNL     1       1.278  -1.644  -8.257  0.00  0.00    -0.270 OA
ATOM     31  H   UNL     1      -0.616  -3.970  -7.240  0.00  0.00    +0.155 HD
BRANCH  14  15
ATOM     15  C   UNL     1      -0.383  -2.691  -9.486  0.00  0.00    +0.037 A 
ATOM     16  C   UNL     1       0.223  -2.653 -10.820  0.00  0.00    +0.013 A 
ATOM     17  C   UNL     1      -0.604  -2.783 -11.993  0.00  0.00    +0.005 A 
ATOM     18  C   UNL     1      -2.047  -2.954 -11.838  0.00  0.00    -0.033 A 
ATOM     28  C   UNL     1      -2.620  -2.994 -10.503  0.00  0.00    +0.005 A 
ATOM     29  C   UNL     1      -1.813  -2.866  -9.350  0.00  0.00    +0.013 A 
BRANCH  18  19
ATOM     19  C   UNL     1      -3.008  -3.080 -13.034  0.00  0.00    +0.119 C 
BRANCH  19  20
ATOM     20  N   UNL     1      -3.055  -4.396 -13.738  0.00  0.00    -0.302 NA
ATOM     21  C   UNL     1      -2.642  -5.552 -12.823  0.00  0.00    +0.066 C 
ATOM     22  C   UNL     1      -2.719  -6.924 -13.569  0.00  0.00    -0.064 C 
ATOM     23  N   UNL     1      -1.831  -6.875 -14.814  0.00  0.00    +0.379 N 
ATOM     24  C   UNL     1      -1.856  -8.183 -15.485  0.00  0.00    -0.096 C 
ATOM     25  H   UNL     1      -0.786  -6.688 -14.476  0.00  0.00    -0.082 HD
ATOM     26  C   UNL     1      -2.234  -5.727 -15.728  0.00  0.00    -0.064 C 
ATOM     27  C   UNL     1      -2.183  -4.372 -14.969  0.00  0.00    +0.066 C 
ENDBRANCH  19  20
ENDBRANCH  18  19
ENDBRANCH  14  15
ENDBRANCH  12  13
TORSDOF 6
ENDMDL
MODEL 2
REMARK VINA RESULT:     -11.0      2.213     12.387
REMARK  Name = C:\Users\Docking\Desktop\test protocol\1iep_ligandH.pdb
REMARK  8 active torsions:
REMARK  status: ('A' for Active; 'I' for Inactive)
REMARK    1  A    between atoms: _5  and  _11
REMARK    2  A    between atoms: _19  and  _21
REMARK    3  A    between atoms: _22  and  _66
REMARK    4  A    between atoms: _27  and  _30
REMARK    5  A    between atoms: _32  and  _33
REMARK    6  A    between atoms: _38  and  _43
REMARK    7  A    between atoms: _43  and  _46
REMARK    8  A    between atoms: _53  and  _55
REMARK                            x       y       z     vdW  Elec       q    Type
REMARK                         _______ _______ _______ _____ _____    ______ ____
ROOT
ATOM     10  C   UNL     1       1.683  -3.892  -8.506  0.00  0.00    +0.038 A 
ATOM     11  C   UNL     1       1.006  -3.868  -7.259  0.00  0.00    +0.047 A 
ATOM     12  C   UNL     1       1.427  -2.973  -6.192  0.00  0.00    +0.035 A 
ATOM     32  C   UNL     1       2.539  -2.114  -6.430  0.00  0.00    +0.024 A 
ATOM     33  C   UNL     1       3.239  -2.126  -7.690  0.00  0.00    +0.007 A 
ATOM     34  C   UNL     1       2.830  -3.008  -8.746  0.00  0.00    -0.029 A 
ATOM     35  C   UNL     1       3.621  -2.984 -10.074  0.00  0.00    +0.045 C 
ENDROOT
BRANCH  10   9
ATOM      4  C   UNL     1      -1.389  -5.159 -11.970  0.00  0.00    +0.077 A 
ATOM      5  C   UNL     1      -2.187  -3.983 -11.773  0.00  0.00    +0.048 A 
ATOM      6  C   UNL     1      -1.777  -3.081 -10.766  0.00  0.00    +0.116 A 
ATOM      7  N   UNL     1      -0.651  -3.345 -10.017  0.00  0.00    -0.223 NA
ATOM      8  C   UNL     1       0.096  -4.489 -10.231  0.00  0.00    +0.220 A 
ATOM      9  N   UNL     1       1.236  -4.771  -9.495  0.00  0.00    -0.283 N 
ATOM     36  H   UNL     1       1.755  -5.629  -9.678  0.00  0.00    +0.155 HD
ATOM     37  N   UNL     1      -0.276  -5.367 -11.186  0.00  0.00    -0.214 NA
BRANCH   4   3
ATOM      1  C   UNL     1      -2.209  -8.574 -13.691  0.00  0.00    +0.020 A 
ATOM      2  C   UNL     1      -1.921  -7.604 -12.660  0.00  0.00    +0.013 A 
ATOM      3  C   UNL     1      -1.691  -6.205 -12.997  0.00  0.00    +0.019 A 
ATOM     38  C   UNL     1      -1.762  -5.817 -14.398  0.00  0.00    +0.120 A 
ATOM     39  N   UNL     1      -2.040  -6.774 -15.369  0.00  0.00    -0.263 NA
ATOM     40  C   UNL     1      -2.261  -8.124 -15.057  0.00  0.00    +0.111 A 
ENDBRANCH   4   3
ENDBRANCH  10   9
BRANCH  12  13
ATOM     13  N   UNL     1       0.784  -2.910  -4.903  0.00  0.00    -0.281 N 
ATOM     14  C   UNL     1       1.295  -3.300  -3.676  0.00  0.00    +0.248 C 
ATOM     30  O   UNL     1       2.311  -3.964  -3.530  0.00  0.00    -0.270 OA
ATOM     31  H   UNL     1      -0.164  -2.532  -4.894  0.00  0.00    +0.155 HD
BRANCH  14  15
ATOM     15  C   UNL     1       0.566  -2.908  -2.432  0.00  0.00    +0.037 A 
ATOM     16  C   UNL     1       0.054  -1.547  -2.248  0.00  0.00    +0.013 A 
ATOM     17  C   UNL     1      -0.631  -1.190  -1.031  0.00  0.00    +0.005 A 
ATOM     18  C   UNL     1      -0.810  -2.198   0.012  0.00  0.00    -0.033 A 
ATOM     28  C   UNL     1      -0.297  -3.542  -0.199  0.00  0.00    +0.005 A 
ATOM     29  C   UNL     1       0.376  -3.895  -1.390  0.00  0.00    +0.013 A 
BRANCH  18  19
ATOM     19  C   UNL     1      -1.510  -1.901   1.351  0.00  0.00    +0.119 C 
BRANCH  19  20
ATOM     20  N   UNL     1      -2.739  -2.687   1.669  0.00  0.00    -0.302 NA
ATOM     21  C   UNL     1      -4.016  -1.943   1.268  0.00  0.00    +0.066 C 
ATOM     22  C   UNL     1      -5.292  -2.790   1.588  0.00  0.00    -0.064 C 
ATOM     23  N   UNL     1      -5.311  -3.135   3.078  0.00  0.00    +0.379 N 
ATOM     24  C   UNL     1      -6.538  -3.881   3.393  0.00  0.00    -0.096 C 
ATOM     25  H   UNL     1      -5.343  -2.176   3.646  0.00  0.00    -0.082 HD
ATOM     26  C   UNL     1      -4.043  -3.871   3.486  0.00  0.00    -0.064 C 
ATOM     27  C   UNL     1      -2.781  -3.035   3.137  0.00  0.00    +0.066 C 
ENDBRANCH  19  20
ENDBRANCH  18  19
ENDBRANCH  14  15
ENDBRANCH  12  13
TORSDOF 6
ENDMDL
MODEL 3
REMARK VINA RESULT:     -11.0      2.141     12.948
REMARK  Name = C:\Users\Docking\Desktop\test protocol\1iep_ligandH.pdb
REMARK  8 active torsions:
REMARK  status: ('A' for Active; 'I' for Inactive)
REMARK    1  A    between atoms: _5  and  _11
REMARK    2  A    between atoms: _19  and  _21
REMARK    3  A    between atoms: _22  and  _66
REMARK    4  A    between atoms: _27  and  _30
REMARK    5  A    between atoms: _32  and  _33
REMARK    6  A    between atoms: _38  and  _43
REMARK    7  A    between atoms: _43  and  _46
REMARK    8  A    between atoms: _53  and  _55
REMARK                            x       y       z     vdW  Elec       q    Type
REMARK                         _______ _______ _______ _____ _____    ______ ____
ROOT
ATOM     10  C   UNL     1       1.659  -3.905  -8.491  0.00  0.00    +0.038 A 
ATOM     11  C   UNL     1       0.999  -3.882  -7.236  0.00  0.00    +0.047 A 
ATOM     12  C   UNL     1       1.421  -2.974  -6.181  0.00  0.00    +0.035 A 
ATOM     32  C   UNL     1       2.516  -2.100  -6.440  0.00  0.00    +0.024 A 
ATOM     33  C   UNL     1       3.199  -2.110  -7.710  0.00  0.00    +0.007 A 
ATOM     34  C   UNL     1       2.789  -3.006  -8.753  0.00  0.00    -0.029 A 
ATOM     35  C   UNL     1       3.562  -2.978 -10.093  0.00  0.00    +0.045 C 
ENDROOT
BRANCH  10   9
ATOM      4  C   UNL     1      -1.364  -5.180 -11.995  0.00  0.00    +0.077 A 
ATOM      5  C   UNL     1      -2.135  -3.979 -11.848  0.00  0.00    +0.048 A 
ATOM      6  C   UNL     1      -1.724  -3.063 -10.854  0.00  0.00    +0.116 A 
ATOM      7  N   UNL     1      -0.623  -3.336 -10.072  0.00  0.00    -0.223 NA
ATOM      8  C   UNL     1       0.097  -4.505 -10.239  0.00  0.00    +0.220 A 
ATOM      9  N   UNL     1       1.212  -4.797  -9.469  0.00  0.00    -0.283 N 
ATOM     36  H   UNL     1       1.712  -5.673  -9.618  0.00  0.00    +0.155 HD
ATOM     37  N   UNL     1      -0.275  -5.397 -11.180  0.00  0.00    -0.214 NA
BRANCH   4   3
ATOM      1  C   UNL     1      -2.226  -8.618 -13.649  0.00  0.00    +0.020 A 
ATOM      2  C   UNL     1      -1.936  -7.630 -12.636  0.00  0.00    +0.013 A 
ATOM      3  C   UNL     1      -1.670  -6.244 -13.003  0.00  0.00    +0.019 A 
ATOM     38  C   UNL     1      -1.707  -5.889 -14.414  0.00  0.00    +0.120 A 
ATOM     39  N   UNL     1      -1.988  -6.863 -15.366  0.00  0.00    -0.263 NA
ATOM     40  C   UNL     1      -2.244  -8.200 -15.026  0.00  0.00    +0.111 A 
ENDBRANCH   4   3
ENDBRANCH  10   9
BRANCH  12  13
ATOM     13  N   UNL     1       0.794  -2.912  -4.883  0.00  0.00    -0.281 N 
ATOM     14  C   UNL     1       1.321  -3.306  -3.664  0.00  0.00    +0.248 C 
ATOM     30  O   UNL     1       2.336  -3.974  -3.533  0.00  0.00    -0.270 OA
ATOM     31  H   UNL     1      -0.152  -2.531  -4.861  0.00  0.00    +0.155 HD
BRANCH  14  15
ATOM     15  C   UNL     1       0.608  -2.914  -2.410  0.00  0.00    +0.037 A 
ATOM     16  C   UNL     1       0.375  -3.882  -1.335  0.00  0.00    +0.013 A 
ATOM     17  C   UNL     1      -0.330  -3.482  -0.142  0.00  0.00    +0.005 A 
ATOM     18  C   UNL     1      -0.805  -2.106  -0.019  0.00  0.00    -0.033 A 
ATOM     28  C   UNL     1      -0.555  -1.165  -1.098  0.00  0.00    +0.005 A 
ATOM     29  C   UNL     1       0.135  -1.554  -2.269  0.00  0.00    +0.013 A 
BRANCH  18  19
ATOM     19  C   UNL     1      -1.584  -1.597   1.209  0.00  0.00    +0.119 C 
BRANCH  19  20
ATOM     20  N   UNL     1      -1.007  -1.890   2.555  0.00  0.00    -0.302 NA
ATOM     21  C   UNL     1      -2.025  -1.670   3.677  0.00  0.00    +0.066 C 
ATOM     22  C   UNL     1      -1.412  -2.003   5.076  0.00  0.00    -0.064 C 
ATOM     23  N   UNL     1      -0.165  -1.146   5.300  0.00  0.00    +0.379 N 
ATOM     24  C   UNL     1       0.381  -1.414   6.638  0.00  0.00    -0.096 C 
ATOM     25  H   UNL     1      -0.481  -0.077   5.271  0.00  0.00    -0.082 HD
ATOM     26  C   UNL     1       0.852  -1.356   4.187  0.00  0.00    -0.064 C 
ATOM     27  C   UNL     1       0.223  -1.051   2.799  0.00  0.00    +0.066 C 
ENDBRANCH  19  20
ENDBRANCH  18  19
ENDBRANCH  14  15
ENDBRANCH  12  13
TORSDOF 6
ENDMDL
MODEL 4
REMARK VINA RESULT:     -10.7      2.683     12.522
REMARK  Name = C:\Users\Docking\Desktop\test protocol\1iep_ligandH.pdb
REMARK  8 active torsions:
REMARK  status: ('A' for Active; 'I' for Inactive)
REMARK    1  A    between atoms: _5  and  _11
REMARK    2  A    between atoms: _19  and  _21
REMARK    3  A    between atoms: _22  and  _66
REMARK    4  A    between atoms: _27  and  _30
REMARK    5  A    between atoms: _32  and  _33
REMARK    6  A    between atoms: _38  and  _43
REMARK    7  A    between atoms: _43  and  _46
REMARK    8  A    between atoms: _53  and  _55
REMARK                            x       y       z     vdW  Elec       q    Type
REMARK                         _______ _______ _______ _____ _____    ______ ____
ROOT
ATOM     10  C   UNL     1       1.728  -3.989  -8.454  0.00  0.00    +0.038 A 
ATOM     11  C   UNL     1       1.043  -3.924  -7.214  0.00  0.00    +0.047 A 
ATOM     12  C   UNL     1       1.485  -3.030  -6.155  0.00  0.00    +0.035 A 
ATOM     32  C   UNL     1       2.628  -2.213  -6.395  0.00  0.00    +0.024 A 
ATOM     33  C   UNL     1       3.338  -2.267  -7.649  0.00  0.00    +0.007 A 
ATOM     34  C   UNL     1       2.908  -3.149  -8.696  0.00  0.00    -0.029 A 
ATOM     35  C   UNL     1       3.710  -3.170 -10.017  0.00  0.00    +0.045 C 
ENDROOT
BRANCH  10   9
ATOM      4  C   UNL     1      -1.312  -5.165 -11.977  0.00  0.00    +0.077 A 
ATOM      5  C   UNL     1      -2.047  -3.941 -11.831  0.00  0.00    +0.048 A 
ATOM      6  C   UNL     1      -1.614  -3.039 -10.833  0.00  0.00    +0.116 A 
ATOM      7  N   UNL     1      -0.526  -3.348 -10.046  0.00  0.00    -0.223 NA
ATOM      8  C   UNL     1       0.159  -4.538 -10.211  0.00  0.00    +0.220 A 
ATOM      9  N   UNL     1       1.260  -4.865  -9.435  0.00  0.00    -0.283 N 
ATOM     36  H   UNL     1       1.734  -5.756  -9.583  0.00  0.00    +0.155 HD
ATOM     37  N   UNL     1      -0.236  -5.416 -11.156  0.00  0.00    -0.214 NA
BRANCH   4   3
ATOM      1  C   UNL     1      -2.204  -8.587 -13.649  0.00  0.00    +0.020 A 
ATOM      2  C   UNL     1      -1.885  -7.610 -12.633  0.00  0.00    +0.013 A 
ATOM      3  C   UNL     1      -1.645  -6.217 -12.988  0.00  0.00    +0.019 A 
ATOM     38  C   UNL     1      -1.737  -5.842 -14.391  0.00  0.00    +0.120 A 
ATOM     39  N   UNL     1      -2.044  -6.805 -15.348  0.00  0.00    -0.263 NA
ATOM     40  C   UNL     1      -2.275  -8.149 -15.018  0.00  0.00    +0.111 A 
ENDBRANCH   4   3
ENDBRANCH  10   9
BRANCH  12  13
ATOM     13  N   UNL     1       0.834  -2.927  -4.873  0.00  0.00    -0.281 N 
ATOM     14  C   UNL     1       1.298  -3.368  -3.644  0.00  0.00    +0.248 C 
ATOM     30  O   UNL     1       2.255  -4.113  -3.494  0.00  0.00    -0.270 OA
ATOM     31  H   UNL     1      -0.081  -2.474  -4.871  0.00  0.00    +0.155 HD
BRANCH  14  15
ATOM     15  C   UNL     1       0.587  -2.929  -2.405  0.00  0.00    +0.037 A 
ATOM     16  C   UNL     1       0.354  -3.857  -1.294  0.00  0.00    +0.013 A 
ATOM     17  C   UNL     1      -0.349  -3.412  -0.117  0.00  0.00    +0.005 A 
ATOM     18  C   UNL     1      -0.823  -2.032  -0.044  0.00  0.00    -0.033 A 
ATOM     28  C   UNL     1      -0.573  -1.132  -1.157  0.00  0.00    +0.005 A 
ATOM     29  C   UNL     1       0.115  -1.564  -2.313  0.00  0.00    +0.013 A 
BRANCH  18  19
ATOM     19  C   UNL     1      -1.600  -1.478   1.165  0.00  0.00    +0.119 C 
BRANCH  19  20
ATOM     20  N   UNL     1      -2.155  -0.097   1.046  0.00  0.00    -0.302 NA
ATOM     21  C   UNL     1      -1.287   0.935   1.773  0.00  0.00    +0.066 C 
ATOM     22  C   UNL     1      -1.869   2.378   1.620  0.00  0.00    -0.064 C 
ATOM     23  N   UNL     1      -3.303   2.405   2.151  0.00  0.00    +0.379 N 
ATOM     24  C   UNL     1      -3.833   3.774   2.062  0.00  0.00    -0.096 C 
ATOM     25  H   UNL     1      -3.269   2.125   3.230  0.00  0.00    -0.082 HD
ATOM     26  C   UNL     1      -4.172   1.381   1.436  0.00  0.00    -0.064 C 
ATOM     27  C   UNL     1      -3.569  -0.045   1.570  0.00  0.00    +0.066 C 
ENDBRANCH  19  20
ENDBRANCH  18  19
ENDBRANCH  14  15
ENDBRANCH  12  13
TORSDOF 6
ENDMDL
MODEL 5
REMARK VINA RESULT:     -10.5      2.059     12.897
REMARK  Name = C:\Users\Docking\Desktop\test protocol\1iep_ligandH.pdb
REMARK  8 active torsions:
REMARK  status: ('A' for Active; 'I' for Inactive)
REMARK    1  A    between atoms: _5  and  _11
REMARK    2  A    between atoms: _19  and  _21
REMARK    3  A    between atoms: _22  and  _66
REMARK    4  A    between atoms: _27  and  _30
REMARK    5  A    between atoms: _32  and  _33
REMARK    6  A    between atoms: _38  and  _43
REMARK    7  A    between atoms: _43  and  _46
REMARK    8  A    between atoms: _53  and  _55
REMARK                            x       y       z     vdW  Elec       q    Type
REMARK                         _______ _______ _______ _____ _____    ______ ____
ROOT
ATOM     10  C   UNL     1       0.074  -4.891 -10.588  0.00  0.00    +0.038 A 
ATOM     11  C   UNL     1       0.159  -4.913  -9.173  0.00  0.00    +0.047 A 
ATOM     12  C   UNL     1       0.339  -3.688  -8.410  0.00  0.00    +0.035 A 
ATOM     32  C   UNL     1       0.424  -2.456  -9.122  0.00  0.00    +0.024 A 
ATOM     33  C   UNL     1       0.340  -2.415 -10.561  0.00  0.00    +0.007 A 
ATOM     34  C   UNL     1       0.166  -3.621 -11.318  0.00  0.00    -0.029 A 
ATOM     35  C   UNL     1       0.089  -3.518 -12.859  0.00  0.00    +0.045 C 
ENDROOT
BRANCH  10   9
ATOM      4  C   UNL     1      -2.404  -7.789 -13.504  0.00  0.00    +0.077 A 
ATOM      5  C   UNL     1      -3.457  -6.827 -13.662  0.00  0.00    +0.048 A 
ATOM      6  C   UNL     1      -3.326  -5.602 -12.970  0.00  0.00    +0.116 A 
ATOM      7  N   UNL     1      -2.220  -5.367 -12.182  0.00  0.00    -0.223 NA
ATOM      8  C   UNL     1      -1.223  -6.316 -12.050  0.00  0.00    +0.220 A 
ATOM      9  N   UNL     1      -0.099  -6.098 -11.270  0.00  0.00    -0.283 N 
ATOM     36  H   UNL     1       0.611  -6.826 -11.192  0.00  0.00    +0.155 HD
ATOM     37  N   UNL     1      -1.326  -7.495 -12.700  0.00  0.00    -0.214 NA
BRANCH   4   3
ATOM      1  C   UNL     1      -2.951 -11.587 -14.261  0.00  0.00    +0.020 A 
ATOM      2  C   UNL     1      -2.985 -10.317 -13.572  0.00  0.00    +0.013 A 
ATOM      3  C   UNL     1      -2.396  -9.128 -14.174  0.00  0.00    +0.019 A 
ATOM     38  C   UNL     1      -1.776  -9.258 -15.484  0.00  0.00    +0.120 A 
ATOM     39  N   UNL     1      -1.757 -10.493 -16.123  0.00  0.00    -0.263 NA
ATOM     40  C   UNL     1      -2.319 -11.646 -15.553  0.00  0.00    +0.111 A 
ENDBRANCH   4   3
ENDBRANCH  10   9
BRANCH  12  13
ATOM     13  N   UNL     1       0.441  -3.649  -6.972  0.00  0.00    -0.281 N 
ATOM     14  C   UNL     1       1.591  -3.629  -6.200  0.00  0.00    +0.248 C 
ATOM     30  O   UNL     1       2.713  -3.857  -6.626  0.00  0.00    -0.270 OA
ATOM     31  H   UNL     1      -0.442  -3.636  -6.462  0.00  0.00    +0.155 HD
BRANCH  14  15
ATOM     15  C   UNL     1       1.476  -3.325  -4.741  0.00  0.00    +0.037 A 
ATOM     16  C   UNL     1       2.581  -3.597  -3.819  0.00  0.00    +0.013 A 
ATOM     17  C   UNL     1       2.438  -3.310  -2.414  0.00  0.00    +0.005 A 
ATOM     18  C   UNL     1       1.182  -2.747  -1.922  0.00  0.00    -0.033 A 
ATOM     28  C   UNL     1       0.104  -2.482  -2.860  0.00  0.00    +0.005 A 
ATOM     29  C   UNL     1       0.240  -2.763  -4.238  0.00  0.00    +0.013 A 
BRANCH  18  19
ATOM     19  C   UNL     1       0.933  -2.429  -0.436  0.00  0.00    +0.119 C 
BRANCH  19  20
ATOM     20  N   UNL     1      -0.354  -1.757  -0.086  0.00  0.00    -0.302 NA
ATOM     21  C   UNL     1      -0.152  -0.284   0.277  0.00  0.00    +0.066 C 
ATOM     22  C   UNL     1      -1.512   0.409   0.618  0.00  0.00    -0.064 C 
ATOM     23  N   UNL     1      -2.192  -0.343   1.763  0.00  0.00    +0.379 N 
ATOM     24  C   UNL     1      -3.442   0.340   2.125  0.00  0.00    -0.096 C 
ATOM     25  H   UNL     1      -1.513  -0.298   2.647  0.00  0.00    -0.082 HD
ATOM     26  C   UNL     1      -2.393  -1.810   1.411  0.00  0.00    -0.064 C 
ATOM     27  C   UNL     1      -1.040  -2.482   1.045  0.00  0.00    +0.066 C 
ENDBRANCH  19  20
ENDBRANCH  18  19
ENDBRANCH  14  15
ENDBRANCH  12  13
TORSDOF 6
ENDMDL
