MODEL 1
REMARK VINA RESULT:     -11.6      0.000      0.000
REMARK  Name = C:\Users\Docking\Desktop\test protocol\1iep_ligandH.pdb
REMARK  8 active torsions:
REMARK  status: ('A' for Active; 'I' for Inactive)
REMARK    1  A    between atoms: _5  and  _11
REMARK    2  A    between atoms: _19  and  _21
REMARK    3  A    between atoms: _22  and  _66
REMARK    4  A    between atoms: _27  and  _30
REMARK    5  A    between atoms: _32  and  _33
REMARK    6  A    between atoms: _38  and  _43
REMARK    7  A    between atoms: _43  and  _46
REMARK    8  A    between atoms: _53  and  _55
REMARK                            x       y       z     vdW  Elec       q    Type
REMARK                         _______ _______ _______ _____ _____    ______ ____
ROOT
ATOM     10  C   UNL     1       1.149  -4.072  -3.561  0.00  0.00    +0.038 A 
ATOM     11  C   UNL     1       0.326  -3.927  -4.707  0.00  0.00    +0.047 A 
ATOM     12  C   UNL     1       0.901  -3.681  -6.021  0.00  0.00    +0.035 A 
ATOM     32  C   UNL     1       2.319  -3.593  -6.131  0.00  0.00    +0.024 A 
ATOM     33  C   UNL     1       3.171  -3.738  -4.977  0.00  0.00    +0.007 A 
ATOM     34  C   UNL     1       2.609  -3.977  -3.678  0.00  0.00    -0.029 A 
ATOM     35  C   UNL     1       3.569  -4.118  -2.474  0.00  0.00    +0.045 C 
ENDROOT
BRANCH  10   9
ATOM      4  C   UNL     1      -1.133  -2.572   0.386  0.00  0.00    +0.077 A 
ATOM      5  C   UNL     1      -1.091  -1.202  -0.039  0.00  0.00    +0.048 A 
ATOM      6  C   UNL     1      -0.467  -0.925  -1.276  0.00  0.00    +0.116 A 
ATOM      7  N   UNL     1       0.071  -1.950  -2.024  0.00  0.00    -0.223 NA
ATOM      8  C   UNL     1       0.015  -3.260  -1.585  0.00  0.00    +0.220 A 
ATOM      9  N   UNL     1       0.543  -4.307  -2.325  0.00  0.00    -0.283 N 
ATOM     36  H   UNL     1       0.488  -5.258  -1.963  0.00  0.00    +0.155 HD
ATOM     37  N   UNL     1      -0.574  -3.550  -0.406  0.00  0.00    -0.214 NA
BRANCH   4   3
ATOM      1  C   UNL     1      -3.038  -4.692   3.065  0.00  0.00    +0.020 A 
ATOM      2  C   UNL     1      -2.449  -4.302   1.805  0.00  0.00    +0.013 A 
ATOM      3  C   UNL     1      -1.761  -3.024   1.667  0.00  0.00    +0.019 A 
ATOM     38  C   UNL     1      -1.686  -2.158   2.834  0.00  0.00    +0.120 A 
ATOM     39  N   UNL     1      -2.264  -2.559   4.034  0.00  0.00    -0.263 NA
ATOM     40  C   UNL     1      -2.930  -3.785   4.178  0.00  0.00    +0.111 A 
ENDBRANCH   4   3
ENDBRANCH  10   9
BRANCH  12  13
ATOM     13  N   UNL     1       0.116  -3.517  -7.219  0.00  0.00    -0.281 N 
ATOM     14  C   UNL     1       0.299  -2.597  -8.238  0.00  0.00    +0.248 C 
ATOM     30  O   UNL     1       1.044  -1.631  -8.171  0.00  0.00    -0.270 OA
ATOM     31  H   UNL     1      -0.672  -4.156  -7.328  0.00  0.00    +0.155 HD
BRANCH  14  15
ATOM     15  C   UNL     1      -0.466  -2.767  -9.511  0.00  0.00    +0.037 A 
ATOM     16  C   UNL     1      -1.927  -2.873  -9.511  0.00  0.00    +0.013 A 
ATOM     17  C   UNL     1      -2.639  -3.054 -10.751  0.00  0.00    +0.005 A 
ATOM     18  C   UNL     1      -1.890  -3.128 -12.003  0.00  0.00    -0.033 A 
ATOM     28  C   UNL     1      -0.441  -3.015 -11.974  0.00  0.00    +0.005 A 
ATOM     29  C   UNL     1       0.261  -2.839 -10.761  0.00  0.00    +0.013 A 
BRANCH  18  19
ATOM     19  C   UNL     1      -2.565  -3.341 -13.370  0.00  0.00    +0.119 C 
BRANCH  19  20
ATOM     20  N   UNL     1      -2.818  -4.750 -13.796  0.00  0.00    -0.302 NA
ATOM     21  C   UNL     1      -2.092  -5.759 -12.902  0.00  0.00    +0.066 C 
ATOM     22  C   UNL     1      -2.386  -7.229 -13.349  0.00  0.00    -0.064 C 
ATOM     23  N   UNL     1      -1.974  -7.406 -14.811  0.00  0.00    +0.379 N 
ATOM     24  C   UNL     1      -2.195  -8.802 -15.217  0.00  0.00    -0.096 C 
ATOM     25  H   UNL     1      -0.881  -7.202 -14.882  0.00  0.00    -0.082 HD
ATOM     26  C   UNL     1      -2.689  -6.405 -15.707  0.00  0.00    -0.064 C 
ATOM     27  C   UNL     1      -2.415  -4.949 -15.237  0.00  0.00    +0.066 C 
ENDBRANCH  19  20
ENDBRANCH  18  19
ENDBRANCH  14  15
ENDBRANCH  12  13
TORSDOF 6
ENDMDL
MODEL 2
REMARK VINA RESULT:     -11.3      2.254     13.040
REMARK  Name = C:\Users\Docking\Desktop\test protocol\1iep_ligandH.pdb
REMARK  8 active torsions:
REMARK  status: ('A' for Active; 'I' for Inactive)
REMARK    1  A    between atoms: _5  and  _11
REMARK    2  A    between atoms: _19  and  _21
REMARK    3  A    between atoms: _22  and  _66
REMARK    4  A    between atoms: _27  and  _30
REMARK    5  A    between atoms: _32  and  _33
REMARK    6  A    between atoms: _38  and  _43
REMARK    7  A    between atoms: _43  and  _46
REMARK    8  A    between atoms: _53  and  _55
REMARK                            x       y       z     vdW  Elec       q    Type
REMARK                         _______ _______ _______ _____ _____    ______ ____
ROOT
ATOM     10  C   UNL     1       1.578  -4.080  -8.230  0.00  0.00    +0.038 A 
ATOM     11  C   UNL     1       0.882  -3.920  -7.004  0.00  0.00    +0.047 A 
ATOM     12  C   UNL     1       1.369  -3.014  -5.975  0.00  0.00    +0.035 A 
ATOM     32  C   UNL     1       2.567  -2.285  -6.228  0.00  0.00    +0.024 A 
ATOM     33  C   UNL     1       3.288  -2.436  -7.468  0.00  0.00    +0.007 A 
ATOM     34  C   UNL     1       2.814  -3.330  -8.486  0.00  0.00    -0.029 A 
ATOM     35  C   UNL     1       3.630  -3.457  -9.793  0.00  0.00    +0.045 C 
ENDROOT
BRANCH  10   9
ATOM      4  C   UNL     1      -1.160  -5.064 -12.047  0.00  0.00    +0.077 A 
ATOM      5  C   UNL     1      -1.629  -3.711 -12.133  0.00  0.00    +0.048 A 
ATOM      6  C   UNL     1      -1.148  -2.795 -11.172  0.00  0.00    +0.116 A 
ATOM      7  N   UNL     1      -0.262  -3.211 -10.201  0.00  0.00    -0.223 NA
ATOM      8  C   UNL     1       0.169  -4.523 -10.145  0.00  0.00    +0.220 A 
ATOM      9  N   UNL     1       1.065  -4.962  -9.183  0.00  0.00    -0.283 N 
ATOM     36  H   UNL     1       1.354  -5.940  -9.171  0.00  0.00    +0.155 HD
ATOM     37  N   UNL     1      -0.277  -5.418 -11.051  0.00  0.00    -0.214 NA
BRANCH   4   3
ATOM      1  C   UNL     1      -2.316  -8.504 -13.507  0.00  0.00    +0.020 A 
ATOM      2  C   UNL     1      -1.921  -7.493 -12.552  0.00  0.00    +0.013 A 
ATOM      3  C   UNL     1      -1.575  -6.148 -12.993  0.00  0.00    +0.019 A 
ATOM     38  C   UNL     1      -1.640  -5.855 -14.416  0.00  0.00    +0.120 A 
ATOM     39  N   UNL     1      -2.022  -6.848 -15.312  0.00  0.00    -0.263 NA
ATOM     40  C   UNL     1      -2.356  -8.147 -14.900  0.00  0.00    +0.111 A 
ENDBRANCH   4   3
ENDBRANCH  10   9
BRANCH  12  13
ATOM     13  N   UNL     1       0.709  -2.817  -4.708  0.00  0.00    -0.281 N 
ATOM     14  C   UNL     1       0.952  -3.470  -3.511  0.00  0.00    +0.248 C 
ATOM     30  O   UNL     1       1.633  -4.479  -3.399  0.00  0.00    -0.270 OA
ATOM     31  H   UNL     1      -0.026  -2.110  -4.692  0.00  0.00    +0.155 HD
BRANCH  14  15
ATOM     15  C   UNL     1       0.339  -2.933  -2.258  0.00  0.00    +0.037 A 
ATOM     16  C   UNL     1       0.080  -1.500  -2.092  0.00  0.00    +0.013 A 
ATOM     17  C   UNL     1      -0.496  -1.006  -0.867  0.00  0.00    +0.005 A 
ATOM     18  C   UNL     1      -0.820  -1.947   0.203  0.00  0.00    -0.033 A 
ATOM     28  C   UNL     1      -0.557  -3.364   0.010  0.00  0.00    +0.005 A 
ATOM     29  C   UNL     1       0.009  -3.852  -1.189  0.00  0.00    +0.013 A 
BRANCH  18  19
ATOM     19  C   UNL     1      -1.418  -1.507   1.552  0.00  0.00    +0.119 C 
BRANCH  19  20
ATOM     20  N   UNL     1      -0.678  -1.898   2.788  0.00  0.00    -0.302 NA
ATOM     21  C   UNL     1      -1.387  -1.419   4.058  0.00  0.00    +0.066 C 
ATOM     22  C   UNL     1      -0.611  -1.857   5.343  0.00  0.00    -0.064 C 
ATOM     23  N   UNL     1       0.817  -1.314   5.283  0.00  0.00    +0.379 N 
ATOM     24  C   UNL     1       1.532  -1.675   6.516  0.00  0.00    -0.096 C 
ATOM     25  H   UNL     1       0.754  -0.202   5.241  0.00  0.00    -0.082 HD
ATOM     26  C   UNL     1       1.529  -1.783   4.022  0.00  0.00    -0.064 C 
ATOM     27  C   UNL     1       0.734  -1.368   2.752  0.00  0.00    +0.066 C 
ENDBRANCH  19  20
ENDBRANCH  18  19
ENDBRANCH  14  15
ENDBRANCH  12  13
TORSDOF 6
ENDMDL
MODEL 3
REMARK VINA RESULT:     -11.2      2.435     12.057
REMARK  Name = C:\Users\Docking\Desktop\test protocol\1iep_ligandH.pdb
REMARK  8 active torsions:
REMARK  status: ('A' for Active; 'I' for Inactive)
REMARK    1  A    between atoms: _5  and  _11
REMARK    2  A    between atoms: _19  and  _21
REMARK    3  A    between atoms: _22  and  _66
REMARK    4  A    between atoms: _27  and  _30
REMARK    5  A    between atoms: _32  and  _33
REMARK    6  A    between atoms: _38  and  _43
REMARK    7  A    between atoms: _43  and  _46
REMARK    8  A    between atoms: _53  and  _55
REMARK                            x       y       z     vdW  Elec       q    Type
REMARK                         _______ _______ _______ _____ _____    ______ ____
ROOT
ATOM     10  C   UNL     1       1.592  -4.079  -8.257  0.00  0.00    +0.038 A 
ATOM     11  C   UNL     1       0.899  -3.959  -7.026  0.00  0.00    +0.047 A 
ATOM     12  C   UNL     1       1.385  -3.085  -5.970  0.00  0.00    +0.035 A 
ATOM     32  C   UNL     1       2.580  -2.344  -6.204  0.00  0.00    +0.024 A 
ATOM     33  C   UNL     1       3.298  -2.454  -7.449  0.00  0.00    +0.007 A 
ATOM     34  C   UNL     1       2.824  -3.317  -8.493  0.00  0.00    -0.029 A 
ATOM     35  C   UNL     1       3.638  -3.400  -9.806  0.00  0.00    +0.045 C 
ENDROOT
BRANCH  10   9
ATOM      4  C   UNL     1      -1.246  -4.985 -12.021  0.00  0.00    +0.077 A 
ATOM      5  C   UNL     1      -1.773  -3.650 -12.020  0.00  0.00    +0.048 A 
ATOM      6  C   UNL     1      -1.293  -2.764 -11.030  0.00  0.00    +0.116 A 
ATOM      7  N   UNL     1      -0.355  -3.191 -10.114  0.00  0.00    -0.223 NA
ATOM      8  C   UNL     1       0.131  -4.485 -10.142  0.00  0.00    +0.220 A 
ATOM      9  N   UNL     1       1.080  -4.933  -9.236  0.00  0.00    -0.283 N 
ATOM     36  H   UNL     1       1.408  -5.897  -9.286  0.00  0.00    +0.155 HD
ATOM     37  N   UNL     1      -0.313  -5.351 -11.077  0.00  0.00    -0.214 NA
BRANCH   4   3
ATOM      1  C   UNL     1      -2.353  -8.383 -13.610  0.00  0.00    +0.020 A 
ATOM      2  C   UNL     1      -1.965  -7.406 -12.619  0.00  0.00    +0.013 A 
ATOM      3  C   UNL     1      -1.652  -6.036 -13.006  0.00  0.00    +0.019 A 
ATOM     38  C   UNL     1      -1.742  -5.685 -14.415  0.00  0.00    +0.120 A 
ATOM     39  N   UNL     1      -2.116  -6.648 -15.347  0.00  0.00    -0.263 NA
ATOM     40  C   UNL     1      -2.419  -7.969 -14.986  0.00  0.00    +0.111 A 
ENDBRANCH   4   3
ENDBRANCH  10   9
BRANCH  12  13
ATOM     13  N   UNL     1       0.728  -2.929  -4.696  0.00  0.00    -0.281 N 
ATOM     14  C   UNL     1       1.111  -3.451  -3.471  0.00  0.00    +0.248 C 
ATOM     30  O   UNL     1       1.965  -4.313  -3.323  0.00  0.00    -0.270 OA
ATOM     31  H   UNL     1      -0.122  -2.366  -4.697  0.00  0.00    +0.155 HD
BRANCH  14  15
ATOM     15  C   UNL     1       0.438  -2.955  -2.233  0.00  0.00    +0.037 A 
ATOM     16  C   UNL     1      -0.016  -3.880  -1.191  0.00  0.00    +0.013 A 
ATOM     17  C   UNL     1      -0.678  -3.376  -0.014  0.00  0.00    +0.005 A 
ATOM     18  C   UNL     1      -0.889  -1.937   0.128  0.00  0.00    -0.033 A 
ATOM     28  C   UNL     1      -0.424  -1.041  -0.918  0.00  0.00    +0.005 A 
ATOM     29  C   UNL     1       0.224  -1.532  -2.073  0.00  0.00    +0.013 A 
BRANCH  18  19
ATOM     19  C   UNL     1      -1.605  -1.312   1.341  0.00  0.00    +0.119 C 
BRANCH  19  20
ATOM     20  N   UNL     1      -3.098  -1.295   1.319  0.00  0.00    -0.302 NA
ATOM     21  C   UNL     1      -3.695  -2.601   1.851  0.00  0.00    +0.066 C 
ATOM     22  C   UNL     1      -5.258  -2.557   1.842  0.00  0.00    -0.064 C 
ATOM     23  N   UNL     1      -5.749  -2.276   0.421  0.00  0.00    +0.379 N 
ATOM     24  C   UNL     1      -7.219  -2.291   0.398  0.00  0.00    -0.096 C 
ATOM     25  H   UNL     1      -5.392  -3.107  -0.231  0.00  0.00    -0.082 HD
ATOM     26  C   UNL     1      -5.158  -0.981  -0.117  0.00  0.00    -0.064 C 
ATOM     27  C   UNL     1      -3.605  -1.023  -0.076  0.00  0.00    +0.066 C 
ENDBRANCH  19  20
ENDBRANCH  18  19
ENDBRANCH  14  15
ENDBRANCH  12  13
TORSDOF 6
ENDMDL
MODEL 4
REMARK VINA RESULT:     -11.1      1.970     12.992
REMARK  Name = C:\Users\Docking\Desktop\test protocol\1iep_ligandH.pdb
REMARK  8 active torsions:
REMARK  status: ('A' for Active; 'I' for Inactive)
REMARK    1  A    between atoms: _5  and  _11
REMARK    2  A    between atoms: _19  and  _21
REMARK    3  A    between atoms: _22  and  _66
REMARK    4  A    between atoms: _27  and  _30
REMARK    5  A    between atoms: _32  and  _33
REMARK    6  A    between atoms: _38  and  _43
REMARK    7  A    between atoms: _43  and  _46
REMARK    8  A    between atoms: _53  and  _55
REMARK                            x       y       z     vdW  Elec       q    Type
REMARK                         _______ _______ _______ _____ _____    ______ ____
ROOT
ATOM     10  C   UNL     1       1.502  -4.132  -8.261  0.00  0.00    +0.038 A 
ATOM     11  C   UNL     1       0.814  -4.011  -7.026  0.00  0.00    +0.047 A 
ATOM     12  C   UNL     1       1.302  -3.129  -5.977  0.00  0.00    +0.035 A 
ATOM     32  C   UNL     1       2.492  -2.384  -6.220  0.00  0.00    +0.024 A 
ATOM     33  C   UNL     1       3.204  -2.496  -7.468  0.00  0.00    +0.007 A 
ATOM     34  C   UNL     1       2.729  -3.366  -8.506  0.00  0.00    -0.029 A 
ATOM     35  C   UNL     1       3.537  -3.452  -9.822  0.00  0.00    +0.045 C 
ENDROOT
BRANCH  10   9
ATOM      4  C   UNL     1      -1.277  -5.043 -12.067  0.00  0.00    +0.077 A 
ATOM      5  C   UNL     1      -1.769  -3.696 -12.104  0.00  0.00    +0.048 A 
ATOM      6  C   UNL     1      -1.287  -2.802 -11.122  0.00  0.00    +0.116 A 
ATOM      7  N   UNL     1      -0.381  -3.233 -10.178  0.00  0.00    -0.223 NA
ATOM      8  C   UNL     1       0.072  -4.540 -10.169  0.00  0.00    +0.220 A 
ATOM      9  N   UNL     1       0.989  -4.993  -9.233  0.00  0.00    -0.283 N 
ATOM     36  H   UNL     1       1.293  -5.967  -9.256  0.00  0.00    +0.155 HD
ATOM     37  N   UNL     1      -0.374  -5.414 -11.095  0.00  0.00    -0.214 NA
BRANCH   4   3
ATOM      1  C   UNL     1      -2.389  -8.458 -13.616  0.00  0.00    +0.020 A 
ATOM      2  C   UNL     1      -1.995  -7.472 -12.637  0.00  0.00    +0.013 A 
ATOM      3  C   UNL     1      -1.689  -6.105 -13.039  0.00  0.00    +0.019 A 
ATOM     38  C   UNL     1      -1.792  -5.766 -14.451  0.00  0.00    +0.120 A 
ATOM     39  N   UNL     1      -2.173  -6.737 -15.371  0.00  0.00    -0.263 NA
ATOM     40  C   UNL     1      -2.468  -8.057 -14.996  0.00  0.00    +0.111 A 
ENDBRANCH   4   3
ENDBRANCH  10   9
BRANCH  12  13
ATOM     13  N   UNL     1       0.650  -2.971  -4.700  0.00  0.00    -0.281 N 
ATOM     14  C   UNL     1       1.100  -3.385  -3.457  0.00  0.00    +0.248 C 
ATOM     30  O   UNL     1       2.038  -4.148  -3.281  0.00  0.00    -0.270 OA
ATOM     31  H   UNL     1      -0.252  -2.496  -4.715  0.00  0.00    +0.155 HD
BRANCH  14  15
ATOM     15  C   UNL     1       0.398  -2.891  -2.234  0.00  0.00    +0.037 A 
ATOM     16  C   UNL     1      -0.004  -3.810  -1.166  0.00  0.00    +0.013 A 
ATOM     17  C   UNL     1      -0.695  -3.309  -0.004  0.00  0.00    +0.005 A 
ATOM     18  C   UNL     1      -0.988  -1.881   0.096  0.00  0.00    -0.033 A 
ATOM     28  C   UNL     1      -0.573  -0.992  -0.976  0.00  0.00    +0.005 A 
ATOM     29  C   UNL     1       0.104  -1.479  -2.117  0.00  0.00    +0.013 A 
BRANCH  18  19
ATOM     19  C   UNL     1      -1.740  -1.263   1.290  0.00  0.00    +0.119 C 
BRANCH  19  20
ATOM     20  N   UNL     1      -1.522  -1.884   2.630  0.00  0.00    -0.302 NA
ATOM     21  C   UNL     1      -2.840  -2.296   3.293  0.00  0.00    +0.066 C 
ATOM     22  C   UNL     1      -2.592  -2.963   4.685  0.00  0.00    -0.064 C 
ATOM     23  N   UNL     1      -1.815  -1.997   5.580  0.00  0.00    +0.379 N 
ATOM     24  C   UNL     1      -1.631  -2.599   6.909  0.00  0.00    -0.096 C 
ATOM     25  H   UNL     1      -2.436  -1.080   5.707  0.00  0.00    -0.082 HD
ATOM     26  C   UNL     1      -0.504  -1.580   4.927  0.00  0.00    -0.064 C 
ATOM     27  C   UNL     1      -0.760  -0.944   3.532  0.00  0.00    +0.066 C 
ENDBRANCH  19  20
ENDBRANCH  18  19
ENDBRANCH  14  15
ENDBRANCH  12  13
TORSDOF 6
ENDMDL
MODEL 5
REMARK VINA RESULT:     -10.9      1.717      2.047
REMARK  Name = C:\Users\Docking\Desktop\test protocol\1iep_ligandH.pdb
REMARK  8 active torsions:
REMARK  status: ('A' for Active; 'I' for Inactive)
REMARK    1  A    between atoms: _5  and  _11
REMARK    2  A    between atoms: _19  and  _21
REMARK    3  A    between atoms: _22  and  _66
REMARK    4  A    between atoms: _27  and  _30
REMARK    5  A    between atoms: _32  and  _33
REMARK    6  A    between atoms: _38  and  _43
REMARK    7  A    between atoms: _43  and  _46
REMARK    8  A    between atoms: _53  and  _55
REMARK                            x       y       z     vdW  Elec       q    Type
REMARK                         _______ _______ _______ _____ _____    ______ ____
ROOT
ATOM     10  C   UNL     1       1.351  -4.176  -3.795  0.00  0.00    +0.038 A 
ATOM     11  C   UNL     1       0.611  -4.046  -4.998  0.00  0.00    +0.047 A 
ATOM     12  C   UNL     1       1.274  -3.782  -6.265  0.00  0.00    +0.035 A 
ATOM     32  C   UNL     1       2.694  -3.660  -6.271  0.00  0.00    +0.024 A 
ATOM     33  C   UNL     1       3.462  -3.788  -5.058  0.00  0.00    +0.007 A 
ATOM     34  C   UNL     1       2.813  -4.046  -3.805  0.00  0.00    -0.029 A 
ATOM     35  C   UNL     1       3.686  -4.168  -2.534  0.00  0.00    +0.045 C 
ENDROOT
BRANCH  10   9
ATOM      4  C   UNL     1      -1.023  -2.718   0.113  0.00  0.00    +0.077 A 
ATOM      5  C   UNL     1      -0.855  -1.335  -0.228  0.00  0.00    +0.048 A 
ATOM      6  C   UNL     1      -0.145  -1.041  -1.413  0.00  0.00    +0.116 A 
ATOM      7  N   UNL     1       0.355  -2.062  -2.192  0.00  0.00    -0.223 NA
ATOM      8  C   UNL     1       0.176  -3.386  -1.834  0.00  0.00    +0.220 A 
ATOM      9  N   UNL     1       0.662  -4.429  -2.607  0.00  0.00    -0.283 N 
ATOM     36  H   UNL     1       0.516  -5.391  -2.304  0.00  0.00    +0.155 HD
ATOM     37  N   UNL     1      -0.498  -3.693  -0.706  0.00  0.00    -0.214 NA
BRANCH   4   3
ATOM      1  C   UNL     1      -3.121  -4.885   2.605  0.00  0.00    +0.020 A 
ATOM      2  C   UNL     1      -2.431  -4.477   1.402  0.00  0.00    +0.013 A 
ATOM      3  C   UNL     1      -1.753  -3.189   1.333  0.00  0.00    +0.019 A 
ATOM     38  C   UNL     1      -1.792  -2.330   2.507  0.00  0.00    +0.120 A 
ATOM     39  N   UNL     1      -2.465  -2.748   3.650  0.00  0.00    -0.263 NA
ATOM     40  C   UNL     1      -3.123  -3.985   3.728  0.00  0.00    +0.111 A 
ENDBRANCH   4   3
ENDBRANCH  10   9
BRANCH  12  13
ATOM     13  N   UNL     1       0.574  -3.632  -7.517  0.00  0.00    -0.281 N 
ATOM     14  C   UNL     1      -0.791  -3.516  -7.721  0.00  0.00    +0.248 C 
ATOM     30  O   UNL     1      -1.638  -3.740  -6.869  0.00  0.00    -0.270 OA
ATOM     31  H   UNL     1       1.156  -3.608  -8.354  0.00  0.00    +0.155 HD
BRANCH  14  15
ATOM     15  C   UNL     1      -1.288  -3.107  -9.070  0.00  0.00    +0.037 A 
ATOM     16  C   UNL     1      -2.721  -3.027  -9.360  0.00  0.00    +0.013 A 
ATOM     17  C   UNL     1      -3.173  -2.646 -10.674  0.00  0.00    +0.005 A 
ATOM     18  C   UNL     1      -2.189  -2.341 -11.709  0.00  0.00    -0.033 A 
ATOM     28  C   UNL     1      -0.773  -2.423 -11.393  0.00  0.00    +0.005 A 
ATOM     29  C   UNL     1      -0.326  -2.797 -10.106  0.00  0.00    +0.013 A 
BRANCH  18  19
ATOM     19  C   UNL     1      -2.580  -1.946 -13.146  0.00  0.00    +0.119 C 
BRANCH  19  20
ATOM     20  N   UNL     1      -3.784  -2.608 -13.733  0.00  0.00    -0.302 NA
ATOM     21  C   UNL     1      -3.468  -4.010 -14.261  0.00  0.00    +0.066 C 
ATOM     22  C   UNL     1      -4.743  -4.696 -14.851  0.00  0.00    -0.064 C 
ATOM     23  N   UNL     1      -5.325  -3.817 -15.960  0.00  0.00    +0.379 N 
ATOM     24  C   UNL     1      -6.490  -4.487 -16.556  0.00  0.00    -0.096 C 
ATOM     25  H   UNL     1      -4.549  -3.717 -16.754  0.00  0.00    -0.082 HD
ATOM     26  C   UNL     1      -5.639  -2.420 -15.443  0.00  0.00    -0.064 C 
ATOM     27  C   UNL     1      -4.372  -1.759 -14.833  0.00  0.00    +0.066 C 
ENDBRANCH  19  20
ENDBRANCH  18  19
ENDBRANCH  14  15
ENDBRANCH  12  13
TORSDOF 6
ENDMDL
