MODEL 1
REMARK VINA RESULT:     -11.5      0.000      0.000
REMARK  Name = C:\Users\Docking\Desktop\test protocol\1iep_ligandH.pdb
REMARK  8 active torsions:
REMARK  status: ('A' for Active; 'I' for Inactive)
REMARK    1  A    between atoms: _5  and  _11
REMARK    2  A    between atoms: _19  and  _21
REMARK    3  A    between atoms: _22  and  _66
REMARK    4  A    between atoms: _27  and  _30
REMARK    5  A    between atoms: _32  and  _33
REMARK    6  A    between atoms: _38  and  _43
REMARK    7  A    between atoms: _43  and  _46
REMARK    8  A    between atoms: _53  and  _55
REMARK                            x       y       z     vdW  Elec       q    Type
REMARK                         _______ _______ _______ _____ _____    ______ ____
ROOT
ATOM     10  C   UNL     1       1.072   3.972   3.619  0.00  0.00    +0.038 A 
ATOM     11  C   UNL     1       0.276   3.916   4.792  0.00  0.00    +0.047 A 
ATOM     12  C   UNL     1       0.874   3.684   6.097  0.00  0.00    +0.035 A 
ATOM     32  C   UNL     1       2.288   3.515   6.171  0.00  0.00    +0.024 A 
ATOM     33  C   UNL     1       3.112   3.568   4.990  0.00  0.00    +0.007 A 
ATOM     34  C   UNL     1       2.527   3.795   3.699  0.00  0.00    -0.029 A 
ATOM     35  C   UNL     1       3.458   3.836   2.465  0.00  0.00    +0.045 C 
ENDROOT
BRANCH  10   9
ATOM      4  C   UNL     1      -1.194   2.435  -0.323  0.00  0.00    +0.077 A 
ATOM      5  C   UNL     1      -1.096   1.063   0.084  0.00  0.00    +0.048 A 
ATOM      6  C   UNL     1      -0.448   0.795   1.311  0.00  0.00    +0.116 A 
ATOM      7  N   UNL     1       0.059   1.829   2.066  0.00  0.00    -0.223 NA
ATOM      8  C   UNL     1      -0.051   3.141   1.644  0.00  0.00    +0.220 A 
ATOM      9  N   UNL     1       0.444   4.198   2.392  0.00  0.00    -0.283 N 
ATOM     36  H   UNL     1       0.350   5.152   2.042  0.00  0.00    +0.155 HD
ATOM     37  N   UNL     1      -0.664   3.424   0.475  0.00  0.00    -0.214 NA
BRANCH   4   3
ATOM      1  C   UNL     1      -3.165   4.535  -2.970  0.00  0.00    +0.020 A 
ATOM      2  C   UNL     1      -2.546   4.154  -1.721  0.00  0.00    +0.013 A 
ATOM      3  C   UNL     1      -1.852   2.879  -1.593  0.00  0.00    +0.019 A 
ATOM     38  C   UNL     1      -1.801   2.006  -2.756  0.00  0.00    +0.120 A 
ATOM     39  N   UNL     1      -2.407   2.399  -3.945  0.00  0.00    -0.263 NA
ATOM     40  C   UNL     1      -3.079   3.623  -4.080  0.00  0.00    +0.111 A 
ENDBRANCH   4   3
ENDBRANCH  10   9
BRANCH  12  13
ATOM     13  N   UNL     1       0.116   3.609   7.321  0.00  0.00    -0.281 N 
ATOM     14  C   UNL     1       0.170   2.627   8.297  0.00  0.00    +0.248 C 
ATOM     30  O   UNL     1       0.728   1.548   8.162  0.00  0.00    -0.270 OA
ATOM     31  H   UNL     1      -0.540   4.372   7.488  0.00  0.00    +0.155 HD
BRANCH  14  15
ATOM     15  C   UNL     1      -0.506   2.874   9.607  0.00  0.00    +0.037 A 
ATOM     16  C   UNL     1      -1.882   2.433   9.848  0.00  0.00    +0.013 A 
ATOM     17  C   UNL     1      -2.516   2.699  11.115  0.00  0.00    +0.005 A 
ATOM     18  C   UNL     1      -1.772   3.409  12.152  0.00  0.00    -0.033 A 
ATOM     28  C   UNL     1      -0.406   3.831  11.889  0.00  0.00    +0.005 A 
ATOM     29  C   UNL     1       0.218   3.573  10.648  0.00  0.00    +0.013 A 
BRANCH  18  19
ATOM     19  C   UNL     1      -2.376   3.755  13.526  0.00  0.00    +0.119 C 
BRANCH  19  20
ATOM     20  N   UNL     1      -1.893   5.001  14.192  0.00  0.00    -0.302 NA
ATOM     21  C   UNL     1      -1.981   4.908  15.718  0.00  0.00    +0.066 C 
ATOM     22  C   UNL     1      -1.451   6.212  16.399  0.00  0.00    -0.064 C 
ATOM     23  N   UNL     1      -2.245   7.413  15.882  0.00  0.00    +0.379 N 
ATOM     24  C   UNL     1      -1.787   8.633  16.564  0.00  0.00    -0.096 C 
ATOM     25  H   UNL     1      -3.314   7.254  16.155  0.00  0.00    -0.082 HD
ATOM     26  C   UNL     1      -2.165   7.511  14.365  0.00  0.00    -0.064 C 
ATOM     27  C   UNL     1      -2.667   6.199  13.700  0.00  0.00    +0.066 C 
ENDBRANCH  19  20
ENDBRANCH  18  19
ENDBRANCH  14  15
ENDBRANCH  12  13
TORSDOF 6
ENDMDL
MODEL 2
REMARK VINA RESULT:     -11.1      2.284     13.239
REMARK  Name = C:\Users\Docking\Desktop\test protocol\1iep_ligandH.pdb
REMARK  8 active torsions:
REMARK  status: ('A' for Active; 'I' for Inactive)
REMARK    1  A    between atoms: _5  and  _11
REMARK    2  A    between atoms: _19  and  _21
REMARK    3  A    between atoms: _22  and  _66
REMARK    4  A    between atoms: _27  and  _30
REMARK    5  A    between atoms: _32  and  _33
REMARK    6  A    between atoms: _38  and  _43
REMARK    7  A    between atoms: _43  and  _46
REMARK    8  A    between atoms: _53  and  _55
REMARK                            x       y       z     vdW  Elec       q    Type
REMARK                         _______ _______ _______ _____ _____    ______ ____
ROOT
ATOM     10  C   UNL     1       1.548   3.833   8.168  0.00  0.00    +0.038 A 
ATOM     11  C   UNL     1       0.830   3.676   6.955  0.00  0.00    +0.047 A 
ATOM     12  C   UNL     1       1.345   2.844   5.879  0.00  0.00    +0.035 A 
ATOM     32  C   UNL     1       2.594   2.185   6.072  0.00  0.00    +0.024 A 
ATOM     33  C   UNL     1       3.338   2.335   7.299  0.00  0.00    +0.007 A 
ATOM     34  C   UNL     1       2.836   3.156   8.363  0.00  0.00    -0.029 A 
ATOM     35  C   UNL     1       3.679   3.285   9.653  0.00  0.00    +0.045 C 
ENDROOT
BRANCH  10   9
ATOM      4  C   UNL     1      -1.071   4.476  12.139  0.00  0.00    +0.077 A 
ATOM      5  C   UNL     1      -1.412   3.084  12.210  0.00  0.00    +0.048 A 
ATOM      6  C   UNL     1      -0.899   2.238  11.202  0.00  0.00    +0.116 A 
ATOM      7  N   UNL     1      -0.105   2.755  10.202  0.00  0.00    -0.223 NA
ATOM      8  C   UNL     1       0.204   4.103  10.161  0.00  0.00    +0.220 A 
ATOM      9  N   UNL     1       1.007   4.643   9.169  0.00  0.00    -0.283 N 
ATOM     36  H   UNL     1       1.205   5.644   9.170  0.00  0.00    +0.155 HD
ATOM     37  N   UNL     1      -0.275   4.932  11.112  0.00  0.00    -0.214 NA
BRANCH   4   3
ATOM      1  C   UNL     1      -2.124   7.854  13.806  0.00  0.00    +0.020 A 
ATOM      2  C   UNL     1      -1.673   6.910  12.810  0.00  0.00    +0.013 A 
ATOM      3  C   UNL     1      -1.534   5.496  13.132  0.00  0.00    +0.019 A 
ATOM     38  C   UNL     1      -1.864   5.066  14.483  0.00  0.00    +0.120 A 
ATOM     39  N   UNL     1      -2.295   5.998  15.422  0.00  0.00    -0.263 NA
ATOM     40  C   UNL     1      -2.430   7.362  15.123  0.00  0.00    +0.111 A 
ENDBRANCH   4   3
ENDBRANCH  10   9
BRANCH  12  13
ATOM     13  N   UNL     1       0.665   2.653   4.622  0.00  0.00    -0.281 N 
ATOM     14  C   UNL     1       0.930   3.266   3.408  0.00  0.00    +0.248 C 
ATOM     30  O   UNL     1       1.662   4.235   3.268  0.00  0.00    -0.270 OA
ATOM     31  H   UNL     1      -0.107   1.986   4.628  0.00  0.00    +0.155 HD
BRANCH  14  15
ATOM     15  C   UNL     1       0.279   2.733   2.173  0.00  0.00    +0.037 A 
ATOM     16  C   UNL     1       0.061   1.296   1.987  0.00  0.00    +0.013 A 
ATOM     17  C   UNL     1      -0.554   0.808   0.779  0.00  0.00    +0.005 A 
ATOM     18  C   UNL     1      -0.958   1.759  -0.254  0.00  0.00    -0.033 A 
ATOM     28  C   UNL     1      -0.736   3.180  -0.042  0.00  0.00    +0.005 A 
ATOM     29  C   UNL     1      -0.132   3.662   1.141  0.00  0.00    +0.013 A 
BRANCH  18  19
ATOM     19  C   UNL     1      -1.603   1.326  -1.584  0.00  0.00    +0.119 C 
BRANCH  19  20
ATOM     20  N   UNL     1      -0.683   0.973  -2.706  0.00  0.00    -0.302 NA
ATOM     21  C   UNL     1       0.724   1.537  -2.494  0.00  0.00    +0.066 C 
ATOM     22  C   UNL     1       1.679   1.140  -3.667  0.00  0.00    -0.064 C 
ATOM     23  N   UNL     1       1.091   1.635  -4.990  0.00  0.00    +0.379 N 
ATOM     24  C   UNL     1       2.015   1.314  -6.088  0.00  0.00    -0.096 C 
ATOM     25  H   UNL     1       1.010   2.745  -4.929  0.00  0.00    -0.082 HD
ATOM     26  C   UNL     1      -0.310   1.081  -5.207  0.00  0.00    -0.064 C 
ATOM     27  C   UNL     1      -1.243   1.457  -4.022  0.00  0.00    +0.066 C 
ENDBRANCH  19  20
ENDBRANCH  18  19
ENDBRANCH  14  15
ENDBRANCH  12  13
TORSDOF 6
ENDMDL
MODEL 3
REMARK VINA RESULT:     -10.9      2.056     12.787
REMARK  Name = C:\Users\Docking\Desktop\test protocol\1iep_ligandH.pdb
REMARK  8 active torsions:
REMARK  status: ('A' for Active; 'I' for Inactive)
REMARK    1  A    between atoms: _5  and  _11
REMARK    2  A    between atoms: _19  and  _21
REMARK    3  A    between atoms: _22  and  _66
REMARK    4  A    between atoms: _27  and  _30
REMARK    5  A    between atoms: _32  and  _33
REMARK    6  A    between atoms: _38  and  _43
REMARK    7  A    between atoms: _43  and  _46
REMARK    8  A    between atoms: _53  and  _55
REMARK                            x       y       z     vdW  Elec       q    Type
REMARK                         _______ _______ _______ _____ _____    ______ ____
ROOT
ATOM     10  C   UNL     1       1.518   3.856   8.237  0.00  0.00    +0.038 A 
ATOM     11  C   UNL     1       0.801   3.726   7.020  0.00  0.00    +0.047 A 
ATOM     12  C   UNL     1       1.306   2.900   5.934  0.00  0.00    +0.035 A 
ATOM     32  C   UNL     1       2.543   2.218   6.122  0.00  0.00    +0.024 A 
ATOM     33  C   UNL     1       3.285   2.340   7.353  0.00  0.00    +0.007 A 
ATOM     34  C   UNL     1       2.794   3.155   8.426  0.00  0.00    -0.029 A 
ATOM     35  C   UNL     1       3.635   3.254   9.721  0.00  0.00    +0.045 C 
ENDROOT
BRANCH  10   9
ATOM      4  C   UNL     1      -1.118   4.493  12.197  0.00  0.00    +0.077 A 
ATOM      5  C   UNL     1      -1.491   3.109  12.243  0.00  0.00    +0.048 A 
ATOM      6  C   UNL     1      -0.989   2.267  11.225  0.00  0.00    +0.116 A 
ATOM      7  N   UNL     1      -0.175   2.783  10.239  0.00  0.00    -0.223 NA
ATOM      8  C   UNL     1       0.164   4.123  10.223  0.00  0.00    +0.220 A 
ATOM      9  N   UNL     1       0.987   4.662   9.246  0.00  0.00    -0.283 N 
ATOM     36  H   UNL     1       1.208   5.657   9.265  0.00  0.00    +0.155 HD
ATOM     37  N   UNL     1      -0.304   4.948  11.183  0.00  0.00    -0.214 NA
BRANCH   4   3
ATOM      1  C   UNL     1      -2.132   7.864  13.904  0.00  0.00    +0.020 A 
ATOM      2  C   UNL     1      -1.695   6.926  12.895  0.00  0.00    +0.013 A 
ATOM      3  C   UNL     1      -1.566   5.507  13.203  0.00  0.00    +0.019 A 
ATOM     38  C   UNL     1      -1.891   5.066  14.551  0.00  0.00    +0.120 A 
ATOM     39  N   UNL     1      -2.308   5.993  15.502  0.00  0.00    -0.263 NA
ATOM     40  C   UNL     1      -2.434   7.361  15.218  0.00  0.00    +0.111 A 
ENDBRANCH   4   3
ENDBRANCH  10   9
BRANCH  12  13
ATOM     13  N   UNL     1       0.626   2.737   4.673  0.00  0.00    -0.281 N 
ATOM     14  C   UNL     1       1.005   3.223   3.432  0.00  0.00    +0.248 C 
ATOM     30  O   UNL     1       1.880   4.057   3.254  0.00  0.00    -0.270 OA
ATOM     31  H   UNL     1      -0.239   2.197   4.698  0.00  0.00    +0.155 HD
BRANCH  14  15
ATOM     15  C   UNL     1       0.300   2.720   2.214  0.00  0.00    +0.037 A 
ATOM     16  C   UNL     1       0.008   1.295   2.039  0.00  0.00    +0.013 A 
ATOM     17  C   UNL     1      -0.658   0.834   0.846  0.00  0.00    +0.005 A 
ATOM     18  C   UNL     1      -1.037   1.801  -0.181  0.00  0.00    -0.033 A 
ATOM     28  C   UNL     1      -0.739   3.209   0.020  0.00  0.00    +0.005 A 
ATOM     29  C   UNL     1      -0.086   3.664   1.187  0.00  0.00    +0.013 A 
BRANCH  18  19
ATOM     19  C   UNL     1      -1.731   1.396  -1.495  0.00  0.00    +0.119 C 
BRANCH  19  20
ATOM     20  N   UNL     1      -2.819   2.288  -1.996  0.00  0.00    -0.302 NA
ATOM     21  C   UNL     1      -4.158   2.004  -1.309  0.00  0.00    +0.066 C 
ATOM     22  C   UNL     1      -5.279   2.961  -1.830  0.00  0.00    -0.064 C 
ATOM     23  N   UNL     1      -5.407   2.815  -3.347  0.00  0.00    +0.379 N 
ATOM     24  C   UNL     1      -6.500   3.670  -3.832  0.00  0.00    -0.096 C 
ATOM     25  H   UNL     1      -5.685   1.757  -3.562  0.00  0.00    -0.082 HD
ATOM     26  C   UNL     1      -4.079   3.093  -4.038  0.00  0.00    -0.064 C 
ATOM     27  C   UNL     1      -2.965   2.156  -3.492  0.00  0.00    +0.066 C 
ENDBRANCH  19  20
ENDBRANCH  18  19
ENDBRANCH  14  15
ENDBRANCH  12  13
TORSDOF 6
ENDMDL
MODEL 4
REMARK VINA RESULT:      -9.8      5.904     10.301
REMARK  Name = C:\Users\Docking\Desktop\test protocol\1iep_ligandH.pdb
REMARK  8 active torsions:
REMARK  status: ('A' for Active; 'I' for Inactive)
REMARK    1  A    between atoms: _5  and  _11
REMARK    2  A    between atoms: _19  and  _21
REMARK    3  A    between atoms: _22  and  _66
REMARK    4  A    between atoms: _27  and  _30
REMARK    5  A    between atoms: _32  and  _33
REMARK    6  A    between atoms: _38  and  _43
REMARK    7  A    between atoms: _43  and  _46
REMARK    8  A    between atoms: _53  and  _55
REMARK                            x       y       z     vdW  Elec       q    Type
REMARK                         _______ _______ _______ _____ _____    ______ ____
ROOT
ATOM     10  C   UNL     1      -1.711   4.402  12.923  0.00  0.00    +0.038 A 
ATOM     11  C   UNL     1      -2.404   3.270  13.422  0.00  0.00    +0.047 A 
ATOM     12  C   UNL     1      -3.581   3.418  14.263  0.00  0.00    +0.035 A 
ATOM     32  C   UNL     1      -4.027   4.736  14.574  0.00  0.00    +0.024 A 
ATOM     33  C   UNL     1      -3.334   5.898  14.076  0.00  0.00    +0.007 A 
ATOM     34  C   UNL     1      -2.171   5.758  13.248  0.00  0.00    -0.029 A 
ATOM     35  C   UNL     1      -1.464   7.039  12.748  0.00  0.00    +0.045 C 
ENDROOT
BRANCH  10   9
ATOM      4  C   UNL     1       0.397   2.828   8.909  0.00  0.00    +0.077 A 
ATOM      5  C   UNL     1      -0.843   2.340   8.378  0.00  0.00    +0.048 A 
ATOM      6  C   UNL     1      -1.999   2.508   9.173  0.00  0.00    +0.116 A 
ATOM      7  N   UNL     1      -1.910   3.119  10.405  0.00  0.00    -0.223 NA
ATOM      8  C   UNL     1      -0.698   3.576  10.888  0.00  0.00    +0.220 A 
ATOM      9  N   UNL     1      -0.586   4.201  12.120  0.00  0.00    -0.283 N 
ATOM     36  H   UNL     1       0.328   4.518  12.444  0.00  0.00    +0.155 HD
ATOM     37  N   UNL     1       0.421   3.427  10.148  0.00  0.00    -0.214 NA
BRANCH   4   3
ATOM      1  C   UNL     1       4.197   2.341   8.118  0.00  0.00    +0.020 A 
ATOM      2  C   UNL     1       2.962   2.427   8.862  0.00  0.00    +0.013 A 
ATOM      3  C   UNL     1       1.705   2.728   8.187  0.00  0.00    +0.019 A 
ATOM     38  C   UNL     1       1.734   2.937   6.747  0.00  0.00    +0.120 A 
ATOM     39  N   UNL     1       2.939   2.849   6.057  0.00  0.00    -0.263 NA
ATOM     40  C   UNL     1       4.154   2.562   6.696  0.00  0.00    +0.111 A 
ENDBRANCH   4   3
ENDBRANCH  10   9
BRANCH  12  13
ATOM     13  N   UNL     1      -4.321   2.305  14.805  0.00  0.00    -0.281 N 
ATOM     14  C   UNL     1      -4.251   0.973  14.431  0.00  0.00    +0.248 C 
ATOM     30  O   UNL     1      -3.693   0.567  13.423  0.00  0.00    -0.270 OA
ATOM     31  H   UNL     1      -4.976   2.527  15.555  0.00  0.00    +0.155 HD
BRANCH  14  15
ATOM     15  C   UNL     1      -4.907  -0.055  15.296  0.00  0.00    +0.037 A 
ATOM     16  C   UNL     1      -5.855   0.328  16.345  0.00  0.00    +0.013 A 
ATOM     17  C   UNL     1      -6.461  -0.682  17.176  0.00  0.00    +0.005 A 
ATOM     18  C   UNL     1      -6.121  -2.086  16.959  0.00  0.00    -0.033 A 
ATOM     28  C   UNL     1      -5.181  -2.438  15.907  0.00  0.00    +0.005 A 
ATOM     29  C   UNL     1      -4.585  -1.451  15.092  0.00  0.00    +0.013 A 
BRANCH  18  19
ATOM     19  C   UNL     1      -6.703  -3.229  17.812  0.00  0.00    +0.119 C 
BRANCH  19  20
ATOM     20  N   UNL     1      -5.756  -3.976  18.692  0.00  0.00    -0.302 NA
ATOM     21  C   UNL     1      -4.606  -3.090  19.181  0.00  0.00    +0.066 C 
ATOM     22  C   UNL     1      -3.638  -3.882  20.119  0.00  0.00    -0.064 C 
ATOM     23  N   UNL     1      -3.100  -5.106  19.376  0.00  0.00    +0.379 N 
ATOM     24  C   UNL     1      -2.145  -5.821  20.235  0.00  0.00    -0.096 C 
ATOM     25  H   UNL     1      -2.544  -4.742  18.482  0.00  0.00    -0.082 HD
ATOM     26  C   UNL     1      -4.237  -5.991  18.885  0.00  0.00    -0.064 C 
ATOM     27  C   UNL     1      -5.210  -5.187  17.977  0.00  0.00    +0.066 C 
ENDBRANCH  19  20
ENDBRANCH  18  19
ENDBRANCH  14  15
ENDBRANCH  12  13
TORSDOF 6
ENDMDL
MODEL 5
REMARK VINA RESULT:      -9.8      3.980     12.507
REMARK  Name = C:\Users\Docking\Desktop\test protocol\1iep_ligandH.pdb
REMARK  8 active torsions:
REMARK  status: ('A' for Active; 'I' for Inactive)
REMARK    1  A    between atoms: _5  and  _11
REMARK    2  A    between atoms: _19  and  _21
REMARK    3  A    between atoms: _22  and  _66
REMARK    4  A    between atoms: _27  and  _30
REMARK    5  A    between atoms: _32  and  _33
REMARK    6  A    between atoms: _38  and  _43
REMARK    7  A    between atoms: _43  and  _46
REMARK    8  A    between atoms: _53  and  _55
REMARK                            x       y       z     vdW  Elec       q    Type
REMARK                         _______ _______ _______ _____ _____    ______ ____
ROOT
ATOM     10  C   UNL     1       1.291   3.680   4.375  0.00  0.00    +0.038 A 
ATOM     11  C   UNL     1       0.202   3.029   3.741  0.00  0.00    +0.047 A 
ATOM     12  C   UNL     1       0.352   2.413   2.432  0.00  0.00    +0.035 A 
ATOM     32  C   UNL     1       1.627   2.477   1.798  0.00  0.00    +0.024 A 
ATOM     33  C   UNL     1       2.744   3.135   2.427  0.00  0.00    +0.007 A 
ATOM     34  C   UNL     1       2.602   3.746   3.718  0.00  0.00    -0.029 A 
ATOM     35  C   UNL     1       3.832   4.444   4.342  0.00  0.00    +0.045 C 
ENDROOT
BRANCH  10   9
ATOM      4  C   UNL     1       1.519   3.559   9.168  0.00  0.00    +0.077 A 
ATOM      5  C   UNL     1       2.058   2.230   9.168  0.00  0.00    +0.048 A 
ATOM      6  C   UNL     1       2.254   1.609   7.914  0.00  0.00    +0.116 A 
ATOM      7  N   UNL     1       1.933   2.278   6.753  0.00  0.00    -0.223 NA
ATOM      8  C   UNL     1       1.414   3.559   6.788  0.00  0.00    +0.220 A 
ATOM      9  N   UNL     1       1.091   4.254   5.633  0.00  0.00    -0.283 N 
ATOM     36  H   UNL     1       0.703   5.194   5.701  0.00  0.00    +0.155 HD
ATOM     37  N   UNL     1       1.215   4.173   7.973  0.00  0.00    -0.214 NA
BRANCH   4   3
ATOM      1  C   UNL     1      -0.248   5.663  11.952  0.00  0.00    +0.020 A 
ATOM      2  C   UNL     1      -0.048   4.909  10.736  0.00  0.00    +0.013 A 
ATOM      3  C   UNL     1       1.258   4.348  10.413  0.00  0.00    +0.019 A 
ATOM     38  C   UNL     1       2.349   4.570  11.350  0.00  0.00    +0.120 A 
ATOM     39  N   UNL     1       2.128   5.302  12.512  0.00  0.00    -0.263 NA
ATOM     40  C   UNL     1       0.875   5.847  12.833  0.00  0.00    +0.111 A 
ENDBRANCH   4   3
ENDBRANCH  10   9
BRANCH  12  13
ATOM     13  N   UNL     1      -0.720   1.746   1.736  0.00  0.00    -0.281 N 
ATOM     14  C   UNL     1      -1.254   2.057   0.496  0.00  0.00    +0.248 C 
ATOM     30  O   UNL     1      -1.032   3.093  -0.112  0.00  0.00    -0.270 OA
ATOM     31  H   UNL     1      -1.136   0.947   2.216  0.00  0.00    +0.155 HD
BRANCH  14  15
ATOM     15  C   UNL     1      -2.180   1.081  -0.156  0.00  0.00    +0.037 A 
ATOM     16  C   UNL     1      -1.833   0.435  -1.424  0.00  0.00    +0.013 A 
ATOM     17  C   UNL     1      -2.752  -0.489  -2.041  0.00  0.00    +0.005 A 
ATOM     18  C   UNL     1      -4.027  -0.773  -1.388  0.00  0.00    -0.033 A 
ATOM     28  C   UNL     1      -4.344  -0.122  -0.128  0.00  0.00    +0.005 A 
ATOM     29  C   UNL     1      -3.447   0.785   0.479  0.00  0.00    +0.013 A 
BRANCH  18  19
ATOM     19  C   UNL     1      -5.077  -1.729  -1.984  0.00  0.00    +0.119 C 
BRANCH  19  20
ATOM     20  N   UNL     1      -5.131  -3.116  -1.432  0.00  0.00    -0.302 NA
ATOM     21  C   UNL     1      -6.116  -3.231  -0.265  0.00  0.00    +0.066 C 
ATOM     22  C   UNL     1      -6.176  -4.693   0.285  0.00  0.00    -0.064 C 
ATOM     23  N   UNL     1      -4.775  -5.133   0.713  0.00  0.00    +0.379 N 
ATOM     24  C   UNL     1      -4.838  -6.486   1.285  0.00  0.00    -0.096 C 
ATOM     25  H   UNL     1      -4.435  -4.440   1.518  0.00  0.00    -0.082 HD
ATOM     26  C   UNL     1      -3.789  -5.018  -0.440  0.00  0.00    -0.064 C 
ATOM     27  C   UNL     1      -3.758  -3.568  -0.999  0.00  0.00    +0.066 C 
ENDBRANCH  19  20
ENDBRANCH  18  19
ENDBRANCH  14  15
ENDBRANCH  12  13
TORSDOF 6
ENDMDL
