MODEL 1
REMARK VINA RESULT:     -11.7      0.000      0.000
REMARK  Name = C:\Users\Docking\Desktop\test protocol\1iep_ligandH.pdb
REMARK  8 active torsions:
REMARK  status: ('A' for Active; 'I' for Inactive)
REMARK    1  A    between atoms: _5  and  _11
REMARK    2  A    between atoms: _19  and  _21
REMARK    3  A    between atoms: _22  and  _66
REMARK    4  A    between atoms: _27  and  _30
REMARK    5  A    between atoms: _32  and  _33
REMARK    6  A    between atoms: _38  and  _43
REMARK    7  A    between atoms: _43  and  _46
REMARK    8  A    between atoms: _53  and  _55
REMARK                            x       y       z     vdW  Elec       q    Type
REMARK                         _______ _______ _______ _____ _____    ______ ____
ROOT
ATOM     10  C   UNL     1      32.448  25.095  15.534  0.00  0.00    +0.038 A 
ATOM     11  C   UNL     1      31.610  25.736  14.586  0.00  0.00    +0.047 A 
ATOM     12  C   UNL     1      30.943  24.980  13.538  0.00  0.00    +0.035 A 
ATOM     32  C   UNL     1      31.149  23.571  13.486  0.00  0.00    +0.024 A 
ATOM     33  C   UNL     1      31.998  22.902  14.440  0.00  0.00    +0.007 A 
ATOM     34  C   UNL     1      32.661  23.643  15.475  0.00  0.00    -0.029 A 
ATOM     35  C   UNL     1      33.565  22.875  16.467  0.00  0.00    +0.045 C 
ENDROOT
BRANCH  10   9
ATOM      4  C   UNL     1      34.492  29.161  17.058  0.00  0.00    +0.077 A 
ATOM      5  C   UNL     1      34.345  29.786  15.775  0.00  0.00    +0.048 A 
ATOM      6  C   UNL     1      33.744  29.024  14.748  0.00  0.00    +0.116 A 
ATOM      7  N   UNL     1      33.326  27.735  14.996  0.00  0.00    -0.223 NA
ATOM      8  C   UNL     1      33.485  27.162  16.245  0.00  0.00    +0.220 A 
ATOM      9  N   UNL     1      33.064  25.869  16.519  0.00  0.00    -0.283 N 
ATOM     36  H   UNL     1      33.206  25.480  17.451  0.00  0.00    +0.155 HD
ATOM     37  N   UNL     1      34.057  27.868  17.242  0.00  0.00    -0.214 NA
BRANCH   4   3
ATOM      1  C   UNL     1      36.287  29.807  20.473  0.00  0.00    +0.020 A 
ATOM      2  C   UNL     1      35.709  29.105  19.350  0.00  0.00    +0.013 A 
ATOM      3  C   UNL     1      35.105  29.838  18.245  0.00  0.00    +0.019 A 
ATOM     38  C   UNL     1      35.103  31.292  18.306  0.00  0.00    +0.120 A 
ATOM     39  N   UNL     1      35.666  31.940  19.400  0.00  0.00    -0.263 NA
ATOM     40  C   UNL     1      36.249  31.246  20.471  0.00  0.00    +0.111 A 
ENDBRANCH   4   3
ENDBRANCH  10   9
BRANCH  12  13
ATOM     13  N   UNL     1      30.087  25.578  12.544  0.00  0.00    -0.281 N 
ATOM     14  C   UNL     1      28.904  26.272  12.744  0.00  0.00    +0.248 C 
ATOM     30  O   UNL     1      28.289  26.299  13.799  0.00  0.00    -0.270 OA
ATOM     31  H   UNL     1      30.389  25.478  11.575  0.00  0.00    +0.155 HD
BRANCH  14  15
ATOM     15  C   UNL     1      28.312  27.033  11.602  0.00  0.00    +0.037 A 
ATOM     16  C   UNL     1      29.097  27.338  10.403  0.00  0.00    +0.013 A 
ATOM     17  C   UNL     1      28.507  28.090   9.324  0.00  0.00    +0.005 A 
ATOM     18  C   UNL     1      27.122  28.540   9.438  0.00  0.00    -0.033 A 
ATOM     28  C   UNL     1      26.364  28.219  10.637  0.00  0.00    +0.005 A 
ATOM     29  C   UNL     1      26.940  27.484  11.697  0.00  0.00    +0.013 A 
BRANCH  18  19
ATOM     19  C   UNL     1      26.417  29.365   8.345  0.00  0.00    +0.119 C 
BRANCH  19  20
ATOM     20  N   UNL     1      26.416  28.805   6.960  0.00  0.00    -0.302 NA
ATOM     21  C   UNL     1      27.462  29.479   6.068  0.00  0.00    +0.066 C 
ATOM     22  C   UNL     1      27.463  28.866   4.629  0.00  0.00    -0.064 C 
ATOM     23  N   UNL     1      26.066  28.998   4.021  0.00  0.00    +0.379 N 
ATOM     24  C   UNL     1      26.077  28.475   2.647  0.00  0.00    -0.096 C 
ATOM     25  H   UNL     1      25.822  30.085   3.968  0.00  0.00    -0.082 HD
ATOM     26  C   UNL     1      25.019  28.333   4.904  0.00  0.00    -0.064 C 
ATOM     27  C   UNL     1      25.047  28.930   6.339  0.00  0.00    +0.066 C 
ENDBRANCH  19  20
ENDBRANCH  18  19
ENDBRANCH  14  15
ENDBRANCH  12  13
TORSDOF 6
ENDMDL
MODEL 2
REMARK VINA RESULT:     -11.7      2.674      3.021
REMARK  Name = C:\Users\Docking\Desktop\test protocol\1iep_ligandH.pdb
REMARK  8 active torsions:
REMARK  status: ('A' for Active; 'I' for Inactive)
REMARK    1  A    between atoms: _5  and  _11
REMARK    2  A    between atoms: _19  and  _21
REMARK    3  A    between atoms: _22  and  _66
REMARK    4  A    between atoms: _27  and  _30
REMARK    5  A    between atoms: _32  and  _33
REMARK    6  A    between atoms: _38  and  _43
REMARK    7  A    between atoms: _43  and  _46
REMARK    8  A    between atoms: _53  and  _55
REMARK                            x       y       z     vdW  Elec       q    Type
REMARK                         _______ _______ _______ _____ _____    ______ ____
ROOT
ATOM     10  C   UNL     1      32.453  26.233  15.553  0.00  0.00    +0.038 A 
ATOM     11  C   UNL     1      31.600  26.831  14.591  0.00  0.00    +0.047 A 
ATOM     12  C   UNL     1      30.153  26.737  14.706  0.00  0.00    +0.035 A 
ATOM     32  C   UNL     1      29.608  26.028  15.816  0.00  0.00    +0.024 A 
ATOM     33  C   UNL     1      30.460  25.413  16.803  0.00  0.00    +0.007 A 
ATOM     34  C   UNL     1      31.888  25.500  16.693  0.00  0.00    -0.029 A 
ATOM     35  C   UNL     1      32.753  24.815  17.777  0.00  0.00    +0.045 C 
ENDROOT
BRANCH  10   9
ATOM      4  C   UNL     1      36.555  28.699  15.913  0.00  0.00    +0.077 A 
ATOM      5  C   UNL     1      35.884  29.853  16.438  0.00  0.00    +0.048 A 
ATOM      6  C   UNL     1      34.482  29.773  16.594  0.00  0.00    +0.116 A 
ATOM      7  N   UNL     1      33.811  28.621  16.247  0.00  0.00    -0.223 NA
ATOM      8  C   UNL     1      34.488  27.526  15.742  0.00  0.00    +0.220 A 
ATOM      9  N   UNL     1      33.835  26.354  15.394  0.00  0.00    -0.283 N 
ATOM     36  H   UNL     1      34.370  25.571  15.017  0.00  0.00    +0.155 HD
ATOM     37  N   UNL     1      35.827  27.577  15.582  0.00  0.00    -0.214 NA
BRANCH   4   3
ATOM      1  C   UNL     1      40.173  27.358  15.269  0.00  0.00    +0.020 A 
ATOM      2  C   UNL     1      38.743  27.372  15.476  0.00  0.00    +0.013 A 
ATOM      3  C   UNL     1      38.034  28.627  15.694  0.00  0.00    +0.019 A 
ATOM     38  C   UNL     1      38.807  29.860  15.695  0.00  0.00    +0.120 A 
ATOM     39  N   UNL     1      40.183  29.815  15.494  0.00  0.00    -0.263 NA
ATOM     40  C   UNL     1      40.877  28.614  15.285  0.00  0.00    +0.111 A 
ENDBRANCH   4   3
ENDBRANCH  10   9
BRANCH  12  13
ATOM     13  N   UNL     1      29.237  27.317  13.755  0.00  0.00    -0.281 N 
ATOM     14  C   UNL     1      29.411  28.462  12.995  0.00  0.00    +0.248 C 
ATOM     30  O   UNL     1      30.298  29.284  13.175  0.00  0.00    -0.270 OA
ATOM     31  H   UNL     1      28.353  26.824  13.628  0.00  0.00    +0.155 HD
BRANCH  14  15
ATOM     15  C   UNL     1      28.453  28.743  11.883  0.00  0.00    +0.037 A 
ATOM     16  C   UNL     1      27.345  27.831  11.586  0.00  0.00    +0.013 A 
ATOM     17  C   UNL     1      26.445  28.117  10.497  0.00  0.00    +0.005 A 
ATOM     18  C   UNL     1      26.650  29.321   9.696  0.00  0.00    -0.033 A 
ATOM     28  C   UNL     1      27.753  30.211  10.016  0.00  0.00    +0.005 A 
ATOM     29  C   UNL     1      28.638  29.934  11.082  0.00  0.00    +0.013 A 
BRANCH  18  19
ATOM     19  C   UNL     1      25.751  29.694   8.502  0.00  0.00    +0.119 C 
BRANCH  19  20
ATOM     20  N   UNL     1      26.023  29.010   7.202  0.00  0.00    -0.302 NA
ATOM     21  C   UNL     1      27.187  29.655   6.446  0.00  0.00    +0.066 C 
ATOM     22  C   UNL     1      27.472  28.913   5.099  0.00  0.00    -0.064 C 
ATOM     23  N   UNL     1      26.204  28.911   4.243  0.00  0.00    +0.379 N 
ATOM     24  C   UNL     1      26.485  28.265   2.953  0.00  0.00    -0.096 C 
ATOM     25  H   UNL     1      25.934  29.973   4.038  0.00  0.00    -0.082 HD
ATOM     26  C   UNL     1      25.041  28.274   4.989  0.00  0.00    -0.064 C 
ATOM     27  C   UNL     1      24.785  29.001   6.339  0.00  0.00    +0.066 C 
ENDBRANCH  19  20
ENDBRANCH  18  19
ENDBRANCH  14  15
ENDBRANCH  12  13
TORSDOF 6
ENDMDL
MODEL 3
REMARK VINA RESULT:     -11.6      4.238     14.060
REMARK  Name = C:\Users\Docking\Desktop\test protocol\1iep_ligandH.pdb
REMARK  8 active torsions:
REMARK  status: ('A' for Active; 'I' for Inactive)
REMARK    1  A    between atoms: _5  and  _11
REMARK    2  A    between atoms: _19  and  _21
REMARK    3  A    between atoms: _22  and  _66
REMARK    4  A    between atoms: _27  and  _30
REMARK    5  A    between atoms: _32  and  _33
REMARK    6  A    between atoms: _38  and  _43
REMARK    7  A    between atoms: _43  and  _46
REMARK    8  A    between atoms: _53  and  _55
REMARK                            x       y       z     vdW  Elec       q    Type
REMARK                         _______ _______ _______ _____ _____    ______ ____
ROOT
ATOM     10  C   UNL     1      27.774  28.351   3.607  0.00  0.00    +0.038 A 
ATOM     11  C   UNL     1      28.573  28.546   4.762  0.00  0.00    +0.047 A 
ATOM     12  C   UNL     1      27.968  28.781   6.064  0.00  0.00    +0.035 A 
ATOM     32  C   UNL     1      26.546  28.809   6.153  0.00  0.00    +0.024 A 
ATOM     33  C   UNL     1      25.719  28.613   4.989  0.00  0.00    +0.007 A 
ATOM     34  C   UNL     1      26.310  28.383   3.702  0.00  0.00    -0.029 A 
ATOM     35  C   UNL     1      25.374  28.186   2.486  0.00  0.00    +0.045 C 
ENDROOT
BRANCH  10   9
ATOM      4  C   UNL     1      30.144  29.890  -0.273  0.00  0.00    +0.077 A 
ATOM      5  C   UNL     1      30.092  31.255   0.164  0.00  0.00    +0.048 A 
ATOM      6  C   UNL     1      29.440  31.520   1.389  0.00  0.00    +0.116 A 
ATOM      7  N   UNL     1      28.885  30.488   2.115  0.00  0.00    -0.223 NA
ATOM      8  C   UNL     1      28.952  29.183   1.664  0.00  0.00    +0.220 A 
ATOM      9  N   UNL     1      28.408  28.129   2.382  0.00  0.00    -0.283 N 
ATOM     36  H   UNL     1      28.471  27.181   2.012  0.00  0.00    +0.155 HD
ATOM     37  N   UNL     1      29.567  28.904   0.496  0.00  0.00    -0.214 NA
BRANCH   4   3
ATOM      1  C   UNL     1      32.149  27.818  -2.916  0.00  0.00    +0.020 A 
ATOM      2  C   UNL     1      31.534  28.196  -1.665  0.00  0.00    +0.013 A 
ATOM      3  C   UNL     1      30.800  29.450  -1.545  0.00  0.00    +0.019 A 
ATOM     38  C   UNL     1      30.707  30.304  -2.719  0.00  0.00    +0.120 A 
ATOM     39  N   UNL     1      31.311  29.915  -3.910  0.00  0.00    -0.263 NA
ATOM     40  C   UNL     1      32.021  28.711  -4.037  0.00  0.00    +0.111 A 
ENDBRANCH   4   3
ENDBRANCH  10   9
BRANCH  12  13
ATOM     13  N   UNL     1      28.728  28.994   7.271  0.00  0.00    -0.281 N 
ATOM     14  C   UNL     1      28.552  29.983   8.225  0.00  0.00    +0.248 C 
ATOM     30  O   UNL     1      27.845  30.969   8.076  0.00  0.00    -0.270 OA
ATOM     31  H   UNL     1      29.488  28.336   7.443  0.00  0.00    +0.155 HD
BRANCH  14  15
ATOM     15  C   UNL     1      29.278  29.868   9.527  0.00  0.00    +0.037 A 
ATOM     16  C   UNL     1      28.570  29.990  10.804  0.00  0.00    +0.013 A 
ATOM     17  C   UNL     1      29.297  29.892  12.045  0.00  0.00    +0.005 A 
ATOM     18  C   UNL     1      30.740  29.669  12.014  0.00  0.00    -0.033 A 
ATOM     28  C   UNL     1      31.416  29.547  10.733  0.00  0.00    +0.005 A 
ATOM     29  C   UNL     1      30.707  29.644   9.515  0.00  0.00    +0.013 A 
BRANCH  18  19
ATOM     19  C   UNL     1      31.599  29.572  13.289  0.00  0.00    +0.119 C 
BRANCH  19  20
ATOM     20  N   UNL     1      31.751  28.223  13.911  0.00  0.00    -0.302 NA
ATOM     21  C   UNL     1      31.009  28.118  15.246  0.00  0.00    +0.066 C 
ATOM     22  C   UNL     1      31.160  26.693  15.870  0.00  0.00    -0.064 C 
ATOM     23  N   UNL     1      32.645  26.373  16.050  0.00  0.00    +0.379 N 
ATOM     24  C   UNL     1      32.790  25.057  16.691  0.00  0.00    -0.096 C 
ATOM     25  H   UNL     1      33.074  27.135  16.741  0.00  0.00    -0.082 HD
ATOM     26  C   UNL     1      33.392  26.478  14.727  0.00  0.00    -0.064 C 
ATOM     27  C   UNL     1      33.210  27.888  14.101  0.00  0.00    +0.066 C 
ENDBRANCH  19  20
ENDBRANCH  18  19
ENDBRANCH  14  15
ENDBRANCH  12  13
TORSDOF 6
ENDMDL
MODEL 4
REMARK VINA RESULT:     -11.5      3.698      6.824
REMARK  Name = C:\Users\Docking\Desktop\test protocol\1iep_ligandH.pdb
REMARK  8 active torsions:
REMARK  status: ('A' for Active; 'I' for Inactive)
REMARK    1  A    between atoms: _5  and  _11
REMARK    2  A    between atoms: _19  and  _21
REMARK    3  A    between atoms: _22  and  _66
REMARK    4  A    between atoms: _27  and  _30
REMARK    5  A    between atoms: _32  and  _33
REMARK    6  A    between atoms: _38  and  _43
REMARK    7  A    between atoms: _43  and  _46
REMARK    8  A    between atoms: _53  and  _55
REMARK                            x       y       z     vdW  Elec       q    Type
REMARK                         _______ _______ _______ _____ _____    ______ ____
ROOT
ATOM     10  C   UNL     1      28.702  27.646  10.795  0.00  0.00    +0.038 A 
ATOM     11  C   UNL     1      28.837  27.792   9.391  0.00  0.00    +0.047 A 
ATOM     12  C   UNL     1      27.685  28.076   8.549  0.00  0.00    +0.035 A 
ATOM     32  C   UNL     1      26.410  28.209   9.172  0.00  0.00    +0.024 A 
ATOM     33  C   UNL     1      26.254  28.063  10.598  0.00  0.00    +0.007 A 
ATOM     34  C   UNL     1      27.386  27.780  11.433  0.00  0.00    -0.029 A 
ATOM     35  C   UNL     1      27.159  27.628  12.955  0.00  0.00    +0.045 C 
ENDROOT
BRANCH  10   9
ATOM      4  C   UNL     1      32.376  29.025  13.559  0.00  0.00    +0.077 A 
ATOM      5  C   UNL     1      32.010  30.409  13.457  0.00  0.00    +0.048 A 
ATOM      6  C   UNL     1      30.874  30.724  12.679  0.00  0.00    +0.116 A 
ATOM      7  N   UNL     1      30.164  29.722  12.053  0.00  0.00    -0.223 NA
ATOM      8  C   UNL     1      30.545  28.398  12.170  0.00  0.00    +0.220 A 
ATOM      9  N   UNL     1      29.841  27.374  11.556  0.00  0.00    -0.283 N 
ATOM     36  H   UNL     1      30.159  26.410  11.660  0.00  0.00    +0.155 HD
ATOM     37  N   UNL     1      31.627  28.071  12.906  0.00  0.00    -0.214 NA
BRANCH   4   3
ATOM      1  C   UNL     1      35.242  26.771  14.973  0.00  0.00    +0.020 A 
ATOM      2  C   UNL     1      34.108  27.197  14.187  0.00  0.00    +0.013 A 
ATOM      3  C   UNL     1      33.549  28.533  14.347  0.00  0.00    +0.019 A 
ATOM     38  C   UNL     1      34.168  29.422  15.320  0.00  0.00    +0.120 A 
ATOM     39  N   UNL     1      35.259  28.984  16.064  0.00  0.00    -0.263 NA
ATOM     40  C   UNL     1      35.803  27.699  15.919  0.00  0.00    +0.111 A 
ENDBRANCH   4   3
ENDBRANCH  10   9
BRANCH  12  13
ATOM     13  N   UNL     1      27.761  28.226   7.117  0.00  0.00    -0.281 N 
ATOM     14  C   UNL     1      26.741  28.561   6.241  0.00  0.00    +0.248 C 
ATOM     30  O   UNL     1      25.555  28.573   6.534  0.00  0.00    -0.270 OA
ATOM     31  H   UNL     1      28.677  28.066   6.698  0.00  0.00    +0.155 HD
BRANCH  14  15
ATOM     15  C   UNL     1      27.088  28.919   4.832  0.00  0.00    +0.037 A 
ATOM     16  C   UNL     1      26.202  28.571   3.719  0.00  0.00    +0.013 A 
ATOM     17  C   UNL     1      26.569  28.913   2.368  0.00  0.00    +0.005 A 
ATOM     18  C   UNL     1      27.829  29.611   2.123  0.00  0.00    -0.033 A 
ATOM     28  C   UNL     1      28.687  29.949   3.246  0.00  0.00    +0.005 A 
ATOM     29  C   UNL     1      28.331  29.614   4.572  0.00  0.00    +0.013 A 
BRANCH  18  19
ATOM     19  C   UNL     1      28.310  29.997   0.712  0.00  0.00    +0.119 C 
BRANCH  19  20
ATOM     20  N   UNL     1      29.700  30.530   0.586  0.00  0.00    -0.302 NA
ATOM     21  C   UNL     1      29.714  32.033   0.294  0.00  0.00    +0.066 C 
ATOM     22  C   UNL     1      31.175  32.578   0.188  0.00  0.00    -0.064 C 
ATOM     23  N   UNL     1      31.926  31.809  -0.901  0.00  0.00    +0.379 N 
ATOM     24  C   UNL     1      33.282  32.358  -1.043  0.00  0.00    -0.096 C 
ATOM     25  H   UNL     1      31.390  31.976  -1.864  0.00  0.00    -0.082 HD
ATOM     26  C   UNL     1      31.914  30.312  -0.620  0.00  0.00    -0.064 C 
ATOM     27  C   UNL     1      30.457  29.787  -0.487  0.00  0.00    +0.066 C 
ENDBRANCH  19  20
ENDBRANCH  18  19
ENDBRANCH  14  15
ENDBRANCH  12  13
TORSDOF 6
ENDMDL
MODEL 5
REMARK VINA RESULT:     -11.1      3.638     11.564
REMARK  Name = C:\Users\Docking\Desktop\test protocol\1iep_ligandH.pdb
REMARK  8 active torsions:
REMARK  status: ('A' for Active; 'I' for Inactive)
REMARK    1  A    between atoms: _5  and  _11
REMARK    2  A    between atoms: _19  and  _21
REMARK    3  A    between atoms: _22  and  _66
REMARK    4  A    between atoms: _27  and  _30
REMARK    5  A    between atoms: _32  and  _33
REMARK    6  A    between atoms: _38  and  _43
REMARK    7  A    between atoms: _43  and  _46
REMARK    8  A    between atoms: _53  and  _55
REMARK                            x       y       z     vdW  Elec       q    Type
REMARK                         _______ _______ _______ _____ _____    ______ ____
ROOT
ATOM     10  C   UNL     1      31.533  26.944  11.197  0.00  0.00    +0.038 A 
ATOM     11  C   UNL     1      31.862  28.052  12.020  0.00  0.00    +0.047 A 
ATOM     12  C   UNL     1      32.544  27.868  13.292  0.00  0.00    +0.035 A 
ATOM     32  C   UNL     1      32.878  26.542  13.694  0.00  0.00    +0.024 A 
ATOM     33  C   UNL     1      32.550  25.405  12.871  0.00  0.00    +0.007 A 
ATOM     34  C   UNL     1      31.875  25.580  11.616  0.00  0.00    -0.029 A 
ATOM     35  C   UNL     1      31.542  24.324  10.778  0.00  0.00    +0.045 C 
ENDROOT
BRANCH  10   9
ATOM      4  C   UNL     1      27.656  28.180   8.651  0.00  0.00    +0.077 A 
ATOM      5  C   UNL     1      26.860  28.348   9.833  0.00  0.00    +0.048 A 
ATOM      6  C   UNL     1      27.484  28.099  11.076  0.00  0.00    +0.116 A 
ATOM      7  N   UNL     1      28.806  27.713  11.122  0.00  0.00    -0.223 NA
ATOM      8  C   UNL     1      29.545  27.559   9.963  0.00  0.00    +0.220 A 
ATOM      9  N   UNL     1      30.878  27.179   9.986  0.00  0.00    -0.283 N 
ATOM     36  H   UNL     1      31.386  27.069   9.109  0.00  0.00    +0.155 HD
ATOM     37  N   UNL     1      28.972  27.789   8.763  0.00  0.00    -0.214 NA
BRANCH   4   3
ATOM      1  C   UNL     1      25.280  28.804   5.607  0.00  0.00    +0.020 A 
ATOM      2  C   UNL     1      25.725  28.586   6.964  0.00  0.00    +0.013 A 
ATOM      3  C   UNL     1      27.141  28.408   7.264  0.00  0.00    +0.019 A 
ATOM     38  C   UNL     1      28.087  28.459   6.159  0.00  0.00    +0.120 A 
ATOM     39  N   UNL     1      27.628  28.669   4.863  0.00  0.00    -0.263 NA
ATOM     40  C   UNL     1      26.268  28.839   4.562  0.00  0.00    +0.111 A 
ENDBRANCH   4   3
ENDBRANCH  10   9
BRANCH  12  13
ATOM     13  N   UNL     1      32.896  28.954  14.173  0.00  0.00    -0.281 N 
ATOM     14  C   UNL     1      34.057  29.108  14.912  0.00  0.00    +0.248 C 
ATOM     30  O   UNL     1      34.883  28.225  15.095  0.00  0.00    -0.270 OA
ATOM     31  H   UNL     1      32.206  29.700  14.262  0.00  0.00    +0.155 HD
BRANCH  14  15
ATOM     15  C   UNL     1      34.335  30.429  15.555  0.00  0.00    +0.037 A 
ATOM     16  C   UNL     1      34.894  30.514  16.906  0.00  0.00    +0.013 A 
ATOM     17  C   UNL     1      35.136  31.801  17.509  0.00  0.00    +0.005 A 
ATOM     18  C   UNL     1      34.820  33.014  16.758  0.00  0.00    -0.033 A 
ATOM     28  C   UNL     1      34.271  32.900  15.417  0.00  0.00    +0.005 A 
ATOM     29  C   UNL     1      34.031  31.641  14.824  0.00  0.00    +0.013 A 
BRANCH  18  19
ATOM     19  C   UNL     1      35.026  34.429  17.331  0.00  0.00    +0.119 C 
BRANCH  19  20
ATOM     20  N   UNL     1      34.439  35.568  16.565  0.00  0.00    -0.302 NA
ATOM     21  C   UNL     1      35.325  35.988  15.389  0.00  0.00    +0.066 C 
ATOM     22  C   UNL     1      34.685  37.166  14.585  0.00  0.00    -0.064 C 
ATOM     23  N   UNL     1      34.439  38.347  15.526  0.00  0.00    +0.379 N 
ATOM     24  C   UNL     1      33.890  39.477  14.762  0.00  0.00    -0.096 C 
ATOM     25  H   UNL     1      35.425  38.663  15.937  0.00  0.00    -0.082 HD
ATOM     26  C   UNL     1      33.560  37.938  16.699  0.00  0.00    -0.064 C 
ATOM     27  C   UNL     1      34.191  36.747  17.474  0.00  0.00    +0.066 C 
ENDBRANCH  19  20
ENDBRANCH  18  19
ENDBRANCH  14  15
ENDBRANCH  12  13
TORSDOF 6
ENDMDL
