MODEL 1
REMARK VINA RESULT:     -11.0      0.000      0.000
REMARK  Name = C:\Users\Docking\Desktop\test protocol\1iep_ligandH.pdb
REMARK  8 active torsions:
REMARK  status: ('A' for Active; 'I' for Inactive)
REMARK    1  A    between atoms: _5  and  _11
REMARK    2  A    between atoms: _19  and  _21
REMARK    3  A    between atoms: _22  and  _66
REMARK    4  A    between atoms: _27  and  _30
REMARK    5  A    between atoms: _32  and  _33
REMARK    6  A    between atoms: _38  and  _43
REMARK    7  A    between atoms: _43  and  _46
REMARK    8  A    between atoms: _53  and  _55
REMARK                            x       y       z     vdW  Elec       q    Type
REMARK                         _______ _______ _______ _____ _____    ______ ____
ROOT
ATOM     10  C   UNL     1      27.165  28.258   8.051  0.00  0.00    +0.038 A 
ATOM     11  C   UNL     1      27.911  28.448   6.860  0.00  0.00    +0.047 A 
ATOM     12  C   UNL     1      27.395  29.262   5.770  0.00  0.00    +0.035 A 
ATOM     32  C   UNL     1      26.116  29.871   5.929  0.00  0.00    +0.024 A 
ATOM     33  C   UNL     1      25.343  29.688   7.132  0.00  0.00    +0.007 A 
ATOM     34  C   UNL     1      25.846  28.884   8.210  0.00  0.00    -0.029 A 
ATOM     35  C   UNL     1      24.972  28.717   9.474  0.00  0.00    +0.045 C 
ENDROOT
BRANCH  10   9
ATOM      4  C   UNL     1      29.645  27.713  12.124  0.00  0.00    +0.077 A 
ATOM      5  C   UNL     1      29.902  29.120  12.225  0.00  0.00    +0.048 A 
ATOM      6  C   UNL     1      29.385  29.950  11.205  0.00  0.00    +0.116 A 
ATOM      7  N   UNL     1      28.665  29.401  10.166  0.00  0.00    -0.223 NA
ATOM      8  C   UNL     1      28.436  28.039  10.097  0.00  0.00    +0.220 A 
ATOM      9  N   UNL     1      27.708  27.467   9.065  0.00  0.00    -0.283 N 
ATOM     36  H   UNL     1      27.568  26.457   9.047  0.00  0.00    +0.155 HD
ATOM     37  N   UNL     1      28.921  27.226  11.058  0.00  0.00    -0.214 NA
BRANCH   4   3
ATOM      1  C   UNL     1      30.939  24.410  13.773  0.00  0.00    +0.020 A 
ATOM      2  C   UNL     1      30.483  25.342  12.767  0.00  0.00    +0.013 A 
ATOM      3  C   UNL     1      30.123  26.708  13.125  0.00  0.00    +0.019 A 
ATOM     38  C   UNL     1      30.237  27.103  14.521  0.00  0.00    +0.120 A 
ATOM     39  N   UNL     1      30.678  26.184  15.468  0.00  0.00    -0.263 NA
ATOM     40  C   UNL     1      31.026  24.866  15.136  0.00  0.00    +0.111 A 
ENDBRANCH   4   3
ENDBRANCH  10   9
BRANCH  12  13
ATOM     13  N   UNL     1      28.103  29.483   4.534  0.00  0.00    -0.281 N 
ATOM     14  C   UNL     1      27.833  28.940   3.288  0.00  0.00    +0.248 C 
ATOM     30  O   UNL     1      27.066  28.010   3.092  0.00  0.00    -0.270 OA
ATOM     31  H   UNL     1      28.901  30.117   4.583  0.00  0.00    +0.155 HD
BRANCH  14  15
ATOM     15  C   UNL     1      28.526  29.503   2.090  0.00  0.00    +0.037 A 
ATOM     16  C   UNL     1      28.845  30.930   1.996  0.00  0.00    +0.013 A 
ATOM     17  C   UNL     1      29.499  31.450   0.821  0.00  0.00    +0.005 A 
ATOM     18  C   UNL     1      29.840  30.540  -0.270  0.00  0.00    -0.033 A 
ATOM     28  C   UNL     1      29.518  29.128  -0.148  0.00  0.00    +0.005 A 
ATOM     29  C   UNL     1      28.876  28.615   1.002  0.00  0.00    +0.013 A 
BRANCH  18  19
ATOM     19  C   UNL     1      30.520  31.010  -1.569  0.00  0.00    +0.119 C 
BRANCH  19  20
ATOM     20  N   UNL     1      29.911  30.567  -2.859  0.00  0.00    -0.302 NA
ATOM     21  C   UNL     1      30.887  30.699  -4.031  0.00  0.00    +0.066 C 
ATOM     22  C   UNL     1      30.241  30.210  -5.368  0.00  0.00    -0.064 C 
ATOM     23  N   UNL     1      28.963  31.008  -5.635  0.00  0.00    +0.379 N 
ATOM     24  C   UNL     1      28.384  30.590  -6.920  0.00  0.00    -0.096 C 
ATOM     25  H   UNL     1      29.247  32.082  -5.724  0.00  0.00    -0.082 HD
ATOM     26  C   UNL     1      27.987  30.884  -4.473  0.00  0.00    -0.064 C 
ATOM     27  C   UNL     1      28.649  31.344  -3.144  0.00  0.00    +0.066 C 
ENDBRANCH  19  20
ENDBRANCH  18  19
ENDBRANCH  14  15
ENDBRANCH  12  13
TORSDOF 6
ENDMDL
MODEL 2
REMARK VINA RESULT:     -10.5      1.836      2.763
REMARK  Name = C:\Users\Docking\Desktop\test protocol\1iep_ligandH.pdb
REMARK  8 active torsions:
REMARK  status: ('A' for Active; 'I' for Inactive)
REMARK    1  A    between atoms: _5  and  _11
REMARK    2  A    between atoms: _19  and  _21
REMARK    3  A    between atoms: _22  and  _66
REMARK    4  A    between atoms: _27  and  _30
REMARK    5  A    between atoms: _32  and  _33
REMARK    6  A    between atoms: _38  and  _43
REMARK    7  A    between atoms: _43  and  _46
REMARK    8  A    between atoms: _53  and  _55
REMARK                            x       y       z     vdW  Elec       q    Type
REMARK                         _______ _______ _______ _____ _____    ______ ____
ROOT
ATOM     10  C   UNL     1      27.215  28.232   8.053  0.00  0.00    +0.038 A 
ATOM     11  C   UNL     1      27.959  28.358   6.852  0.00  0.00    +0.047 A 
ATOM     12  C   UNL     1      27.466  29.159   5.742  0.00  0.00    +0.035 A 
ATOM     32  C   UNL     1      26.213  29.821   5.891  0.00  0.00    +0.024 A 
ATOM     33  C   UNL     1      25.443  29.703   7.104  0.00  0.00    +0.007 A 
ATOM     34  C   UNL     1      25.923  28.912   8.201  0.00  0.00    -0.029 A 
ATOM     35  C   UNL     1      25.052  28.816   9.476  0.00  0.00    +0.045 C 
ENDROOT
BRANCH  10   9
ATOM      4  C   UNL     1      29.654  27.716  12.154  0.00  0.00    +0.077 A 
ATOM      5  C   UNL     1      29.939  29.120  12.230  0.00  0.00    +0.048 A 
ATOM      6  C   UNL     1      29.446  29.939  11.190  0.00  0.00    +0.116 A 
ATOM      7  N   UNL     1      28.723  29.385  10.156  0.00  0.00    -0.223 NA
ATOM      8  C   UNL     1      28.467  28.027  10.112  0.00  0.00    +0.220 A 
ATOM      9  N   UNL     1      27.735  27.450   9.086  0.00  0.00    -0.283 N 
ATOM     36  H   UNL     1      27.575  26.443   9.086  0.00  0.00    +0.155 HD
ATOM     37  N   UNL     1      28.929  27.223  11.092  0.00  0.00    -0.214 NA
BRANCH   4   3
ATOM      1  C   UNL     1      30.931  24.439  13.867  0.00  0.00    +0.020 A 
ATOM      2  C   UNL     1      30.504  25.361  12.840  0.00  0.00    +0.013 A 
ATOM      3  C   UNL     1      30.104  26.721  13.178  0.00  0.00    +0.019 A 
ATOM     38  C   UNL     1      30.150  27.121  14.577  0.00  0.00    +0.120 A 
ATOM     39  N   UNL     1      30.564  26.211  15.545  0.00  0.00    -0.263 NA
ATOM     40  C   UNL     1      30.949  24.899  15.231  0.00  0.00    +0.111 A 
ENDBRANCH   4   3
ENDBRANCH  10   9
BRANCH  12  13
ATOM     13  N   UNL     1      28.174  29.317   4.495  0.00  0.00    -0.281 N 
ATOM     14  C   UNL     1      27.699  29.096   3.213  0.00  0.00    +0.248 C 
ATOM     30  O   UNL     1      26.653  28.520   2.953  0.00  0.00    -0.270 OA
ATOM     31  H   UNL     1      29.142  29.630   4.567  0.00  0.00    +0.155 HD
BRANCH  14  15
ATOM     15  C   UNL     1      28.511  29.570   2.051  0.00  0.00    +0.037 A 
ATOM     16  C   UNL     1      28.999  30.949   1.977  0.00  0.00    +0.013 A 
ATOM     17  C   UNL     1      29.765  31.385   0.837  0.00  0.00    +0.005 A 
ATOM     18  C   UNL     1      30.049  30.439  -0.239  0.00  0.00    -0.033 A 
ATOM     28  C   UNL     1      29.557  29.075  -0.138  0.00  0.00    +0.005 A 
ATOM     29  C   UNL     1      28.805  28.645   0.977  0.00  0.00    +0.013 A 
BRANCH  18  19
ATOM     19  C   UNL     1      30.841  30.823  -1.503  0.00  0.00    +0.119 C 
BRANCH  19  20
ATOM     20  N   UNL     1      32.288  31.149  -1.331  0.00  0.00    -0.302 NA
ATOM     21  C   UNL     1      32.984  31.402  -2.671  0.00  0.00    +0.066 C 
ATOM     22  C   UNL     1      34.492  31.764  -2.470  0.00  0.00    -0.064 C 
ATOM     23  N   UNL     1      35.186  30.637  -1.704  0.00  0.00    +0.379 N 
ATOM     24  C   UNL     1      36.617  30.947  -1.565  0.00  0.00    -0.096 C 
ATOM     25  H   UNL     1      35.099  29.709  -2.316  0.00  0.00    -0.082 HD
ATOM     26  C   UNL     1      34.499  30.377  -0.371  0.00  0.00    -0.064 C 
ATOM     27  C   UNL     1      32.995  30.047  -0.580  0.00  0.00    +0.066 C 
ENDBRANCH  19  20
ENDBRANCH  18  19
ENDBRANCH  14  15
ENDBRANCH  12  13
TORSDOF 6
ENDMDL
MODEL 3
REMARK VINA RESULT:      -9.6      7.637     14.909
REMARK  Name = C:\Users\Docking\Desktop\test protocol\1iep_ligandH.pdb
REMARK  8 active torsions:
REMARK  status: ('A' for Active; 'I' for Inactive)
REMARK    1  A    between atoms: _5  and  _11
REMARK    2  A    between atoms: _19  and  _21
REMARK    3  A    between atoms: _22  and  _66
REMARK    4  A    between atoms: _27  and  _30
REMARK    5  A    between atoms: _32  and  _33
REMARK    6  A    between atoms: _38  and  _43
REMARK    7  A    between atoms: _43  and  _46
REMARK    8  A    between atoms: _53  and  _55
REMARK                            x       y       z     vdW  Elec       q    Type
REMARK                         _______ _______ _______ _____ _____    ______ ____
ROOT
ATOM     10  C   UNL     1      30.244  29.375  12.578  0.00  0.00    +0.038 A 
ATOM     11  C   UNL     1      30.712  30.631  13.042  0.00  0.00    +0.047 A 
ATOM     12  C   UNL     1      31.856  30.725  13.935  0.00  0.00    +0.035 A 
ATOM     32  C   UNL     1      32.502  29.518  14.334  0.00  0.00    +0.024 A 
ATOM     33  C   UNL     1      32.039  28.233  13.873  0.00  0.00    +0.007 A 
ATOM     34  C   UNL     1      30.909  28.135  12.993  0.00  0.00    -0.029 A 
ATOM     35  C   UNL     1      30.452  26.730  12.535  0.00  0.00    +0.045 C 
ENDROOT
BRANCH  10   9
ATOM      4  C   UNL     1      28.283  29.451   8.197  0.00  0.00    +0.077 A 
ATOM      5  C   UNL     1      29.562  29.591   7.563  0.00  0.00    +0.048 A 
ATOM      6  C   UNL     1      30.699  29.647   8.400  0.00  0.00    +0.116 A 
ATOM      7  N   UNL     1      30.556  29.567   9.768  0.00  0.00    -0.223 NA
ATOM      8  C   UNL     1      29.308  29.434  10.348  0.00  0.00    +0.220 A 
ATOM      9  N   UNL     1      29.141  29.344  11.721  0.00  0.00    -0.283 N 
ATOM     36  H   UNL     1      28.203  29.254  12.110  0.00  0.00    +0.155 HD
ATOM     37  N   UNL     1      28.206  29.380   9.570  0.00  0.00    -0.214 NA
BRANCH   4   3
ATOM      1  C   UNL     1      24.473  29.497   7.313  0.00  0.00    +0.020 A 
ATOM      2  C   UNL     1      25.693  29.582   8.082  0.00  0.00    +0.013 A 
ATOM      3  C   UNL     1      26.989  29.374   7.448  0.00  0.00    +0.019 A 
ATOM     38  C   UNL     1      27.016  29.080   6.023  0.00  0.00    +0.120 A 
ATOM     39  N   UNL     1      25.824  29.003   5.309  0.00  0.00    -0.263 NA
ATOM     40  C   UNL     1      24.571  29.200   5.908  0.00  0.00    +0.111 A 
ENDBRANCH   4   3
ENDBRANCH  10   9
BRANCH  12  13
ATOM     13  N   UNL     1      32.372  31.971  14.445  0.00  0.00    -0.281 N 
ATOM     14  C   UNL     1      33.410  32.160  15.342  0.00  0.00    +0.248 C 
ATOM     30  O   UNL     1      33.916  31.270  16.010  0.00  0.00    -0.270 OA
ATOM     31  H   UNL     1      31.915  32.817  14.103  0.00  0.00    +0.155 HD
BRANCH  14  15
ATOM     15  C   UNL     1      33.955  33.538  15.537  0.00  0.00    +0.037 A 
ATOM     16  C   UNL     1      35.106  33.784  16.409  0.00  0.00    +0.013 A 
ATOM     17  C   UNL     1      35.601  35.125  16.593  0.00  0.00    +0.005 A 
ATOM     18  C   UNL     1      34.945  36.231  15.899  0.00  0.00    -0.033 A 
ATOM     28  C   UNL     1      33.808  35.958  15.035  0.00  0.00    +0.005 A 
ATOM     29  C   UNL     1      33.320  34.645  14.854  0.00  0.00    +0.013 A 
BRANCH  18  19
ATOM     19  C   UNL     1      35.392  37.697  16.053  0.00  0.00    +0.119 C 
BRANCH  19  20
ATOM     20  N   UNL     1      35.099  38.369  17.354  0.00  0.00    -0.302 NA
ATOM     21  C   UNL     1      33.634  38.205  17.767  0.00  0.00    +0.066 C 
ATOM     22  C   UNL     1      33.350  38.895  19.142  0.00  0.00    -0.064 C 
ATOM     23  N   UNL     1      33.726  40.375  19.054  0.00  0.00    +0.379 N 
ATOM     24  C   UNL     1      33.406  41.039  20.326  0.00  0.00    -0.096 C 
ATOM     25  H   UNL     1      33.092  40.838  18.262  0.00  0.00    -0.082 HD
ATOM     26  C   UNL     1      35.181  40.547  18.640  0.00  0.00    -0.064 C 
ATOM     27  C   UNL     1      35.459  39.833  17.288  0.00  0.00    +0.066 C 
ENDBRANCH  19  20
ENDBRANCH  18  19
ENDBRANCH  14  15
ENDBRANCH  12  13
TORSDOF 6
ENDMDL
MODEL 4
REMARK VINA RESULT:      -9.6      3.906     12.372
REMARK  Name = C:\Users\Docking\Desktop\test protocol\1iep_ligandH.pdb
REMARK  8 active torsions:
REMARK  status: ('A' for Active; 'I' for Inactive)
REMARK    1  A    between atoms: _5  and  _11
REMARK    2  A    between atoms: _19  and  _21
REMARK    3  A    between atoms: _22  and  _66
REMARK    4  A    between atoms: _27  and  _30
REMARK    5  A    between atoms: _32  and  _33
REMARK    6  A    between atoms: _38  and  _43
REMARK    7  A    between atoms: _43  and  _46
REMARK    8  A    between atoms: _53  and  _55
REMARK                            x       y       z     vdW  Elec       q    Type
REMARK                         _______ _______ _______ _____ _____    ______ ____
ROOT
ATOM     10  C   UNL     1      30.739  29.891  -0.524  0.00  0.00    +0.038 A 
ATOM     11  C   UNL     1      30.159  29.763   0.764  0.00  0.00    +0.047 A 
ATOM     12  C   UNL     1      28.757  30.076   0.993  0.00  0.00    +0.035 A 
ATOM     32  C   UNL     1      27.974  30.515  -0.114  0.00  0.00    +0.024 A 
ATOM     33  C   UNL     1      28.547  30.651  -1.430  0.00  0.00    +0.007 A 
ATOM     34  C   UNL     1      29.930  30.346  -1.661  0.00  0.00    -0.029 A 
ATOM     35  C   UNL     1      30.493  30.517  -3.091  0.00  0.00    +0.045 C 
ENDROOT
BRANCH  10   9
ATOM      4  C   UNL     1      35.407  30.917  -0.081  0.00  0.00    +0.077 A 
ATOM      5  C   UNL     1      35.130  32.199   0.499  0.00  0.00    +0.048 A 
ATOM      6  C   UNL     1      33.774  32.560   0.660  0.00  0.00    +0.116 A 
ATOM      7  N   UNL     1      32.776  31.695   0.267  0.00  0.00    -0.223 NA
ATOM      8  C   UNL     1      33.077  30.466  -0.291  0.00  0.00    +0.220 A 
ATOM      9  N   UNL     1      32.090  29.576  -0.687  0.00  0.00    -0.283 N 
ATOM     36  H   UNL     1      32.353  28.682  -1.101  0.00  0.00    +0.155 HD
ATOM     37  N   UNL     1      34.365  30.099  -0.457  0.00  0.00    -0.214 NA
BRANCH   4   3
ATOM      1  C   UNL     1      39.182  30.009   0.388  0.00  0.00    +0.020 A 
ATOM      2  C   UNL     1      37.865  30.535   0.661  0.00  0.00    +0.013 A 
ATOM      3  C   UNL     1      36.790  30.392  -0.313  0.00  0.00    +0.019 A 
ATOM     38  C   UNL     1      37.083  29.705  -1.561  0.00  0.00    +0.120 A 
ATOM     39  N   UNL     1      38.362  29.210  -1.797  0.00  0.00    -0.263 NA
ATOM     40  C   UNL     1      39.405  29.344  -0.868  0.00  0.00    +0.111 A 
ENDBRANCH   4   3
ENDBRANCH  10   9
BRANCH  12  13
ATOM     13  N   UNL     1      28.116  29.973   2.280  0.00  0.00    -0.281 N 
ATOM     14  C   UNL     1      27.699  28.825   2.934  0.00  0.00    +0.248 C 
ATOM     30  O   UNL     1      27.622  27.722   2.414  0.00  0.00    -0.270 OA
ATOM     31  H   UNL     1      27.948  30.853   2.768  0.00  0.00    +0.155 HD
BRANCH  14  15
ATOM     15  C   UNL     1      27.296  28.919   4.371  0.00  0.00    +0.037 A 
ATOM     16  C   UNL     1      25.925  28.628   4.796  0.00  0.00    +0.013 A 
ATOM     17  C   UNL     1      25.559  28.743   6.185  0.00  0.00    +0.005 A 
ATOM     18  C   UNL     1      26.567  29.149   7.160  0.00  0.00    -0.033 A 
ATOM     28  C   UNL     1      27.922  29.427   6.712  0.00  0.00    +0.005 A 
ATOM     29  C   UNL     1      28.284  29.317   5.351  0.00  0.00    +0.013 A 
BRANCH  18  19
ATOM     19  C   UNL     1      26.260  29.318   8.660  0.00  0.00    +0.119 C 
BRANCH  19  20
ATOM     20  N   UNL     1      27.216  28.700   9.628  0.00  0.00    -0.302 NA
ATOM     21  C   UNL     1      26.501  27.831  10.666  0.00  0.00    +0.066 C 
ATOM     22  C   UNL     1      27.518  27.175  11.656  0.00  0.00    -0.064 C 
ATOM     23  N   UNL     1      28.339  28.269  12.339  0.00  0.00    +0.379 N 
ATOM     24  C   UNL     1      29.256  27.659  13.313  0.00  0.00    -0.096 C 
ATOM     25  H   UNL     1      27.632  28.921  12.902  0.00  0.00    -0.082 HD
ATOM     26  C   UNL     1      29.052  29.140  11.313  0.00  0.00    -0.064 C 
ATOM     27  C   UNL     1      28.035  29.764  10.317  0.00  0.00    +0.066 C 
ENDBRANCH  19  20
ENDBRANCH  18  19
ENDBRANCH  14  15
ENDBRANCH  12  13
TORSDOF 6
ENDMDL
MODEL 5
REMARK VINA RESULT:      -9.4      3.715     13.476
REMARK  Name = C:\Users\Docking\Desktop\test protocol\1iep_ligandH.pdb
REMARK  8 active torsions:
REMARK  status: ('A' for Active; 'I' for Inactive)
REMARK    1  A    between atoms: _5  and  _11
REMARK    2  A    between atoms: _19  and  _21
REMARK    3  A    between atoms: _22  and  _66
REMARK    4  A    between atoms: _27  and  _30
REMARK    5  A    between atoms: _32  and  _33
REMARK    6  A    between atoms: _38  and  _43
REMARK    7  A    between atoms: _43  and  _46
REMARK    8  A    between atoms: _53  and  _55
REMARK                            x       y       z     vdW  Elec       q    Type
REMARK                         _______ _______ _______ _____ _____    ______ ____
ROOT
ATOM     10  C   UNL     1      29.565  31.575  -0.604  0.00  0.00    +0.038 A 
ATOM     11  C   UNL     1      29.128  31.459   0.740  0.00  0.00    +0.047 A 
ATOM     12  C   UNL     1      28.912  30.157   1.352  0.00  0.00    +0.035 A 
ATOM     32  C   UNL     1      29.155  28.993   0.566  0.00  0.00    +0.024 A 
ATOM     33  C   UNL     1      29.598  29.092  -0.803  0.00  0.00    +0.007 A 
ATOM     34  C   UNL     1      29.810  30.374  -1.412  0.00  0.00    -0.029 A 
ATOM     35  C   UNL     1      30.280  30.421  -2.884  0.00  0.00    +0.045 C 
ENDROOT
BRANCH  10   9
ATOM      4  C   UNL     1      32.111  35.609  -1.126  0.00  0.00    +0.077 A 
ATOM      5  C   UNL     1      33.136  35.149  -0.233  0.00  0.00    +0.048 A 
ATOM      6  C   UNL     1      32.965  33.871   0.345  0.00  0.00    +0.116 A 
ATOM      7  N   UNL     1      31.851  33.118   0.045  0.00  0.00    -0.223 NA
ATOM      8  C   UNL     1      30.881  33.593  -0.819  0.00  0.00    +0.220 A 
ATOM      9  N   UNL     1      29.756  32.850  -1.141  0.00  0.00    -0.283 N 
ATOM     36  H   UNL     1      29.060  33.239  -1.776  0.00  0.00    +0.155 HD
ATOM     37  N   UNL     1      31.019  34.811  -1.383  0.00  0.00    -0.214 NA
BRANCH   4   3
ATOM      1  C   UNL     1      33.012  38.509  -3.593  0.00  0.00    +0.020 A 
ATOM      2  C   UNL     1      33.013  37.210  -2.960  0.00  0.00    +0.013 A 
ATOM      3  C   UNL     1      32.150  36.937  -1.818  0.00  0.00    +0.019 A 
ATOM     38  C   UNL     1      31.289  38.007  -1.338  0.00  0.00    +0.120 A 
ATOM     39  N   UNL     1      31.310  39.248  -1.967  0.00  0.00    -0.263 NA
ATOM     40  C   UNL     1      32.138  39.524  -3.065  0.00  0.00    +0.111 A 
ENDBRANCH   4   3
ENDBRANCH  10   9
BRANCH  12  13
ATOM     13  N   UNL     1      28.461  29.977   2.709  0.00  0.00    -0.281 N 
ATOM     14  C   UNL     1      27.393  29.218   3.159  0.00  0.00    +0.248 C 
ATOM     30  O   UNL     1      26.528  28.746   2.435  0.00  0.00    -0.270 OA
ATOM     31  H   UNL     1      28.994  30.469   3.427  0.00  0.00    +0.155 HD
BRANCH  14  15
ATOM     15  C   UNL     1      27.258  28.957   4.624  0.00  0.00    +0.037 A 
ATOM     16  C   UNL     1      28.433  28.719   5.465  0.00  0.00    +0.013 A 
ATOM     17  C   UNL     1      28.274  28.453   6.873  0.00  0.00    +0.005 A 
ATOM     18  C   UNL     1      26.931  28.426   7.449  0.00  0.00    -0.033 A 
ATOM     28  C   UNL     1      25.783  28.671   6.592  0.00  0.00    +0.005 A 
ATOM     29  C   UNL     1      25.935  28.931   5.212  0.00  0.00    +0.013 A 
BRANCH  18  19
ATOM     19  C   UNL     1      26.665  28.130   8.937  0.00  0.00    +0.119 C 
BRANCH  19  20
ATOM     20  N   UNL     1      27.819  28.258   9.876  0.00  0.00    -0.302 NA
ATOM     21  C   UNL     1      27.628  27.414  11.139  0.00  0.00    +0.066 C 
ATOM     22  C   UNL     1      28.854  27.543  12.101  0.00  0.00    -0.064 C 
ATOM     23  N   UNL     1      29.065  29.015  12.460  0.00  0.00    +0.379 N 
ATOM     24  C   UNL     1      30.181  29.133  13.410  0.00  0.00    -0.096 C 
ATOM     25  H   UNL     1      28.143  29.372  12.975  0.00  0.00    -0.082 HD
ATOM     26  C   UNL     1      29.253  29.862  11.210  0.00  0.00    -0.064 C 
ATOM     27  C   UNL     1      28.042  29.704  10.248  0.00  0.00    +0.066 C 
ENDBRANCH  19  20
ENDBRANCH  18  19
ENDBRANCH  14  15
ENDBRANCH  12  13
TORSDOF 6
ENDMDL
