MODEL 1
REMARK VINA RESULT:      -9.4      0.000      0.000
REMARK  Name = C:\Users\Docking\Desktop\test protocol\1iep_ligandH.pdb
REMARK  8 active torsions:
REMARK  status: ('A' for Active; 'I' for Inactive)
REMARK    1  A    between atoms: _5  and  _11
REMARK    2  A    between atoms: _19  and  _21
REMARK    3  A    between atoms: _22  and  _66
REMARK    4  A    between atoms: _27  and  _30
REMARK    5  A    between atoms: _32  and  _33
REMARK    6  A    between atoms: _38  and  _43
REMARK    7  A    between atoms: _43  and  _46
REMARK    8  A    between atoms: _53  and  _55
REMARK                            x       y       z     vdW  Elec       q    Type
REMARK                         _______ _______ _______ _____ _____    ______ ____
ROOT
ATOM     10  C   UNL     1      27.344 -38.720 -40.196  0.00  0.00    +0.038 A 
ATOM     11  C   UNL     1      28.647 -39.139 -39.823  0.00  0.00    +0.047 A 
ATOM     12  C   UNL     1      28.998 -40.549 -39.771  0.00  0.00    +0.035 A 
ATOM     32  C   UNL     1      27.998 -41.507 -40.107  0.00  0.00    +0.024 A 
ATOM     33  C   UNL     1      26.668 -41.099 -40.487  0.00  0.00    +0.007 A 
ATOM     34  C   UNL     1      26.315 -39.709 -40.538  0.00  0.00    -0.029 A 
ATOM     35  C   UNL     1      24.872 -39.330 -40.945  0.00  0.00    +0.045 C 
ENDROOT
BRANCH  10   9
ATOM      4  C   UNL     1      26.178 -34.585 -38.055  0.00  0.00    +0.077 A 
ATOM      5  C   UNL     1      26.098 -35.207 -36.765  0.00  0.00    +0.048 A 
ATOM      6  C   UNL     1      26.357 -36.594 -36.696  0.00  0.00    +0.116 A 
ATOM      7  N   UNL     1      26.672 -37.297 -37.839  0.00  0.00    -0.223 NA
ATOM      8  C   UNL     1      26.739 -36.667 -39.068  0.00  0.00    +0.220 A 
ATOM      9  N   UNL     1      27.062 -37.353 -40.229  0.00  0.00    -0.283 N 
ATOM     36  H   UNL     1      27.094 -36.853 -41.117  0.00  0.00    +0.155 HD
ATOM     37  N   UNL     1      26.494 -35.343 -39.161  0.00  0.00    -0.214 NA
BRANCH   4   3
ATOM      1  C   UNL     1      24.419 -31.125 -38.543  0.00  0.00    +0.020 A 
ATOM      2  C   UNL     1      24.600 -32.540 -38.313  0.00  0.00    +0.013 A 
ATOM      3  C   UNL     1      25.934 -33.127 -38.290  0.00  0.00    +0.019 A 
ATOM     38  C   UNL     1      27.073 -32.247 -38.504  0.00  0.00    +0.120 A 
ATOM     39  N   UNL     1      26.868 -30.889 -38.725  0.00  0.00    -0.263 NA
ATOM     40  C   UNL     1      25.589 -30.313 -38.751  0.00  0.00    +0.111 A 
ENDBRANCH   4   3
ENDBRANCH  10   9
BRANCH  12  13
ATOM     13  N   UNL     1      30.302 -41.034 -39.392  0.00  0.00    -0.281 N 
ATOM     14  C   UNL     1      31.364 -41.359 -40.220  0.00  0.00    +0.248 C 
ATOM     30  O   UNL     1      31.280 -41.486 -41.433  0.00  0.00    -0.270 OA
ATOM     31  H   UNL     1      30.462 -41.152 -38.391  0.00  0.00    +0.155 HD
BRANCH  14  15
ATOM     15  C   UNL     1      32.709 -41.591 -39.613  0.00  0.00    +0.037 A 
ATOM     16  C   UNL     1      33.457 -42.825 -39.870  0.00  0.00    +0.013 A 
ATOM     17  C   UNL     1      34.745 -43.031 -39.257  0.00  0.00    +0.005 A 
ATOM     18  C   UNL     1      35.295 -41.999 -38.382  0.00  0.00    -0.033 A 
ATOM     28  C   UNL     1      34.535 -40.782 -38.148  0.00  0.00    +0.005 A 
ATOM     29  C   UNL     1      33.271 -40.577 -38.746  0.00  0.00    +0.013 A 
BRANCH  18  19
ATOM     19  C   UNL     1      36.653 -42.143 -37.669  0.00  0.00    +0.119 C 
BRANCH  19  20
ATOM     20  N   UNL     1      37.817 -41.422 -38.264  0.00  0.00    -0.302 NA
ATOM     21  C   UNL     1      37.972 -40.010 -37.692  0.00  0.00    +0.066 C 
ATOM     22  C   UNL     1      39.209 -39.278 -38.308  0.00  0.00    -0.064 C 
ATOM     23  N   UNL     1      39.064 -39.232 -39.831  0.00  0.00    +0.379 N 
ATOM     24  C   UNL     1      40.195 -38.494 -40.409  0.00  0.00    -0.096 C 
ATOM     25  H   UNL     1      38.134 -38.664 -40.064  0.00  0.00    -0.082 HD
ATOM     26  C   UNL     1      38.906 -40.632 -40.408  0.00  0.00    -0.064 C 
ATOM     27  C   UNL     1      37.693 -41.361 -39.767  0.00  0.00    +0.066 C 
ENDBRANCH  19  20
ENDBRANCH  18  19
ENDBRANCH  14  15
ENDBRANCH  12  13
TORSDOF 6
ENDMDL
MODEL 2
REMARK VINA RESULT:      -9.1      1.884      2.566
REMARK  Name = C:\Users\Docking\Desktop\test protocol\1iep_ligandH.pdb
REMARK  8 active torsions:
REMARK  status: ('A' for Active; 'I' for Inactive)
REMARK    1  A    between atoms: _5  and  _11
REMARK    2  A    between atoms: _19  and  _21
REMARK    3  A    between atoms: _22  and  _66
REMARK    4  A    between atoms: _27  and  _30
REMARK    5  A    between atoms: _32  and  _33
REMARK    6  A    between atoms: _38  and  _43
REMARK    7  A    between atoms: _43  and  _46
REMARK    8  A    between atoms: _53  and  _55
REMARK                            x       y       z     vdW  Elec       q    Type
REMARK                         _______ _______ _______ _____ _____    ______ ____
ROOT
ATOM     10  C   UNL     1      27.899 -39.191 -39.428  0.00  0.00    +0.038 A 
ATOM     11  C   UNL     1      29.306 -39.234 -39.257  0.00  0.00    +0.047 A 
ATOM     12  C   UNL     1      30.057 -40.457 -39.495  0.00  0.00    +0.035 A 
ATOM     32  C   UNL     1      29.343 -41.618 -39.909  0.00  0.00    +0.024 A 
ATOM     33  C   UNL     1      27.912 -41.594 -40.087  0.00  0.00    +0.007 A 
ATOM     34  C   UNL     1      27.166 -40.391 -39.851  0.00  0.00    -0.029 A 
ATOM     35  C   UNL     1      25.633 -40.424 -40.052  0.00  0.00    +0.045 C 
ENDROOT
BRANCH  10   9
ATOM      4  C   UNL     1      27.819 -34.423 -38.887  0.00  0.00    +0.077 A 
ATOM      5  C   UNL     1      29.238 -34.318 -39.077  0.00  0.00    +0.048 A 
ATOM      6  C   UNL     1      29.952 -35.516 -39.304  0.00  0.00    +0.116 A 
ATOM      7  N   UNL     1      29.287 -36.723 -39.337  0.00  0.00    -0.223 NA
ATOM      8  C   UNL     1      27.919 -36.789 -39.149  0.00  0.00    +0.220 A 
ATOM      9  N   UNL     1      27.229 -37.990 -39.186  0.00  0.00    -0.283 N 
ATOM     36  H   UNL     1      26.220 -37.998 -39.035  0.00  0.00    +0.155 HD
ATOM     37  N   UNL     1      27.214 -35.659 -38.929  0.00  0.00    -0.214 NA
BRANCH   4   3
ATOM      1  C   UNL     1      26.455 -30.769 -38.590  0.00  0.00    +0.020 A 
ATOM      2  C   UNL     1      27.357 -31.869 -38.842  0.00  0.00    +0.013 A 
ATOM      3  C   UNL     1      26.926 -33.247 -38.641  0.00  0.00    +0.019 A 
ATOM     38  C   UNL     1      25.565 -33.479 -38.182  0.00  0.00    +0.120 A 
ATOM     39  N   UNL     1      24.719 -32.400 -37.946  0.00  0.00    -0.263 NA
ATOM     40  C   UNL     1      25.123 -31.070 -38.134  0.00  0.00    +0.111 A 
ENDBRANCH   4   3
ENDBRANCH  10   9
BRANCH  12  13
ATOM     13  N   UNL     1      31.486 -40.561 -39.329  0.00  0.00    -0.281 N 
ATOM     14  C   UNL     1      32.183 -41.358 -38.437  0.00  0.00    +0.248 C 
ATOM     30  O   UNL     1      31.676 -41.947 -37.493  0.00  0.00    -0.270 OA
ATOM     31  H   UNL     1      32.051 -39.977 -39.945  0.00  0.00    +0.155 HD
BRANCH  14  15
ATOM     15  C   UNL     1      33.660 -41.512 -38.608  0.00  0.00    +0.037 A 
ATOM     16  C   UNL     1      34.597 -40.541 -38.036  0.00  0.00    +0.013 A 
ATOM     17  C   UNL     1      36.016 -40.704 -38.231  0.00  0.00    +0.005 A 
ATOM     18  C   UNL     1      36.507 -41.845 -39.000  0.00  0.00    -0.033 A 
ATOM     28  C   UNL     1      35.556 -42.796 -39.551  0.00  0.00    +0.005 A 
ATOM     29  C   UNL     1      34.164 -42.639 -39.363  0.00  0.00    +0.013 A 
BRANCH  18  19
ATOM     19  C   UNL     1      38.003 -42.086 -39.275  0.00  0.00    +0.119 C 
BRANCH  19  20
ATOM     20  N   UNL     1      38.522 -41.697 -40.620  0.00  0.00    -0.302 NA
ATOM     21  C   UNL     1      39.530 -42.714 -41.163  0.00  0.00    +0.066 C 
ATOM     22  C   UNL     1      40.046 -42.303 -42.581  0.00  0.00    -0.064 C 
ATOM     23  N   UNL     1      40.669 -40.908 -42.509  0.00  0.00    +0.379 N 
ATOM     24  C   UNL     1      41.206 -40.543 -43.828  0.00  0.00    -0.096 C 
ATOM     25  H   UNL     1      41.524 -40.956 -41.796  0.00  0.00    -0.082 HD
ATOM     26  C   UNL     1      39.673 -39.891 -41.968  0.00  0.00    -0.064 C 
ATOM     27  C   UNL     1      39.145 -40.324 -40.572  0.00  0.00    +0.066 C 
ENDBRANCH  19  20
ENDBRANCH  18  19
ENDBRANCH  14  15
ENDBRANCH  12  13
TORSDOF 6
ENDMDL
MODEL 3
REMARK VINA RESULT:      -8.7     12.685     15.794
REMARK  Name = C:\Users\Docking\Desktop\test protocol\1iep_ligandH.pdb
REMARK  8 active torsions:
REMARK  status: ('A' for Active; 'I' for Inactive)
REMARK    1  A    between atoms: _5  and  _11
REMARK    2  A    between atoms: _19  and  _21
REMARK    3  A    between atoms: _22  and  _66
REMARK    4  A    between atoms: _27  and  _30
REMARK    5  A    between atoms: _32  and  _33
REMARK    6  A    between atoms: _38  and  _43
REMARK    7  A    between atoms: _43  and  _46
REMARK    8  A    between atoms: _53  and  _55
REMARK                            x       y       z     vdW  Elec       q    Type
REMARK                         _______ _______ _______ _____ _____    ______ ____
ROOT
ATOM     10  C   UNL     1      35.897 -25.101 -43.118  0.00  0.00    +0.038 A 
ATOM     11  C   UNL     1      36.687 -25.948 -43.937  0.00  0.00    +0.047 A 
ATOM     12  C   UNL     1      37.131 -27.251 -43.465  0.00  0.00    +0.035 A 
ATOM     32  C   UNL     1      36.750 -27.661 -42.154  0.00  0.00    +0.024 A 
ATOM     33  C   UNL     1      35.949 -26.812 -41.308  0.00  0.00    +0.007 A 
ATOM     34  C   UNL     1      35.510 -25.525 -41.767  0.00  0.00    -0.029 A 
ATOM     35  C   UNL     1      34.658 -24.654 -40.814  0.00  0.00    +0.045 C 
ENDROOT
BRANCH  10   9
ATOM      4  C   UNL     1      36.765 -20.523 -44.267  0.00  0.00    +0.077 A 
ATOM      5  C   UNL     1      38.120 -20.601 -43.800  0.00  0.00    +0.048 A 
ATOM      6  C   UNL     1      38.552 -21.835 -43.265  0.00  0.00    +0.116 A 
ATOM      7  N   UNL     1      37.685 -22.905 -43.206  0.00  0.00    -0.223 NA
ATOM      8  C   UNL     1      36.385 -22.796 -43.663  0.00  0.00    +0.220 A 
ATOM      9  N   UNL     1      35.499 -23.861 -43.621  0.00  0.00    -0.283 N 
ATOM     36  H   UNL     1      34.546 -23.738 -43.962  0.00  0.00    +0.155 HD
ATOM     37  N   UNL     1      35.948 -21.627 -44.177  0.00  0.00    -0.214 NA
BRANCH   4   3
ATOM      1  C   UNL     1      34.887 -17.118 -44.693  0.00  0.00    +0.020 A 
ATOM      2  C   UNL     1      35.450 -18.294 -44.069  0.00  0.00    +0.013 A 
ATOM      3  C   UNL     1      36.162 -19.288 -44.862  0.00  0.00    +0.019 A 
ATOM     38  C   UNL     1      36.289 -19.062 -46.293  0.00  0.00    +0.120 A 
ATOM     39  N   UNL     1      35.735 -17.921 -46.866  0.00  0.00    -0.263 NA
ATOM     40  C   UNL     1      35.046 -16.958 -46.114  0.00  0.00    +0.111 A 
ENDBRANCH   4   3
ENDBRANCH  10   9
BRANCH  12  13
ATOM     13  N   UNL     1      37.940 -28.150 -44.249  0.00  0.00    -0.281 N 
ATOM     14  C   UNL     1      39.314 -28.126 -44.425  0.00  0.00    +0.248 C 
ATOM     30  O   UNL     1      40.035 -27.193 -44.104  0.00  0.00    -0.270 OA
ATOM     31  H   UNL     1      37.440 -28.896 -44.733  0.00  0.00    +0.155 HD
BRANCH  14  15
ATOM     15  C   UNL     1      39.982 -29.301 -45.062  0.00  0.00    +0.037 A 
ATOM     16  C   UNL     1      39.355 -30.626 -45.058  0.00  0.00    +0.013 A 
ATOM     17  C   UNL     1      40.029 -31.746 -45.664  0.00  0.00    +0.005 A 
ATOM     18  C   UNL     1      41.338 -31.547 -46.282  0.00  0.00    -0.033 A 
ATOM     28  C   UNL     1      41.934 -30.221 -46.277  0.00  0.00    +0.005 A 
ATOM     29  C   UNL     1      41.277 -29.120 -45.682  0.00  0.00    +0.013 A 
BRANCH  18  19
ATOM     19  C   UNL     1      42.138 -32.690 -46.934  0.00  0.00    +0.119 C 
BRANCH  19  20
ATOM     20  N   UNL     1      42.685 -33.744 -46.030  0.00  0.00    -0.302 NA
ATOM     21  C   UNL     1      41.587 -34.666 -45.492  0.00  0.00    +0.066 C 
ATOM     22  C   UNL     1      42.180 -35.777 -44.566  0.00  0.00    -0.064 C 
ATOM     23  N   UNL     1      42.947 -35.122 -43.416  0.00  0.00    +0.379 N 
ATOM     24  C   UNL     1      43.457 -36.163 -42.511  0.00  0.00    -0.096 C 
ATOM     25  H   UNL     1      42.226 -34.497 -42.841  0.00  0.00    -0.082 HD
ATOM     26  C   UNL     1      44.039 -34.201 -43.941  0.00  0.00    -0.064 C 
ATOM     27  C   UNL     1      43.444 -33.119 -44.885  0.00  0.00    +0.066 C 
ENDBRANCH  19  20
ENDBRANCH  18  19
ENDBRANCH  14  15
ENDBRANCH  12  13
TORSDOF 6
ENDMDL
MODEL 4
REMARK VINA RESULT:      -8.7      1.914      2.410
REMARK  Name = C:\Users\Docking\Desktop\test protocol\1iep_ligandH.pdb
REMARK  8 active torsions:
REMARK  status: ('A' for Active; 'I' for Inactive)
REMARK    1  A    between atoms: _5  and  _11
REMARK    2  A    between atoms: _19  and  _21
REMARK    3  A    between atoms: _22  and  _66
REMARK    4  A    between atoms: _27  and  _30
REMARK    5  A    between atoms: _32  and  _33
REMARK    6  A    between atoms: _38  and  _43
REMARK    7  A    between atoms: _43  and  _46
REMARK    8  A    between atoms: _53  and  _55
REMARK                            x       y       z     vdW  Elec       q    Type
REMARK                         _______ _______ _______ _____ _____    ______ ____
ROOT
ATOM     10  C   UNL     1      27.394 -38.868 -40.615  0.00  0.00    +0.038 A 
ATOM     11  C   UNL     1      28.751 -39.276 -40.551  0.00  0.00    +0.047 A 
ATOM     12  C   UNL     1      29.120 -40.680 -40.644  0.00  0.00    +0.035 A 
ATOM     32  C   UNL     1      28.080 -41.643 -40.804  0.00  0.00    +0.024 A 
ATOM     33  C   UNL     1      26.696 -41.246 -40.870  0.00  0.00    +0.007 A 
ATOM     34  C   UNL     1      26.326 -39.862 -40.776  0.00  0.00    -0.029 A 
ATOM     35  C   UNL     1      24.825 -39.495 -40.846  0.00  0.00    +0.045 C 
ENDROOT
BRANCH  10   9
ATOM      4  C   UNL     1      26.286 -34.943 -38.084  0.00  0.00    +0.077 A 
ATOM      5  C   UNL     1      26.271 -35.672 -36.848  0.00  0.00    +0.048 A 
ATOM      6  C   UNL     1      26.547 -37.057 -36.908  0.00  0.00    +0.116 A 
ATOM      7  N   UNL     1      26.816 -37.657 -38.119  0.00  0.00    -0.223 NA
ATOM      8  C   UNL     1      26.821 -36.925 -39.292  0.00  0.00    +0.220 A 
ATOM      9  N   UNL     1      27.097 -37.507 -40.520  0.00  0.00    -0.283 N 
ATOM     36  H   UNL     1      27.083 -36.934 -41.364  0.00  0.00    +0.155 HD
ATOM     37  N   UNL     1      26.559 -35.602 -39.262  0.00  0.00    -0.214 NA
BRANCH   4   3
ATOM      1  C   UNL     1      26.745 -31.088 -38.562  0.00  0.00    +0.020 A 
ATOM      2  C   UNL     1      27.058 -32.496 -38.476  0.00  0.00    +0.013 A 
ATOM      3  C   UNL     1      26.017 -33.474 -38.184  0.00  0.00    +0.019 A 
ATOM     38  C   UNL     1      24.660 -32.990 -37.982  0.00  0.00    +0.120 A 
ATOM     39  N   UNL     1      24.389 -31.628 -38.070  0.00  0.00    -0.263 NA
ATOM     40  C   UNL     1      25.382 -30.678 -38.349  0.00  0.00    +0.111 A 
ENDBRANCH   4   3
ENDBRANCH  10   9
BRANCH  12  13
ATOM     13  N   UNL     1      30.480 -41.155 -40.577  0.00  0.00    -0.281 N 
ATOM     14  C   UNL     1      31.262 -41.343 -39.449  0.00  0.00    +0.248 C 
ATOM     30  O   UNL     1      30.980 -40.927 -38.335  0.00  0.00    -0.270 OA
ATOM     31  H   UNL     1      30.919 -41.379 -41.470  0.00  0.00    +0.155 HD
BRANCH  14  15
ATOM     15  C   UNL     1      32.550 -42.089 -39.580  0.00  0.00    +0.037 A 
ATOM     16  C   UNL     1      33.777 -41.604 -38.944  0.00  0.00    +0.013 A 
ATOM     17  C   UNL     1      35.011 -42.334 -39.101  0.00  0.00    +0.005 A 
ATOM     18  C   UNL     1      35.021 -43.559 -39.897  0.00  0.00    -0.033 A 
ATOM     28  C   UNL     1      33.788 -44.021 -40.512  0.00  0.00    +0.005 A 
ATOM     29  C   UNL     1      32.578 -43.307 -40.362  0.00  0.00    +0.013 A 
BRANCH  18  19
ATOM     19  C   UNL     1      36.296 -44.390 -40.134  0.00  0.00    +0.119 C 
BRANCH  19  20
ATOM     20  N   UNL     1      37.571 -43.642 -40.347  0.00  0.00    -0.302 NA
ATOM     21  C   UNL     1      38.200 -43.955 -41.708  0.00  0.00    +0.066 C 
ATOM     22  C   UNL     1      39.521 -43.147 -41.923  0.00  0.00    -0.064 C 
ATOM     23  N   UNL     1      40.498 -43.460 -40.789  0.00  0.00    +0.379 N 
ATOM     24  C   UNL     1      41.763 -42.746 -41.020  0.00  0.00    -0.096 C 
ATOM     25  H   UNL     1      40.716 -44.553 -40.823  0.00  0.00    -0.082 HD
ATOM     26  C   UNL     1      39.879 -43.154 -39.433  0.00  0.00    -0.064 C 
ATOM     27  C   UNL     1      38.552 -43.940 -39.241  0.00  0.00    +0.066 C 
ENDBRANCH  19  20
ENDBRANCH  18  19
ENDBRANCH  14  15
ENDBRANCH  12  13
TORSDOF 6
ENDMDL
MODEL 5
REMARK VINA RESULT:      -8.2     27.881     30.848
REMARK  Name = C:\Users\Docking\Desktop\test protocol\1iep_ligandH.pdb
REMARK  8 active torsions:
REMARK  status: ('A' for Active; 'I' for Inactive)
REMARK    1  A    between atoms: _5  and  _11
REMARK    2  A    between atoms: _19  and  _21
REMARK    3  A    between atoms: _22  and  _66
REMARK    4  A    between atoms: _27  and  _30
REMARK    5  A    between atoms: _32  and  _33
REMARK    6  A    between atoms: _38  and  _43
REMARK    7  A    between atoms: _43  and  _46
REMARK    8  A    between atoms: _53  and  _55
REMARK                            x       y       z     vdW  Elec       q    Type
REMARK                         _______ _______ _______ _____ _____    ______ ____
ROOT
ATOM     10  C   UNL     1      19.280 -30.754 -63.593  0.00  0.00    +0.038 A 
ATOM     11  C   UNL     1      18.302 -31.706 -63.980  0.00  0.00    +0.047 A 
ATOM     12  C   UNL     1      18.657 -33.097 -64.212  0.00  0.00    +0.035 A 
ATOM     32  C   UNL     1      20.017 -33.486 -64.039  0.00  0.00    +0.024 A 
ATOM     33  C   UNL     1      21.024 -32.532 -63.647  0.00  0.00    +0.007 A 
ATOM     34  C   UNL     1      20.681 -31.157 -63.419  0.00  0.00    -0.029 A 
ATOM     35  C   UNL     1      21.804 -30.176 -63.007  0.00  0.00    +0.045 C 
ENDROOT
BRANCH  10   9
ATOM      4  C   UNL     1      17.193 -26.680 -65.037  0.00  0.00    +0.077 A 
ATOM      5  C   UNL     1      16.890 -27.225 -66.329  0.00  0.00    +0.048 A 
ATOM      6  C   UNL     1      17.294 -28.554 -66.585  0.00  0.00    +0.116 A 
ATOM      7  N   UNL     1      17.952 -29.276 -65.613  0.00  0.00    -0.223 NA
ATOM      8  C   UNL     1      18.231 -28.721 -64.378  0.00  0.00    +0.220 A 
ATOM      9  N   UNL     1      18.885 -29.431 -63.383  0.00  0.00    -0.283 N 
ATOM     36  H   UNL     1      19.078 -28.983 -62.488  0.00  0.00    +0.155 HD
ATOM     37  N   UNL     1      17.857 -27.453 -64.110  0.00  0.00    -0.214 NA
BRANCH   4   3
ATOM      1  C   UNL     1      17.189 -23.202 -63.249  0.00  0.00    +0.020 A 
ATOM      2  C   UNL     1      17.584 -24.541 -63.620  0.00  0.00    +0.013 A 
ATOM      3  C   UNL     1      16.828 -25.291 -64.616  0.00  0.00    +0.019 A 
ATOM     38  C   UNL     1      15.670 -24.652 -65.221  0.00  0.00    +0.120 A 
ATOM     39  N   UNL     1      15.313 -23.362 -64.843  0.00  0.00    -0.263 NA
ATOM     40  C   UNL     1      16.031 -22.631 -63.885  0.00  0.00    +0.111 A 
ENDBRANCH   4   3
ENDBRANCH  10   9
BRANCH  12  13
ATOM     13  N   UNL     1      17.708 -34.106 -64.614  0.00  0.00    -0.281 N 
ATOM     14  C   UNL     1      17.263 -34.395 -65.894  0.00  0.00    +0.248 C 
ATOM     30  O   UNL     1      17.453 -33.683 -66.869  0.00  0.00    -0.270 OA
ATOM     31  H   UNL     1      17.318 -34.677 -63.864  0.00  0.00    +0.155 HD
BRANCH  14  15
ATOM     15  C   UNL     1      16.480 -35.648 -66.121  0.00  0.00    +0.037 A 
ATOM     16  C   UNL     1      16.104 -36.075 -67.471  0.00  0.00    +0.013 A 
ATOM     17  C   UNL     1      15.335 -37.280 -67.660  0.00  0.00    +0.005 A 
ATOM     18  C   UNL     1      14.938 -38.066 -66.495  0.00  0.00    -0.033 A 
ATOM     28  C   UNL     1      15.329 -37.622 -65.167  0.00  0.00    +0.005 A 
ATOM     29  C   UNL     1      16.082 -36.442 -64.978  0.00  0.00    +0.013 A 
BRANCH  18  19
ATOM     19  C   UNL     1      14.098 -39.353 -66.602  0.00  0.00    +0.119 C 
BRANCH  19  20
ATOM     20  N   UNL     1      14.059 -40.245 -65.404  0.00  0.00    -0.302 NA
ATOM     21  C   UNL     1      14.960 -41.471 -65.572  0.00  0.00    +0.066 C 
ATOM     22  C   UNL     1      14.924 -42.382 -64.301  0.00  0.00    -0.064 C 
ATOM     23  N   UNL     1      13.481 -42.804 -64.020  0.00  0.00    +0.379 N 
ATOM     24  C   UNL     1      13.450 -43.707 -62.861  0.00  0.00    -0.096 C 
ATOM     25  H   UNL     1      13.118 -43.377 -64.905  0.00  0.00    -0.082 HD
ATOM     26  C   UNL     1      12.577 -41.590 -63.855  0.00  0.00    -0.064 C 
ATOM     27  C   UNL     1      12.643 -40.677 -65.111  0.00  0.00    +0.066 C 
ENDBRANCH  19  20
ENDBRANCH  18  19
ENDBRANCH  14  15
ENDBRANCH  12  13
TORSDOF 6
ENDMDL
