MODEL 1
REMARK VINA RESULT:     -11.3      0.000      0.000
REMARK  Name = C:\Users\Docking\Desktop\test protocol\1iep_ligandH.pdb
REMARK  8 active torsions:
REMARK  status: ('A' for Active; 'I' for Inactive)
REMARK    1  A    between atoms: _5  and  _11
REMARK    2  A    between atoms: _19  and  _21
REMARK    3  A    between atoms: _22  and  _66
REMARK    4  A    between atoms: _27  and  _30
REMARK    5  A    between atoms: _32  and  _33
REMARK    6  A    between atoms: _38  and  _43
REMARK    7  A    between atoms: _43  and  _46
REMARK    8  A    between atoms: _53  and  _55
REMARK                            x       y       z     vdW  Elec       q    Type
REMARK                         _______ _______ _______ _____ _____    ______ ____
ROOT
ATOM     10  C   UNL     1       2.925  -5.077   4.904  0.00  0.00    +0.038 A 
ATOM     11  C   UNL     1       2.909  -3.710   4.525  0.00  0.00    +0.047 A 
ATOM     12  C   UNL     1       1.713  -3.098   3.967  0.00  0.00    +0.035 A 
ATOM     32  C   UNL     1       0.551  -3.907   3.810  0.00  0.00    +0.024 A 
ATOM     33  C   UNL     1       0.550  -5.298   4.188  0.00  0.00    +0.007 A 
ATOM     34  C   UNL     1       1.727  -5.908   4.738  0.00  0.00    -0.029 A 
ATOM     35  C   UNL     1       1.671  -7.405   5.120  0.00  0.00    +0.045 C 
ENDROOT
BRANCH  10   9
ATOM      4  C   UNL     1       5.555  -6.700   8.576  0.00  0.00    +0.077 A 
ATOM      5  C   UNL     1       4.508  -6.433   9.521  0.00  0.00    +0.048 A 
ATOM      6  C   UNL     1       3.312  -5.871   9.022  0.00  0.00    +0.116 A 
ATOM      7  N   UNL     1       3.182  -5.601   7.677  0.00  0.00    -0.223 NA
ATOM      8  C   UNL     1       4.212  -5.869   6.793  0.00  0.00    +0.220 A 
ATOM      9  N   UNL     1       4.100  -5.613   5.435  0.00  0.00    -0.283 N 
ATOM     36  H   UNL     1       4.885  -5.818   4.817  0.00  0.00    +0.155 HD
ATOM     37  N   UNL     1       5.365  -6.404   7.245  0.00  0.00    -0.214 NA
BRANCH   4   3
ATOM      1  C   UNL     1       8.490  -8.294  10.612  0.00  0.00    +0.020 A 
ATOM      2  C   UNL     1       7.198  -7.725  10.305  0.00  0.00    +0.013 A 
ATOM      3  C   UNL     1       6.876  -7.296   8.949  0.00  0.00    +0.019 A 
ATOM     38  C   UNL     1       7.892  -7.460   7.920  0.00  0.00    +0.120 A 
ATOM     39  N   UNL     1       9.127  -8.010   8.246  0.00  0.00    -0.263 NA
ATOM     40  C   UNL     1       9.449  -8.425   9.547  0.00  0.00    +0.111 A 
ENDBRANCH   4   3
ENDBRANCH  10   9
BRANCH  12  13
ATOM     13  N   UNL     1       1.640  -1.717   3.557  0.00  0.00    -0.281 N 
ATOM     14  C   UNL     1       1.640  -0.589   4.361  0.00  0.00    +0.248 C 
ATOM     30  O   UNL     1       1.488  -0.604   5.573  0.00  0.00    -0.270 OA
ATOM     31  H   UNL     1       1.581  -1.552   2.552  0.00  0.00    +0.155 HD
BRANCH  14  15
ATOM     15  C   UNL     1       1.822   0.751   3.724  0.00  0.00    +0.037 A 
ATOM     16  C   UNL     1       2.339   0.880   2.359  0.00  0.00    +0.013 A 
ATOM     17  C   UNL     1       2.520   2.186   1.775  0.00  0.00    +0.005 A 
ATOM     18  C   UNL     1       2.183   3.373   2.557  0.00  0.00    -0.033 A 
ATOM     28  C   UNL     1       1.667   3.216   3.907  0.00  0.00    +0.005 A 
ATOM     29  C   UNL     1       1.489   1.938   4.483  0.00  0.00    +0.013 A 
BRANCH  18  19
ATOM     19  C   UNL     1       2.365   4.806   2.022  0.00  0.00    +0.119 C 
BRANCH  19  20
ATOM     20  N   UNL     1       3.028   5.793   2.924  0.00  0.00    -0.302 NA
ATOM     21  C   UNL     1       2.923   7.224   2.387  0.00  0.00    +0.066 C 
ATOM     22  C   UNL     1       3.603   8.247   3.354  0.00  0.00    -0.064 C 
ATOM     23  N   UNL     1       5.066   7.853   3.561  0.00  0.00    +0.379 N 
ATOM     24  C   UNL     1       5.724   8.845   4.424  0.00  0.00    -0.096 C 
ATOM     25  H   UNL     1       5.568   7.883   2.567  0.00  0.00    -0.082 HD
ATOM     26  C   UNL     1       5.181   6.431   4.093  0.00  0.00    -0.064 C 
ATOM     27  C   UNL     1       4.476   5.426   3.139  0.00  0.00    +0.066 C 
ENDBRANCH  19  20
ENDBRANCH  18  19
ENDBRANCH  14  15
ENDBRANCH  12  13
TORSDOF 6
ENDMDL
MODEL 2
REMARK VINA RESULT:     -10.4      7.108     13.345
REMARK  Name = C:\Users\Docking\Desktop\test protocol\1iep_ligandH.pdb
REMARK  8 active torsions:
REMARK  status: ('A' for Active; 'I' for Inactive)
REMARK    1  A    between atoms: _5  and  _11
REMARK    2  A    between atoms: _19  and  _21
REMARK    3  A    between atoms: _22  and  _66
REMARK    4  A    between atoms: _27  and  _30
REMARK    5  A    between atoms: _32  and  _33
REMARK    6  A    between atoms: _38  and  _43
REMARK    7  A    between atoms: _43  and  _46
REMARK    8  A    between atoms: _53  and  _55
REMARK                            x       y       z     vdW  Elec       q    Type
REMARK                         _______ _______ _______ _____ _____    ______ ____
ROOT
ATOM     10  C   UNL     1      14.334 -10.020   9.845  0.00  0.00    +0.038 A 
ATOM     11  C   UNL     1      13.150  -9.245   9.940  0.00  0.00    +0.047 A 
ATOM     12  C   UNL     1      11.900  -9.704   9.354  0.00  0.00    +0.035 A 
ATOM     32  C   UNL     1      11.891 -10.960   8.680  0.00  0.00    +0.024 A 
ATOM     33  C   UNL     1      13.086 -11.761   8.573  0.00  0.00    +0.007 A 
ATOM     34  C   UNL     1      14.322 -11.311   9.147  0.00  0.00    -0.029 A 
ATOM     35  C   UNL     1      15.573 -12.208   8.996  0.00  0.00    +0.045 C 
ENDROOT
BRANCH  10   9
ATOM      4  C   UNL     1      17.523  -9.832  13.427  0.00  0.00    +0.077 A 
ATOM      5  C   UNL     1      16.777 -10.767  14.219  0.00  0.00    +0.048 A 
ATOM      6  C   UNL     1      15.575 -11.267  13.671  0.00  0.00    +0.116 A 
ATOM      7  N   UNL     1      15.159 -10.856  12.423  0.00  0.00    -0.223 NA
ATOM      8  C   UNL     1      15.901  -9.952  11.686  0.00  0.00    +0.220 A 
ATOM      9  N   UNL     1      15.506  -9.531  10.426  0.00  0.00    -0.283 N 
ATOM     36  H   UNL     1      16.077  -8.857   9.917  0.00  0.00    +0.155 HD
ATOM     37  N   UNL     1      17.052  -9.458  12.188  0.00  0.00    -0.214 NA
BRANCH   4   3
ATOM      1  C   UNL     1      20.667  -7.516  13.659  0.00  0.00    +0.020 A 
ATOM      2  C   UNL     1      19.417  -8.072  13.194  0.00  0.00    +0.013 A 
ATOM      3  C   UNL     1      18.815  -9.216  13.867  0.00  0.00    +0.019 A 
ATOM     38  C   UNL     1      19.507  -9.777  15.017  0.00  0.00    +0.120 A 
ATOM     39  N   UNL     1      20.710  -9.221  15.442  0.00  0.00    -0.263 NA
ATOM     40  C   UNL     1      21.300  -8.121  14.801  0.00  0.00    +0.111 A 
ENDBRANCH   4   3
ENDBRANCH  10   9
BRANCH  12  13
ATOM     13  N   UNL     1      10.669  -8.956   9.412  0.00  0.00    -0.281 N 
ATOM     14  C   UNL     1       9.946  -8.422   8.358  0.00  0.00    +0.248 C 
ATOM     30  O   UNL     1      10.364  -8.322   7.214  0.00  0.00    -0.270 OA
ATOM     31  H   UNL     1      10.283  -8.802  10.344  0.00  0.00    +0.155 HD
BRANCH  14  15
ATOM     15  C   UNL     1       8.565  -7.911   8.614  0.00  0.00    +0.037 A 
ATOM     16  C   UNL     1       7.932  -8.058   9.927  0.00  0.00    +0.013 A 
ATOM     17  C   UNL     1       6.592  -7.572  10.143  0.00  0.00    +0.005 A 
ATOM     18  C   UNL     1       5.877  -6.932   9.041  0.00  0.00    -0.033 A 
ATOM     28  C   UNL     1       6.531  -6.795   7.750  0.00  0.00    +0.005 A 
ATOM     29  C   UNL     1       7.843  -7.271   7.535  0.00  0.00    +0.013 A 
BRANCH  18  19
ATOM     19  C   UNL     1       4.437  -6.403   9.175  0.00  0.00    +0.119 C 
BRANCH  19  20
ATOM     20  N   UNL     1       3.736  -6.003   7.918  0.00  0.00    -0.302 NA
ATOM     21  C   UNL     1       2.590  -5.023   8.187  0.00  0.00    +0.066 C 
ATOM     22  C   UNL     1       1.882  -4.598   6.859  0.00  0.00    -0.064 C 
ATOM     23  N   UNL     1       1.371  -5.845   6.135  0.00  0.00    +0.379 N 
ATOM     24  C   UNL     1       0.654  -5.445   4.916  0.00  0.00    -0.096 C 
ATOM     25  H   UNL     1       0.639  -6.350   6.808  0.00  0.00    -0.082 HD
ATOM     26  C   UNL     1       2.503  -6.826   5.867  0.00  0.00    -0.064 C 
ATOM     27  C   UNL     1       3.219  -7.219   7.190  0.00  0.00    +0.066 C 
ENDBRANCH  19  20
ENDBRANCH  18  19
ENDBRANCH  14  15
ENDBRANCH  12  13
TORSDOF 6
ENDMDL
MODEL 3
REMARK VINA RESULT:     -10.3      2.100      2.930
REMARK  Name = C:\Users\Docking\Desktop\test protocol\1iep_ligandH.pdb
REMARK  8 active torsions:
REMARK  status: ('A' for Active; 'I' for Inactive)
REMARK    1  A    between atoms: _5  and  _11
REMARK    2  A    between atoms: _19  and  _21
REMARK    3  A    between atoms: _22  and  _66
REMARK    4  A    between atoms: _27  and  _30
REMARK    5  A    between atoms: _32  and  _33
REMARK    6  A    between atoms: _38  and  _43
REMARK    7  A    between atoms: _43  and  _46
REMARK    8  A    between atoms: _53  and  _55
REMARK                            x       y       z     vdW  Elec       q    Type
REMARK                         _______ _______ _______ _____ _____    ______ ____
ROOT
ATOM     10  C   UNL     1       2.850  -5.258   4.917  0.00  0.00    +0.038 A 
ATOM     11  C   UNL     1       2.744  -3.887   4.567  0.00  0.00    +0.047 A 
ATOM     12  C   UNL     1       1.506  -3.341   4.033  0.00  0.00    +0.035 A 
ATOM     32  C   UNL     1       0.395  -4.219   3.870  0.00  0.00    +0.024 A 
ATOM     33  C   UNL     1       0.486  -5.615   4.220  0.00  0.00    +0.007 A 
ATOM     34  C   UNL     1       1.705  -6.160   4.745  0.00  0.00    -0.029 A 
ATOM     35  C   UNL     1       1.747  -7.665   5.097  0.00  0.00    +0.045 C 
ENDROOT
BRANCH  10   9
ATOM      4  C   UNL     1       5.627  -6.750   8.537  0.00  0.00    +0.077 A 
ATOM      5  C   UNL     1       4.582  -6.548   9.499  0.00  0.00    +0.048 A 
ATOM      6  C   UNL     1       3.348  -6.052   9.023  0.00  0.00    +0.116 A 
ATOM      7  N   UNL     1       3.182  -5.782   7.682  0.00  0.00    -0.223 NA
ATOM      8  C   UNL     1       4.210  -5.986   6.781  0.00  0.00    +0.220 A 
ATOM      9  N   UNL     1       4.062  -5.729   5.426  0.00  0.00    -0.283 N 
ATOM     36  H   UNL     1       4.847  -5.886   4.795  0.00  0.00    +0.155 HD
ATOM     37  N   UNL     1       5.399  -6.458   7.210  0.00  0.00    -0.214 NA
BRANCH   4   3
ATOM      1  C   UNL     1       9.332  -7.977   8.282  0.00  0.00    +0.020 A 
ATOM      2  C   UNL     1       8.036  -7.471   7.893  0.00  0.00    +0.013 A 
ATOM      3  C   UNL     1       6.986  -7.271   8.885  0.00  0.00    +0.019 A 
ATOM     38  C   UNL     1       7.284  -7.595  10.272  0.00  0.00    +0.120 A 
ATOM     39  N   UNL     1       8.541  -8.082  10.616  0.00  0.00    -0.263 NA
ATOM     40  C   UNL     1       9.558  -8.280   9.671  0.00  0.00    +0.111 A 
ENDBRANCH   4   3
ENDBRANCH  10   9
BRANCH  12  13
ATOM     13  N   UNL     1       1.342  -1.960   3.653  0.00  0.00    -0.281 N 
ATOM     14  C   UNL     1       1.514  -0.833   4.440  0.00  0.00    +0.248 C 
ATOM     30  O   UNL     1       1.630  -0.851   5.656  0.00  0.00    -0.270 OA
ATOM     31  H   UNL     1       1.064  -1.792   2.685  0.00  0.00    +0.155 HD
BRANCH  14  15
ATOM     15  C   UNL     1       1.549   0.509   3.783  0.00  0.00    +0.037 A 
ATOM     16  C   UNL     1       1.589   1.741   4.574  0.00  0.00    +0.013 A 
ATOM     17  C   UNL     1       1.605   3.023   3.915  0.00  0.00    +0.005 A 
ATOM     18  C   UNL     1       1.582   3.078   2.455  0.00  0.00    -0.033 A 
ATOM     28  C   UNL     1       1.548   1.840   1.695  0.00  0.00    +0.005 A 
ATOM     29  C   UNL     1       1.531   0.582   2.337  0.00  0.00    +0.013 A 
BRANCH  18  19
ATOM     19  C   UNL     1       1.575   4.402   1.668  0.00  0.00    +0.119 C 
BRANCH  19  20
ATOM     20  N   UNL     1       0.258   5.082   1.484  0.00  0.00    -0.302 NA
ATOM     21  C   UNL     1       0.131   5.724   0.100  0.00  0.00    +0.066 C 
ATOM     22  C   UNL     1      -1.261   6.411  -0.084  0.00  0.00    -0.064 C 
ATOM     23  N   UNL     1      -1.461   7.454   1.018  0.00  0.00    +0.379 N 
ATOM     24  C   UNL     1      -2.744   8.142   0.814  0.00  0.00    -0.096 C 
ATOM     25  H   UNL     1      -0.650   8.212   0.916  0.00  0.00    -0.082 HD
ATOM     26  C   UNL     1      -1.334   6.824   2.398  0.00  0.00    -0.064 C 
ATOM     27  C   UNL     1       0.042   6.119   2.559  0.00  0.00    +0.066 C 
ENDBRANCH  19  20
ENDBRANCH  18  19
ENDBRANCH  14  15
ENDBRANCH  12  13
TORSDOF 6
ENDMDL
MODEL 4
REMARK VINA RESULT:     -10.3      2.171     12.376
REMARK  Name = C:\Users\Docking\Desktop\test protocol\1iep_ligandH.pdb
REMARK  8 active torsions:
REMARK  status: ('A' for Active; 'I' for Inactive)
REMARK    1  A    between atoms: _5  and  _11
REMARK    2  A    between atoms: _19  and  _21
REMARK    3  A    between atoms: _22  and  _66
REMARK    4  A    between atoms: _27  and  _30
REMARK    5  A    between atoms: _32  and  _33
REMARK    6  A    between atoms: _38  and  _43
REMARK    7  A    between atoms: _43  and  _46
REMARK    8  A    between atoms: _53  and  _55
REMARK                            x       y       z     vdW  Elec       q    Type
REMARK                         _______ _______ _______ _____ _____    ______ ____
ROOT
ATOM     10  C   UNL     1       1.019  -1.346   3.684  0.00  0.00    +0.038 A 
ATOM     11  C   UNL     1       1.728  -1.947   4.755  0.00  0.00    +0.047 A 
ATOM     12  C   UNL     1       2.177  -3.329   4.678  0.00  0.00    +0.035 A 
ATOM     32  C   UNL     1       1.888  -4.068   3.495  0.00  0.00    +0.024 A 
ATOM     33  C   UNL     1       1.167  -3.474   2.397  0.00  0.00    +0.007 A 
ATOM     34  C   UNL     1       0.719  -2.112   2.468  0.00  0.00    -0.029 A 
ATOM     35  C   UNL     1      -0.055  -1.528   1.264  0.00  0.00    +0.045 C 
ENDROOT
BRANCH  10   9
ATOM      4  C   UNL     1       1.604   3.353   2.899  0.00  0.00    +0.077 A 
ATOM      5  C   UNL     1       2.840   3.142   2.201  0.00  0.00    +0.048 A 
ATOM      6  C   UNL     1       3.293   1.810   2.072  0.00  0.00    +0.116 A 
ATOM      7  N   UNL     1       2.558   0.774   2.604  0.00  0.00    -0.223 NA
ATOM      8  C   UNL     1       1.371   1.012   3.273  0.00  0.00    +0.220 A 
ATOM      9  N   UNL     1       0.612  -0.016   3.810  0.00  0.00    -0.283 N 
ATOM     36  H   UNL     1      -0.254   0.202   4.303  0.00  0.00    +0.155 HD
ATOM     37  N   UNL     1       0.918   2.275   3.412  0.00  0.00    -0.214 NA
BRANCH   4   3
ATOM      1  C   UNL     1      -0.983   6.265   3.258  0.00  0.00    +0.020 A 
ATOM      2  C   UNL     1      -0.443   4.942   3.041  0.00  0.00    +0.013 A 
ATOM      3  C   UNL     1       0.993   4.702   3.115  0.00  0.00    +0.019 A 
ATOM     38  C   UNL     1       1.862   5.831   3.412  0.00  0.00    +0.120 A 
ATOM     39  N   UNL     1       1.314   7.093   3.615  0.00  0.00    -0.263 NA
ATOM     40  C   UNL     1      -0.066   7.337   3.546  0.00  0.00    +0.111 A 
ENDBRANCH   4   3
ENDBRANCH  10   9
BRANCH  12  13
ATOM     13  N   UNL     1       2.895  -3.995   5.737  0.00  0.00    -0.281 N 
ATOM     14  C   UNL     1       2.898  -5.345   6.046  0.00  0.00    +0.248 C 
ATOM     30  O   UNL     1       2.111  -6.160   5.587  0.00  0.00    -0.270 OA
ATOM     31  H   UNL     1       3.471  -3.398   6.331  0.00  0.00    +0.155 HD
BRANCH  14  15
ATOM     15  C   UNL     1       3.911  -5.862   7.014  0.00  0.00    +0.037 A 
ATOM     16  C   UNL     1       5.240  -6.290   6.568  0.00  0.00    +0.013 A 
ATOM     17  C   UNL     1       6.193  -6.801   7.521  0.00  0.00    +0.005 A 
ATOM     18  C   UNL     1       5.820  -6.886   8.932  0.00  0.00    -0.033 A 
ATOM     28  C   UNL     1       4.498  -6.450   9.347  0.00  0.00    +0.005 A 
ATOM     29  C   UNL     1       3.561  -5.949   8.416  0.00  0.00    +0.013 A 
BRANCH  18  19
ATOM     19  C   UNL     1       6.766  -7.438  10.015  0.00  0.00    +0.119 C 
BRANCH  19  20
ATOM     20  N   UNL     1       7.983  -8.169   9.551  0.00  0.00    -0.302 NA
ATOM     21  C   UNL     1       9.031  -8.302  10.661  0.00  0.00    +0.066 C 
ATOM     22  C   UNL     1      10.287  -9.089  10.166  0.00  0.00    -0.064 C 
ATOM     23  N   UNL     1      10.879  -8.383   8.944  0.00  0.00    +0.379 N 
ATOM     24  C   UNL     1      12.094  -9.088   8.511  0.00  0.00    -0.096 C 
ATOM     25  H   UNL     1      11.177  -7.356   9.259  0.00  0.00    -0.082 HD
ATOM     26  C   UNL     1       9.843  -8.244   7.837  0.00  0.00    -0.064 C 
ATOM     27  C   UNL     1       8.586  -7.487   8.348  0.00  0.00    +0.066 C 
ENDBRANCH  19  20
ENDBRANCH  18  19
ENDBRANCH  14  15
ENDBRANCH  12  13
TORSDOF 6
ENDMDL
MODEL 5
REMARK VINA RESULT:     -10.2      2.269     12.222
REMARK  Name = C:\Users\Docking\Desktop\test protocol\1iep_ligandH.pdb
REMARK  8 active torsions:
REMARK  status: ('A' for Active; 'I' for Inactive)
REMARK    1  A    between atoms: _5  and  _11
REMARK    2  A    between atoms: _19  and  _21
REMARK    3  A    between atoms: _22  and  _66
REMARK    4  A    between atoms: _27  and  _30
REMARK    5  A    between atoms: _32  and  _33
REMARK    6  A    between atoms: _38  and  _43
REMARK    7  A    between atoms: _43  and  _46
REMARK    8  A    between atoms: _53  and  _55
REMARK                            x       y       z     vdW  Elec       q    Type
REMARK                         _______ _______ _______ _____ _____    ______ ____
ROOT
ATOM     10  C   UNL     1       1.671  -2.272   3.561  0.00  0.00    +0.038 A 
ATOM     11  C   UNL     1       2.521  -2.855   4.535  0.00  0.00    +0.047 A 
ATOM     12  C   UNL     1       2.090  -4.002   5.320  0.00  0.00    +0.035 A 
ATOM     32  C   UNL     1       0.788  -4.531   5.084  0.00  0.00    +0.024 A 
ATOM     33  C   UNL     1      -0.089  -3.950   4.098  0.00  0.00    +0.007 A 
ATOM     34  C   UNL     1       0.329  -2.817   3.323  0.00  0.00    -0.029 A 
ATOM     35  C   UNL     1      -0.656  -2.231   2.284  0.00  0.00    +0.045 C 
ENDROOT
BRANCH  10   9
ATOM      4  C   UNL     1       2.379   2.444   3.015  0.00  0.00    +0.077 A 
ATOM      5  C   UNL     1       1.746   2.744   4.267  0.00  0.00    +0.048 A 
ATOM      6  C   UNL     1       1.246   1.657   5.018  0.00  0.00    +0.116 A 
ATOM      7  N   UNL     1       1.374   0.370   4.542  0.00  0.00    -0.223 NA
ATOM      8  C   UNL     1       1.988   0.115   3.330  0.00  0.00    +0.220 A 
ATOM      9  N   UNL     1       2.135  -1.172   2.836  0.00  0.00    -0.283 N 
ATOM     36  H   UNL     1       2.588  -1.317   1.934  0.00  0.00    +0.155 HD
ATOM     37  N   UNL     1       2.474   1.136   2.593  0.00  0.00    -0.214 NA
BRANCH   4   3
ATOM      1  C   UNL     1       2.757   5.433   0.520  0.00  0.00    +0.020 A 
ATOM      2  C   UNL     1       2.145   4.448   1.382  0.00  0.00    +0.013 A 
ATOM      3  C   UNL     1       2.961   3.484   2.109  0.00  0.00    +0.019 A 
ATOM     38  C   UNL     1       4.405   3.545   1.941  0.00  0.00    +0.120 A 
ATOM     39  N   UNL     1       4.967   4.503   1.103  0.00  0.00    -0.263 NA
ATOM     40  C   UNL     1       4.191   5.435   0.397  0.00  0.00    +0.111 A 
ENDBRANCH   4   3
ENDBRANCH  10   9
BRANCH  12  13
ATOM     13  N   UNL     1       2.906  -4.631   6.328  0.00  0.00    -0.281 N 
ATOM     14  C   UNL     1       3.341  -5.945   6.375  0.00  0.00    +0.248 C 
ATOM     30  O   UNL     1       2.913  -6.840   5.660  0.00  0.00    -0.270 OA
ATOM     31  H   UNL     1       3.199  -4.034   7.102  0.00  0.00    +0.155 HD
BRANCH  14  15
ATOM     15  C   UNL     1       4.391  -6.324   7.368  0.00  0.00    +0.037 A 
ATOM     16  C   UNL     1       5.793  -6.478   6.970  0.00  0.00    +0.013 A 
ATOM     17  C   UNL     1       6.784  -6.861   7.944  0.00  0.00    +0.005 A 
ATOM     18  C   UNL     1       6.375  -7.091   9.328  0.00  0.00    -0.033 A 
ATOM     28  C   UNL     1       4.979  -6.927   9.696  0.00  0.00    +0.005 A 
ATOM     29  C   UNL     1       4.005  -6.553   8.744  0.00  0.00    +0.013 A 
BRANCH  18  19
ATOM     19  C   UNL     1       7.361  -7.523  10.430  0.00  0.00    +0.119 C 
BRANCH  19  20
ATOM     20  N   UNL     1       8.721  -7.962   9.997  0.00  0.00    -0.302 NA
ATOM     21  C   UNL     1       8.664  -8.911   8.797  0.00  0.00    +0.066 C 
ATOM     22  C   UNL     1      10.096  -9.343   8.343  0.00  0.00    -0.064 C 
ATOM     23  N   UNL     1      10.825  -9.998   9.518  0.00  0.00    +0.379 N 
ATOM     24  C   UNL     1      12.151 -10.457   9.078  0.00  0.00    -0.096 C 
ATOM     25  H   UNL     1      10.238 -10.897   9.820  0.00  0.00    -0.082 HD
ATOM     26  C   UNL     1      10.884  -9.062  10.716  0.00  0.00    -0.064 C 
ATOM     27  C   UNL     1       9.457  -8.616  11.141  0.00  0.00    +0.066 C 
ENDBRANCH  19  20
ENDBRANCH  18  19
ENDBRANCH  14  15
ENDBRANCH  12  13
TORSDOF 6
ENDMDL
