MODEL 1
REMARK VINA RESULT:     -11.7      0.000      0.000
REMARK  Name = C:\Users\Docking\Desktop\test protocol\1iep_ligandH.pdb
REMARK  8 active torsions:
REMARK  status: ('A' for Active; 'I' for Inactive)
REMARK    1  A    between atoms: _5  and  _11
REMARK    2  A    between atoms: _19  and  _21
REMARK    3  A    between atoms: _22  and  _66
REMARK    4  A    between atoms: _27  and  _30
REMARK    5  A    between atoms: _32  and  _33
REMARK    6  A    between atoms: _38  and  _43
REMARK    7  A    between atoms: _43  and  _46
REMARK    8  A    between atoms: _53  and  _55
REMARK                            x       y       z     vdW  Elec       q    Type
REMARK                         _______ _______ _______ _____ _____    ______ ____
ROOT
ATOM     10  C   UNL     1      -2.854  -5.153  -4.822  0.00  0.00    +0.038 A 
ATOM     11  C   UNL     1      -2.827  -3.778  -4.473  0.00  0.00    +0.047 A 
ATOM     12  C   UNL     1      -1.630  -3.164  -3.921  0.00  0.00    +0.035 A 
ATOM     32  C   UNL     1      -0.475  -3.980  -3.740  0.00  0.00    +0.024 A 
ATOM     33  C   UNL     1      -0.484  -5.379  -4.088  0.00  0.00    +0.007 A 
ATOM     34  C   UNL     1      -1.664  -5.991  -4.630  0.00  0.00    -0.029 A 
ATOM     35  C   UNL     1      -1.619  -7.497  -4.979  0.00  0.00    +0.045 C 
ENDROOT
BRANCH  10   9
ATOM      4  C   UNL     1      -5.516  -6.732  -8.490  0.00  0.00    +0.077 A 
ATOM      5  C   UNL     1      -4.485  -6.437  -9.442  0.00  0.00    +0.048 A 
ATOM      6  C   UNL     1      -3.287  -5.873  -8.948  0.00  0.00    +0.116 A 
ATOM      7  N   UNL     1      -3.143  -5.627  -7.600  0.00  0.00    -0.223 NA
ATOM      8  C   UNL     1      -4.157  -5.922  -6.709  0.00  0.00    +0.220 A 
ATOM      9  N   UNL     1      -4.031  -5.690  -5.348  0.00  0.00    -0.283 N 
ATOM     36  H   UNL     1      -4.805  -5.915  -4.724  0.00  0.00    +0.155 HD
ATOM     37  N   UNL     1      -5.311  -6.460  -7.156  0.00  0.00    -0.214 NA
BRANCH   4   3
ATOM      1  C   UNL     1      -8.464  -8.312 -10.518  0.00  0.00    +0.020 A 
ATOM      2  C   UNL     1      -7.174  -7.736 -10.216  0.00  0.00    +0.013 A 
ATOM      3  C   UNL     1      -6.837  -7.333  -8.857  0.00  0.00    +0.019 A 
ATOM     38  C   UNL     1      -7.835  -7.530  -7.816  0.00  0.00    +0.120 A 
ATOM     39  N   UNL     1      -9.070  -8.087  -8.136  0.00  0.00    -0.263 NA
ATOM     40  C   UNL     1      -9.406  -8.476  -9.442  0.00  0.00    +0.111 A 
ENDBRANCH   4   3
ENDBRANCH  10   9
BRANCH  12  13
ATOM     13  N   UNL     1      -1.546  -1.776  -3.541  0.00  0.00    -0.281 N 
ATOM     14  C   UNL     1      -1.553  -0.665  -4.369  0.00  0.00    +0.248 C 
ATOM     30  O   UNL     1      -1.416  -0.706  -5.582  0.00  0.00    -0.270 OA
ATOM     31  H   UNL     1      -1.474  -1.590  -2.541  0.00  0.00    +0.155 HD
BRANCH  14  15
ATOM     15  C   UNL     1      -1.722   0.689  -3.758  0.00  0.00    +0.037 A 
ATOM     16  C   UNL     1      -2.480   0.874  -2.519  0.00  0.00    +0.013 A 
ATOM     17  C   UNL     1      -2.642   2.193  -1.960  0.00  0.00    +0.005 A 
ATOM     18  C   UNL     1      -2.042   3.338  -2.641  0.00  0.00    -0.033 A 
ATOM     28  C   UNL     1      -1.290   3.125  -3.867  0.00  0.00    +0.005 A 
ATOM     29  C   UNL     1      -1.130   1.834  -4.418  0.00  0.00    +0.013 A 
BRANCH  18  19
ATOM     19  C   UNL     1      -2.182   4.784  -2.129  0.00  0.00    +0.119 C 
BRANCH  19  20
ATOM     20  N   UNL     1      -2.876   5.761  -3.020  0.00  0.00    -0.302 NA
ATOM     21  C   UNL     1      -2.961   7.153  -2.388  0.00  0.00    +0.066 C 
ATOM     22  C   UNL     1      -3.670   8.169  -3.343  0.00  0.00    -0.064 C 
ATOM     23  N   UNL     1      -5.064   7.646  -3.695  0.00  0.00    +0.379 N 
ATOM     24  C   UNL     1      -5.755   8.626  -4.546  0.00  0.00    -0.096 C 
ATOM     25  H   UNL     1      -5.641   7.557  -2.745  0.00  0.00    -0.082 HD
ATOM     26  C   UNL     1      -4.988   6.261  -4.320  0.00  0.00    -0.064 C 
ATOM     27  C   UNL     1      -4.256   5.267  -3.376  0.00  0.00    +0.066 C 
ENDBRANCH  19  20
ENDBRANCH  18  19
ENDBRANCH  14  15
ENDBRANCH  12  13
TORSDOF 6
ENDMDL
MODEL 2
REMARK VINA RESULT:     -11.4      2.055      2.391
REMARK  Name = C:\Users\Docking\Desktop\test protocol\1iep_ligandH.pdb
REMARK  8 active torsions:
REMARK  status: ('A' for Active; 'I' for Inactive)
REMARK    1  A    between atoms: _5  and  _11
REMARK    2  A    between atoms: _19  and  _21
REMARK    3  A    between atoms: _22  and  _66
REMARK    4  A    between atoms: _27  and  _30
REMARK    5  A    between atoms: _32  and  _33
REMARK    6  A    between atoms: _38  and  _43
REMARK    7  A    between atoms: _43  and  _46
REMARK    8  A    between atoms: _53  and  _55
REMARK                            x       y       z     vdW  Elec       q    Type
REMARK                         _______ _______ _______ _____ _____    ______ ____
ROOT
ATOM     10  C   UNL     1      -2.991  -5.688  -5.174  0.00  0.00    +0.038 A 
ATOM     11  C   UNL     1      -2.794  -4.289  -5.040  0.00  0.00    +0.047 A 
ATOM     12  C   UNL     1      -1.522  -3.748  -4.590  0.00  0.00    +0.035 A 
ATOM     32  C   UNL     1      -0.469  -4.660  -4.287  0.00  0.00    +0.024 A 
ATOM     33  C   UNL     1      -0.652  -6.085  -4.416  0.00  0.00    +0.007 A 
ATOM     34  C   UNL     1      -1.906  -6.624  -4.858  0.00  0.00    -0.029 A 
ATOM     35  C   UNL     1      -2.048  -8.160  -4.972  0.00  0.00    +0.045 C 
ENDROOT
BRANCH  10   9
ATOM      4  C   UNL     1      -6.049  -6.970  -8.644  0.00  0.00    +0.077 A 
ATOM      5  C   UNL     1      -5.101  -6.662  -9.676  0.00  0.00    +0.048 A 
ATOM      6  C   UNL     1      -3.839  -6.170  -9.271  0.00  0.00    +0.116 A 
ATOM      7  N   UNL     1      -3.559  -6.001  -7.933  0.00  0.00    -0.223 NA
ATOM      8  C   UNL     1      -4.497  -6.306  -6.964  0.00  0.00    +0.220 A 
ATOM      9  N   UNL     1      -4.234  -6.152  -5.611  0.00  0.00    -0.283 N 
ATOM     36  H   UNL     1      -4.955  -6.381  -4.928  0.00  0.00    +0.155 HD
ATOM     37  N   UNL     1      -5.709  -6.777  -7.324  0.00  0.00    -0.214 NA
BRANCH   4   3
ATOM      1  C   UNL     1      -9.222  -8.374 -10.451  0.00  0.00    +0.020 A 
ATOM      2  C   UNL     1      -7.886  -7.864 -10.246  0.00  0.00    +0.013 A 
ATOM      3  C   UNL     1      -7.423  -7.501  -8.912  0.00  0.00    +0.019 A 
ATOM     38  C   UNL     1      -8.344  -7.669  -7.798  0.00  0.00    +0.120 A 
ATOM     39  N   UNL     1      -9.625  -8.160  -8.026  0.00  0.00    -0.263 NA
ATOM     40  C   UNL     1     -10.082  -8.511  -9.305  0.00  0.00    +0.111 A 
ENDBRANCH   4   3
ENDBRANCH  10   9
BRANCH  12  13
ATOM     13  N   UNL     1      -1.266  -2.339  -4.427  0.00  0.00    -0.281 N 
ATOM     14  C   UNL     1      -1.195  -1.617  -3.247  0.00  0.00    +0.248 C 
ATOM     30  O   UNL     1      -1.553  -2.037  -2.157  0.00  0.00    -0.270 OA
ATOM     31  H   UNL     1      -1.120  -1.808  -5.286  0.00  0.00    +0.155 HD
BRANCH  14  15
ATOM     15  C   UNL     1      -0.661  -0.221  -3.285  0.00  0.00    +0.037 A 
ATOM     16  C   UNL     1      -1.356   0.838  -4.021  0.00  0.00    +0.013 A 
ATOM     17  C   UNL     1      -0.811   2.172  -4.056  0.00  0.00    +0.005 A 
ATOM     18  C   UNL     1       0.437   2.454  -3.350  0.00  0.00    -0.033 A 
ATOM     28  C   UNL     1       1.103   1.386  -2.624  0.00  0.00    +0.005 A 
ATOM     29  C   UNL     1       0.572   0.077  -2.588  0.00  0.00    +0.013 A 
BRANCH  18  19
ATOM     19  C   UNL     1       1.103   3.843  -3.351  0.00  0.00    +0.119 C 
BRANCH  19  20
ATOM     20  N   UNL     1       0.211   5.029  -3.182  0.00  0.00    -0.302 NA
ATOM     21  C   UNL     1       0.896   6.329  -3.612  0.00  0.00    +0.066 C 
ATOM     22  C   UNL     1      -0.059   7.556  -3.450  0.00  0.00    -0.064 C 
ATOM     23  N   UNL     1      -0.527   7.646  -1.996  0.00  0.00    +0.379 N 
ATOM     24  C   UNL     1      -1.379   8.832  -1.827  0.00  0.00    -0.096 C 
ATOM     25  H   UNL     1       0.377   7.785  -1.358  0.00  0.00    -0.082 HD
ATOM     26  C   UNL     1      -1.207   6.356  -1.559  0.00  0.00    -0.064 C 
ATOM     27  C   UNL     1      -0.260   5.139  -1.752  0.00  0.00    +0.066 C 
ENDBRANCH  19  20
ENDBRANCH  18  19
ENDBRANCH  14  15
ENDBRANCH  12  13
TORSDOF 6
ENDMDL
MODEL 3
REMARK VINA RESULT:     -10.8      2.223     12.409
REMARK  Name = C:\Users\Docking\Desktop\test protocol\1iep_ligandH.pdb
REMARK  8 active torsions:
REMARK  status: ('A' for Active; 'I' for Inactive)
REMARK    1  A    between atoms: _5  and  _11
REMARK    2  A    between atoms: _19  and  _21
REMARK    3  A    between atoms: _22  and  _66
REMARK    4  A    between atoms: _27  and  _30
REMARK    5  A    between atoms: _32  and  _33
REMARK    6  A    between atoms: _38  and  _43
REMARK    7  A    between atoms: _43  and  _46
REMARK    8  A    between atoms: _53  and  _55
REMARK                            x       y       z     vdW  Elec       q    Type
REMARK                         _______ _______ _______ _____ _____    ______ ____
ROOT
ATOM     10  C   UNL     1      -0.938  -1.468  -3.591  0.00  0.00    +0.038 A 
ATOM     11  C   UNL     1      -1.617  -2.069  -4.683  0.00  0.00    +0.047 A 
ATOM     12  C   UNL     1      -2.103  -3.437  -4.605  0.00  0.00    +0.035 A 
ATOM     32  C   UNL     1      -1.884  -4.165  -3.400  0.00  0.00    +0.024 A 
ATOM     33  C   UNL     1      -1.195  -3.571  -2.281  0.00  0.00    +0.007 A 
ATOM     34  C   UNL     1      -0.711  -2.222  -2.352  0.00  0.00    -0.029 A 
ATOM     35  C   UNL     1       0.026  -1.638  -1.124  0.00  0.00    +0.045 C 
ENDROOT
BRANCH  10   9
ATOM      4  C   UNL     1      -1.469   3.260  -2.961  0.00  0.00    +0.077 A 
ATOM      5  C   UNL     1      -2.755   3.094  -2.348  0.00  0.00    +0.048 A 
ATOM      6  C   UNL     1      -3.247   1.776  -2.220  0.00  0.00    +0.116 A 
ATOM      7  N   UNL     1      -2.500   0.711  -2.674  0.00  0.00    -0.223 NA
ATOM      8  C   UNL     1      -1.264   0.906  -3.263  0.00  0.00    +0.220 A 
ATOM      9  N   UNL     1      -0.493  -0.151  -3.720  0.00  0.00    -0.283 N 
ATOM     36  H   UNL     1       0.411   0.035  -4.155  0.00  0.00    +0.155 HD
ATOM     37  N   UNL     1      -0.773   2.155  -3.398  0.00  0.00    -0.214 NA
BRANCH   4   3
ATOM      1  C   UNL     1       1.215   6.083  -3.315  0.00  0.00    +0.020 A 
ATOM      2  C   UNL     1       0.632   4.777  -3.111  0.00  0.00    +0.013 A 
ATOM      3  C   UNL     1      -0.812   4.590  -3.165  0.00  0.00    +0.019 A 
ATOM     38  C   UNL     1      -1.645   5.754  -3.430  0.00  0.00    +0.120 A 
ATOM     39  N   UNL     1      -1.055   6.999  -3.621  0.00  0.00    -0.263 NA
ATOM     40  C   UNL     1       0.334   7.192  -3.569  0.00  0.00    +0.111 A 
ENDBRANCH   4   3
ENDBRANCH  10   9
BRANCH  12  13
ATOM     13  N   UNL     1      -2.791  -4.102  -5.684  0.00  0.00    -0.281 N 
ATOM     14  C   UNL     1      -2.935  -5.465  -5.891  0.00  0.00    +0.248 C 
ATOM     30  O   UNL     1      -2.308  -6.325  -5.291  0.00  0.00    -0.270 OA
ATOM     31  H   UNL     1      -3.225  -3.495  -6.380  0.00  0.00    +0.155 HD
BRANCH  14  15
ATOM     15  C   UNL     1      -3.906  -5.939  -6.924  0.00  0.00    +0.037 A 
ATOM     16  C   UNL     1      -5.299  -6.235  -6.579  0.00  0.00    +0.013 A 
ATOM     17  C   UNL     1      -6.210  -6.708  -7.591  0.00  0.00    +0.005 A 
ATOM     18  C   UNL     1      -5.730  -6.887  -8.959  0.00  0.00    -0.033 A 
ATOM     28  C   UNL     1      -4.344  -6.581  -9.275  0.00  0.00    +0.005 A 
ATOM     29  C   UNL     1      -3.448  -6.119  -8.285  0.00  0.00    +0.013 A 
BRANCH  18  19
ATOM     19  C   UNL     1      -6.626  -7.407 -10.098  0.00  0.00    +0.119 C 
BRANCH  19  20
ATOM     20  N   UNL     1      -8.051  -7.705  -9.765  0.00  0.00    -0.302 NA
ATOM     21  C   UNL     1      -8.177  -8.621  -8.545  0.00  0.00    +0.066 C 
ATOM     22  C   UNL     1      -9.674  -8.904  -8.197  0.00  0.00    -0.064 C 
ATOM     23  N   UNL     1     -10.369  -9.522  -9.412  0.00  0.00    +0.379 N 
ATOM     24  C   UNL     1     -11.762  -9.843  -9.069  0.00  0.00    -0.096 C 
ATOM     25  H   UNL     1      -9.849 -10.480  -9.647  0.00  0.00    -0.082 HD
ATOM     26  C   UNL     1     -10.247  -8.619 -10.631  0.00  0.00    -0.064 C 
ATOM     27  C   UNL     1      -8.755  -8.320 -10.950  0.00  0.00    +0.066 C 
ENDBRANCH  19  20
ENDBRANCH  18  19
ENDBRANCH  14  15
ENDBRANCH  12  13
TORSDOF 6
ENDMDL
MODEL 4
REMARK VINA RESULT:     -10.6      2.172     12.122
REMARK  Name = C:\Users\Docking\Desktop\test protocol\1iep_ligandH.pdb
REMARK  8 active torsions:
REMARK  status: ('A' for Active; 'I' for Inactive)
REMARK    1  A    between atoms: _5  and  _11
REMARK    2  A    between atoms: _19  and  _21
REMARK    3  A    between atoms: _22  and  _66
REMARK    4  A    between atoms: _27  and  _30
REMARK    5  A    between atoms: _32  and  _33
REMARK    6  A    between atoms: _38  and  _43
REMARK    7  A    between atoms: _43  and  _46
REMARK    8  A    between atoms: _53  and  _55
REMARK                            x       y       z     vdW  Elec       q    Type
REMARK                         _______ _______ _______ _____ _____    ______ ____
ROOT
ATOM     10  C   UNL     1      -1.620  -2.260  -3.546  0.00  0.00    +0.038 A 
ATOM     11  C   UNL     1      -2.435  -2.856  -4.542  0.00  0.00    +0.047 A 
ATOM     12  C   UNL     1      -1.975  -4.009  -5.301  0.00  0.00    +0.035 A 
ATOM     32  C   UNL     1      -0.679  -4.530  -5.017  0.00  0.00    +0.024 A 
ATOM     33  C   UNL     1       0.163  -3.936  -4.009  0.00  0.00    +0.007 A 
ATOM     34  C   UNL     1      -0.285  -2.797  -3.259  0.00  0.00    -0.029 A 
ATOM     35  C   UNL     1       0.663  -2.197  -2.195  0.00  0.00    +0.045 C 
ENDROOT
BRANCH  10   9
ATOM      4  C   UNL     1      -2.392   2.455  -3.085  0.00  0.00    +0.077 A 
ATOM      5  C   UNL     1      -1.734   2.744  -4.327  0.00  0.00    +0.048 A 
ATOM      6  C   UNL     1      -1.205   1.652  -5.050  0.00  0.00    +0.116 A 
ATOM      7  N   UNL     1      -1.330   0.370  -4.559  0.00  0.00    -0.223 NA
ATOM      8  C   UNL     1      -1.969   0.127  -3.357  0.00  0.00    +0.220 A 
ATOM      9  N   UNL     1      -2.113  -1.155  -2.848  0.00  0.00    -0.283 N 
ATOM     36  H   UNL     1      -2.584  -1.292  -1.954  0.00  0.00    +0.155 HD
ATOM     37  N   UNL     1      -2.481   1.153  -2.647  0.00  0.00    -0.214 NA
BRANCH   4   3
ATOM      1  C   UNL     1      -2.964   5.064  -0.227  0.00  0.00    +0.020 A 
ATOM      2  C   UNL     1      -2.327   4.055  -1.041  0.00  0.00    +0.013 A 
ATOM      3  C   UNL     1      -3.005   3.502  -2.207  0.00  0.00    +0.019 A 
ATOM     38  C   UNL     1      -4.336   3.996  -2.525  0.00  0.00    +0.120 A 
ATOM     39  N   UNL     1      -4.925   4.968  -1.722  0.00  0.00    -0.263 NA
ATOM     40  C   UNL     1      -4.283   5.506  -0.597  0.00  0.00    +0.111 A 
ENDBRANCH   4   3
ENDBRANCH  10   9
BRANCH  12  13
ATOM     13  N   UNL     1      -2.755  -4.651  -6.329  0.00  0.00    -0.281 N 
ATOM     14  C   UNL     1      -3.239  -5.949  -6.346  0.00  0.00    +0.248 C 
ATOM     30  O   UNL     1      -2.891  -6.826  -5.569  0.00  0.00    -0.270 OA
ATOM     31  H   UNL     1      -2.977  -4.080  -7.145  0.00  0.00    +0.155 HD
BRANCH  14  15
ATOM     15  C   UNL     1      -4.244  -6.332  -7.384  0.00  0.00    +0.037 A 
ATOM     16  C   UNL     1      -3.838  -6.632  -8.760  0.00  0.00    +0.013 A 
ATOM     17  C   UNL     1      -4.830  -6.982  -9.746  0.00  0.00    +0.005 A 
ATOM     18  C   UNL     1      -6.237  -7.036  -9.358  0.00  0.00    -0.033 A 
ATOM     28  C   UNL     1      -6.611  -6.739  -7.985  0.00  0.00    +0.005 A 
ATOM     29  C   UNL     1      -5.642  -6.394  -7.016  0.00  0.00    +0.013 A 
BRANCH  18  19
ATOM     19  C   UNL     1      -7.365  -7.380 -10.349  0.00  0.00    +0.119 C 
BRANCH  19  20
ATOM     20  N   UNL     1      -8.651  -7.877  -9.776  0.00  0.00    -0.302 NA
ATOM     21  C   UNL     1      -8.426  -8.944  -8.701  0.00  0.00    +0.066 C 
ATOM     22  C   UNL     1      -9.781  -9.438  -8.095  0.00  0.00    -0.064 C 
ATOM     23  N   UNL     1     -10.670  -9.978  -9.217  0.00  0.00    +0.379 N 
ATOM     24  C   UNL     1     -11.921 -10.495  -8.644  0.00  0.00    -0.096 C 
ATOM     25  H   UNL     1     -10.135 -10.833  -9.690  0.00  0.00    -0.082 HD
ATOM     26  C   UNL     1     -10.897  -8.924 -10.291  0.00  0.00    -0.064 C 
ATOM     27  C   UNL     1      -9.543  -8.419 -10.865  0.00  0.00    +0.066 C 
ENDBRANCH  19  20
ENDBRANCH  18  19
ENDBRANCH  14  15
ENDBRANCH  12  13
TORSDOF 6
ENDMDL
MODEL 5
REMARK VINA RESULT:     -10.3      7.135     13.901
REMARK  Name = C:\Users\Docking\Desktop\test protocol\1iep_ligandH.pdb
REMARK  8 active torsions:
REMARK  status: ('A' for Active; 'I' for Inactive)
REMARK    1  A    between atoms: _5  and  _11
REMARK    2  A    between atoms: _19  and  _21
REMARK    3  A    between atoms: _22  and  _66
REMARK    4  A    between atoms: _27  and  _30
REMARK    5  A    between atoms: _32  and  _33
REMARK    6  A    between atoms: _38  and  _43
REMARK    7  A    between atoms: _43  and  _46
REMARK    8  A    between atoms: _53  and  _55
REMARK                            x       y       z     vdW  Elec       q    Type
REMARK                         _______ _______ _______ _____ _____    ______ ____
ROOT
ATOM     10  C   UNL     1     -15.023 -10.797  -9.308  0.00  0.00    +0.038 A 
ATOM     11  C   UNL     1     -13.752 -10.227  -9.575  0.00  0.00    +0.047 A 
ATOM     12  C   UNL     1     -12.540 -10.785  -8.995  0.00  0.00    +0.035 A 
ATOM     32  C   UNL     1     -12.659 -11.926  -8.149  0.00  0.00    +0.024 A 
ATOM     33  C   UNL     1     -13.943 -12.517  -7.867  0.00  0.00    +0.007 A 
ATOM     34  C   UNL     1     -15.142 -11.970  -8.434  0.00  0.00    -0.029 A 
ATOM     35  C   UNL     1     -16.493 -12.641  -8.091  0.00  0.00    +0.045 C 
ENDROOT
BRANCH  10   9
ATOM      4  C   UNL     1     -17.782  -9.797 -13.106  0.00  0.00    +0.077 A 
ATOM      5  C   UNL     1     -16.881 -10.456 -14.008  0.00  0.00    +0.048 A 
ATOM      6  C   UNL     1     -15.716 -11.033 -13.456  0.00  0.00    +0.116 A 
ATOM      7  N   UNL     1     -15.479 -10.952 -12.101  0.00  0.00    -0.223 NA
ATOM      8  C   UNL     1     -16.367 -10.307 -11.259  0.00  0.00    +0.220 A 
ATOM      9  N   UNL     1     -16.153 -10.220  -9.892  0.00  0.00    -0.283 N 
ATOM     36  H   UNL     1     -16.829  -9.730  -9.306  0.00  0.00    +0.155 HD
ATOM     37  N   UNL     1     -17.487  -9.747 -11.762  0.00  0.00    -0.214 NA
BRANCH   4   3
ATOM      1  C   UNL     1     -21.101  -8.979 -15.008  0.00  0.00    +0.020 A 
ATOM      2  C   UNL     1     -19.878  -9.649 -14.630  0.00  0.00    +0.013 A 
ATOM      3  C   UNL     1     -19.057  -9.142 -13.538  0.00  0.00    +0.019 A 
ATOM     38  C   UNL     1     -19.506  -7.946 -12.842  0.00  0.00    +0.120 A 
ATOM     39  N   UNL     1     -20.687  -7.321 -13.228  0.00  0.00    -0.263 NA
ATOM     40  C   UNL     1     -21.485  -7.799 -14.279  0.00  0.00    +0.111 A 
ENDBRANCH   4   3
ENDBRANCH  10   9
BRANCH  12  13
ATOM     13  N   UNL     1     -11.223 -10.244  -9.223  0.00  0.00    -0.281 N 
ATOM     14  C   UNL     1     -10.878  -9.129  -9.970  0.00  0.00    +0.248 C 
ATOM     30  O   UNL     1     -11.634  -8.548 -10.735  0.00  0.00    -0.270 OA
ATOM     31  H   UNL     1     -10.452 -10.743  -8.781  0.00  0.00    +0.155 HD
BRANCH  14  15
ATOM     15  C   UNL     1      -9.488  -8.591  -9.863  0.00  0.00    +0.037 A 
ATOM     16  C   UNL     1      -8.964  -8.088  -8.591  0.00  0.00    +0.013 A 
ATOM     17  C   UNL     1      -7.625  -7.558  -8.519  0.00  0.00    +0.005 A 
ATOM     18  C   UNL     1      -6.800  -7.529  -9.724  0.00  0.00    -0.033 A 
ATOM     28  C   UNL     1      -7.343  -8.040 -10.972  0.00  0.00    +0.005 A 
ATOM     29  C   UNL     1      -8.655  -8.559 -11.047  0.00  0.00    +0.013 A 
BRANCH  18  19
ATOM     19  C   UNL     1      -5.368  -6.962  -9.745  0.00  0.00    +0.119 C 
BRANCH  19  20
ATOM     20  N   UNL     1      -4.644  -6.888  -8.441  0.00  0.00    -0.302 NA
ATOM     21  C   UNL     1      -5.489  -6.224  -7.351  0.00  0.00    +0.066 C 
ATOM     22  C   UNL     1      -4.724  -6.175  -5.988  0.00  0.00    -0.064 C 
ATOM     23  N   UNL     1      -3.401  -5.430  -6.176  0.00  0.00    +0.379 N 
ATOM     24  C   UNL     1      -2.706  -5.332  -4.884  0.00  0.00    -0.096 C 
ATOM     25  H   UNL     1      -3.641  -4.395  -6.511  0.00  0.00    -0.082 HD
ATOM     26  C   UNL     1      -2.555  -6.083  -7.260  0.00  0.00    -0.064 C 
ATOM     27  C   UNL     1      -3.336  -6.153  -8.602  0.00  0.00    +0.066 C 
ENDBRANCH  19  20
ENDBRANCH  18  19
ENDBRANCH  14  15
ENDBRANCH  12  13
TORSDOF 6
ENDMDL
