MODEL 1
REMARK VINA RESULT:      -7.5      0.000      0.000
REMARK  Name = C:\Users\Docking\Desktop\test protocol\1iep_ligandH.pdb
REMARK  8 active torsions:
REMARK  status: ('A' for Active; 'I' for Inactive)
REMARK    1  A    between atoms: _5  and  _11
REMARK    2  A    between atoms: _19  and  _21
REMARK    3  A    between atoms: _22  and  _66
REMARK    4  A    between atoms: _27  and  _30
REMARK    5  A    between atoms: _32  and  _33
REMARK    6  A    between atoms: _38  and  _43
REMARK    7  A    between atoms: _43  and  _46
REMARK    8  A    between atoms: _53  and  _55
REMARK                            x       y       z     vdW  Elec       q    Type
REMARK                         _______ _______ _______ _____ _____    ______ ____
ROOT
ATOM     10  C   UNL     1      -5.588  -1.777  30.240  0.00  0.00    +0.038 A 
ATOM     11  C   UNL     1      -4.605  -1.199  31.083  0.00  0.00    +0.047 A 
ATOM     12  C   UNL     1      -4.967  -0.227  32.104  0.00  0.00    +0.035 A 
ATOM     32  C   UNL     1      -6.341   0.130  32.239  0.00  0.00    +0.024 A 
ATOM     33  C   UNL     1      -7.352  -0.447  31.389  0.00  0.00    +0.007 A 
ATOM     34  C   UNL     1      -7.001  -1.404  30.379  0.00  0.00    -0.029 A 
ATOM     35  C   UNL     1      -8.126  -1.986  29.492  0.00  0.00    +0.045 C 
ENDROOT
BRANCH  10   9
ATOM      4  C   UNL     1      -4.777  -6.275  28.774  0.00  0.00    +0.077 A 
ATOM      5  C   UNL     1      -5.164  -6.821  30.042  0.00  0.00    +0.048 A 
ATOM      6  C   UNL     1      -5.559  -5.910  31.048  0.00  0.00    +0.116 A 
ATOM      7  N   UNL     1      -5.562  -4.556  30.792  0.00  0.00    -0.223 NA
ATOM      8  C   UNL     1      -5.181  -4.062  29.558  0.00  0.00    +0.220 A 
ATOM      9  N   UNL     1      -5.184  -2.705  29.277  0.00  0.00    -0.283 N 
ATOM     36  H   UNL     1      -4.889  -2.380  28.356  0.00  0.00    +0.155 HD
ATOM     37  N   UNL     1      -4.798  -4.912  28.582  0.00  0.00    -0.214 NA
BRANCH   4   3
ATOM      1  C   UNL     1      -4.730  -8.212  25.376  0.00  0.00    +0.020 A 
ATOM      2  C   UNL     1      -5.203  -7.401  26.474  0.00  0.00    +0.013 A 
ATOM      3  C   UNL     1      -4.338  -7.109  27.611  0.00  0.00    +0.019 A 
ATOM     38  C   UNL     1      -2.990  -7.657  27.604  0.00  0.00    +0.120 A 
ATOM     39  N   UNL     1      -2.562  -8.435  26.533  0.00  0.00    -0.263 NA
ATOM     40  C   UNL     1      -3.386  -8.724  25.435  0.00  0.00    +0.111 A 
ENDBRANCH   4   3
ENDBRANCH  10   9
BRANCH  12  13
ATOM     13  N   UNL     1      -4.013   0.400  32.984  0.00  0.00    -0.281 N 
ATOM     14  C   UNL     1      -3.399  -0.144  34.101  0.00  0.00    +0.248 C 
ATOM     30  O   UNL     1      -3.742  -1.186  34.639  0.00  0.00    -0.270 OA
ATOM     31  H   UNL     1      -3.758   1.361  32.756  0.00  0.00    +0.155 HD
BRANCH  14  15
ATOM     15  C   UNL     1      -2.248   0.583  34.718  0.00  0.00    +0.037 A 
ATOM     16  C   UNL     1      -1.654   0.133  35.979  0.00  0.00    +0.013 A 
ATOM     17  C   UNL     1      -0.555   0.862  36.561  0.00  0.00    +0.005 A 
ATOM     18  C   UNL     1      -0.042   2.049  35.881  0.00  0.00    -0.033 A 
ATOM     28  C   UNL     1      -0.647   2.469  34.627  0.00  0.00    +0.005 A 
ATOM     29  C   UNL     1      -1.725   1.758  34.054  0.00  0.00    +0.013 A 
BRANCH  18  19
ATOM     19  C   UNL     1       1.113   2.900  36.440  0.00  0.00    +0.119 C 
BRANCH  19  20
ATOM     20  N   UNL     1       0.968   3.419  37.832  0.00  0.00    -0.302 NA
ATOM     21  C   UNL     1      -0.318   4.231  38.012  0.00  0.00    +0.066 C 
ATOM     22  C   UNL     1      -0.465   4.747  39.480  0.00  0.00    -0.064 C 
ATOM     23  N   UNL     1       0.761   5.586  39.848  0.00  0.00    +0.379 N 
ATOM     24  C   UNL     1       0.599   6.121  41.208  0.00  0.00    -0.096 C 
ATOM     25  H   UNL     1       0.801   6.451  39.146  0.00  0.00    -0.082 HD
ATOM     26  C   UNL     1       2.044   4.787  39.670  0.00  0.00    -0.064 C 
ATOM     27  C   UNL     1       2.166   4.254  38.215  0.00  0.00    +0.066 C 
ENDBRANCH  19  20
ENDBRANCH  18  19
ENDBRANCH  14  15
ENDBRANCH  12  13
TORSDOF 6
ENDMDL
MODEL 2
REMARK VINA RESULT:      -6.9      2.916      5.780
REMARK  Name = C:\Users\Docking\Desktop\test protocol\1iep_ligandH.pdb
REMARK  8 active torsions:
REMARK  status: ('A' for Active; 'I' for Inactive)
REMARK    1  A    between atoms: _5  and  _11
REMARK    2  A    between atoms: _19  and  _21
REMARK    3  A    between atoms: _22  and  _66
REMARK    4  A    between atoms: _27  and  _30
REMARK    5  A    between atoms: _32  and  _33
REMARK    6  A    between atoms: _38  and  _43
REMARK    7  A    between atoms: _43  and  _46
REMARK    8  A    between atoms: _53  and  _55
REMARK                            x       y       z     vdW  Elec       q    Type
REMARK                         _______ _______ _______ _____ _____    ______ ____
ROOT
ATOM     10  C   UNL     1      -5.911  -1.811  30.261  0.00  0.00    +0.038 A 
ATOM     11  C   UNL     1      -5.118  -0.894  30.996  0.00  0.00    +0.047 A 
ATOM     12  C   UNL     1      -4.085  -1.356  31.910  0.00  0.00    +0.035 A 
ATOM     32  C   UNL     1      -3.885  -2.760  32.049  0.00  0.00    +0.024 A 
ATOM     33  C   UNL     1      -4.683  -3.707  31.310  0.00  0.00    +0.007 A 
ATOM     34  C   UNL     1      -5.705  -3.257  30.409  0.00  0.00    -0.029 A 
ATOM     35  C   UNL     1      -6.535  -4.317  29.648  0.00  0.00    +0.045 C 
ENDROOT
BRANCH  10   9
ATOM      4  C   UNL     1     -10.367  -0.282  29.344  0.00  0.00    +0.077 A 
ATOM      5  C   UNL     1     -10.791  -0.522  30.693  0.00  0.00    +0.048 A 
ATOM      6  C   UNL     1      -9.834  -1.047  31.590  0.00  0.00    +0.116 A 
ATOM      7  N   UNL     1      -8.551  -1.307  31.159  0.00  0.00    -0.223 NA
ATOM      8  C   UNL     1      -8.176  -1.065  29.851  0.00  0.00    +0.220 A 
ATOM      9  N   UNL     1      -6.889  -1.312  29.397  0.00  0.00    -0.283 N 
ATOM     36  H   UNL     1      -6.654  -1.128  28.422  0.00  0.00    +0.155 HD
ATOM     37  N   UNL     1      -9.072  -0.566  28.974  0.00  0.00    -0.214 NA
BRANCH   4   3
ATOM      1  C   UNL     1     -12.199   2.176  26.914  0.00  0.00    +0.020 A 
ATOM      2  C   UNL     1     -11.317   1.692  27.951  0.00  0.00    +0.013 A 
ATOM      3  C   UNL     1     -11.263   0.273  28.280  0.00  0.00    +0.019 A 
ATOM     38  C   UNL     1     -12.119  -0.637  27.534  0.00  0.00    +0.120 A 
ATOM     39  N   UNL     1     -12.959  -0.141  26.542  0.00  0.00    -0.263 NA
ATOM     40  C   UNL     1     -13.021   1.222  26.218  0.00  0.00    +0.111 A 
ENDBRANCH   4   3
ENDBRANCH  10   9
BRANCH  12  13
ATOM     13  N   UNL     1      -3.254  -0.471  32.689  0.00  0.00    -0.281 N 
ATOM     14  C   UNL     1      -3.316  -0.224  34.051  0.00  0.00    +0.248 C 
ATOM     30  O   UNL     1      -4.239  -0.567  34.774  0.00  0.00    -0.270 OA
ATOM     31  H   UNL     1      -2.533   0.034  32.174  0.00  0.00    +0.155 HD
BRANCH  14  15
ATOM     15  C   UNL     1      -2.197   0.525  34.700  0.00  0.00    +0.037 A 
ATOM     16  C   UNL     1      -1.649   0.103  35.991  0.00  0.00    +0.013 A 
ATOM     17  C   UNL     1      -0.581   0.853  36.604  0.00  0.00    +0.005 A 
ATOM     18  C   UNL     1      -0.054   2.034  35.924  0.00  0.00    -0.033 A 
ATOM     28  C   UNL     1      -0.613   2.427  34.641  0.00  0.00    +0.005 A 
ATOM     29  C   UNL     1      -1.660   1.695  34.038  0.00  0.00    +0.013 A 
BRANCH  18  19
ATOM     19  C   UNL     1       1.070   2.906  36.513  0.00  0.00    +0.119 C 
BRANCH  19  20
ATOM     20  N   UNL     1       0.670   3.982  37.469  0.00  0.00    -0.302 NA
ATOM     21  C   UNL     1       1.455   3.904  38.782  0.00  0.00    +0.066 C 
ATOM     22  C   UNL     1       1.040   5.050  39.761  0.00  0.00    -0.064 C 
ATOM     23  N   UNL     1      -0.465   4.973  40.024  0.00  0.00    +0.379 N 
ATOM     24  C   UNL     1      -0.848   6.013  40.990  0.00  0.00    -0.096 C 
ATOM     25  H   UNL     1      -0.676   3.983  40.491  0.00  0.00    -0.082 HD
ATOM     26  C   UNL     1      -1.252   5.047  38.724  0.00  0.00    -0.064 C 
ATOM     27  C   UNL     1      -0.812   3.922  37.746  0.00  0.00    +0.066 C 
ENDBRANCH  19  20
ENDBRANCH  18  19
ENDBRANCH  14  15
ENDBRANCH  12  13
TORSDOF 6
ENDMDL
MODEL 3
REMARK VINA RESULT:      -6.4     17.286     21.830
REMARK  Name = C:\Users\Docking\Desktop\test protocol\1iep_ligandH.pdb
REMARK  8 active torsions:
REMARK  status: ('A' for Active; 'I' for Inactive)
REMARK    1  A    between atoms: _5  and  _11
REMARK    2  A    between atoms: _19  and  _21
REMARK    3  A    between atoms: _22  and  _66
REMARK    4  A    between atoms: _27  and  _30
REMARK    5  A    between atoms: _32  and  _33
REMARK    6  A    between atoms: _38  and  _43
REMARK    7  A    between atoms: _43  and  _46
REMARK    8  A    between atoms: _53  and  _55
REMARK                            x       y       z     vdW  Elec       q    Type
REMARK                         _______ _______ _______ _____ _____    ______ ____
ROOT
ATOM     10  C   UNL     1      -0.136  21.111  34.126  0.00  0.00    +0.038 A 
ATOM     11  C   UNL     1       0.571  19.958  34.552  0.00  0.00    +0.047 A 
ATOM     12  C   UNL     1       1.927  20.054  35.071  0.00  0.00    +0.035 A 
ATOM     32  C   UNL     1       2.532  21.343  35.144  0.00  0.00    +0.024 A 
ATOM     33  C   UNL     1       1.828  22.526  34.714  0.00  0.00    +0.007 A 
ATOM     34  C   UNL     1       0.492  22.437  34.200  0.00  0.00    -0.029 A 
ATOM     35  C   UNL     1      -0.212  23.737  33.748  0.00  0.00    +0.045 C 
ENDROOT
BRANCH  10   9
ATOM      4  C   UNL     1      -4.833  20.347  34.754  0.00  0.00    +0.077 A 
ATOM      5  C   UNL     1      -4.681  20.210  36.174  0.00  0.00    +0.048 A 
ATOM      6  C   UNL     1      -3.376  20.336  36.702  0.00  0.00    +0.116 A 
ATOM      7  N   UNL     1      -2.311  20.581  35.863  0.00  0.00    -0.223 NA
ATOM      8  C   UNL     1      -2.491  20.706  34.498  0.00  0.00    +0.220 A 
ATOM      9  N   UNL     1      -1.435  20.961  33.637  0.00  0.00    -0.283 N 
ATOM     36  H   UNL     1      -1.609  21.039  32.635  0.00  0.00    +0.155 HD
ATOM     37  N   UNL     1      -3.727  20.589  33.969  0.00  0.00    -0.214 NA
BRANCH   4   3
ATOM      1  C   UNL     1      -7.844  19.002  32.651  0.00  0.00    +0.020 A 
ATOM      2  C   UNL     1      -6.563  19.051  33.317  0.00  0.00    +0.013 A 
ATOM      3  C   UNL     1      -6.148  20.243  34.046  0.00  0.00    +0.019 A 
ATOM     38  C   UNL     1      -7.059  21.377  34.082  0.00  0.00    +0.120 A 
ATOM     39  N   UNL     1      -8.286  21.302  33.430  0.00  0.00    -0.263 NA
ATOM     40  C   UNL     1      -8.696  20.160  32.724  0.00  0.00    +0.111 A 
ENDBRANCH   4   3
ENDBRANCH  10   9
BRANCH  12  13
ATOM     13  N   UNL     1       2.696  18.917  35.511  0.00  0.00    -0.281 N 
ATOM     14  C   UNL     1       3.239  17.905  34.736  0.00  0.00    +0.248 C 
ATOM     30  O   UNL     1       2.961  17.709  33.562  0.00  0.00    -0.270 OA
ATOM     31  H   UNL     1       2.861  18.850  36.515  0.00  0.00    +0.155 HD
BRANCH  14  15
ATOM     15  C   UNL     1       4.220  16.966  35.359  0.00  0.00    +0.037 A 
ATOM     16  C   UNL     1       3.802  15.988  36.367  0.00  0.00    +0.013 A 
ATOM     17  C   UNL     1       4.773  15.105  36.964  0.00  0.00    +0.005 A 
ATOM     18  C   UNL     1       6.172  15.196  36.554  0.00  0.00    -0.033 A 
ATOM     28  C   UNL     1       6.558  16.172  35.548  0.00  0.00    +0.005 A 
ATOM     29  C   UNL     1       5.610  17.040  34.961  0.00  0.00    +0.013 A 
BRANCH  18  19
ATOM     19  C   UNL     1       7.279  14.309  37.154  0.00  0.00    +0.119 C 
BRANCH  19  20
ATOM     20  N   UNL     1       7.229  12.849  36.843  0.00  0.00    -0.302 NA
ATOM     21  C   UNL     1       7.176  11.993  38.112  0.00  0.00    +0.066 C 
ATOM     22  C   UNL     1       7.101  10.470  37.768  0.00  0.00    -0.064 C 
ATOM     23  N   UNL     1       8.304  10.085  36.904  0.00  0.00    +0.379 N 
ATOM     24  C   UNL     1       8.267   8.642  36.627  0.00  0.00    -0.096 C 
ATOM     25  H   UNL     1       9.225  10.293  37.496  0.00  0.00    -0.082 HD
ATOM     26  C   UNL     1       8.365  10.934  35.642  0.00  0.00    -0.064 C 
ATOM     27  C   UNL     1       8.409  12.447  35.994  0.00  0.00    +0.066 C 
ENDBRANCH  19  20
ENDBRANCH  18  19
ENDBRANCH  14  15
ENDBRANCH  12  13
TORSDOF 6
ENDMDL
MODEL 4
REMARK VINA RESULT:      -6.3     15.174     20.332
REMARK  Name = C:\Users\Docking\Desktop\test protocol\1iep_ligandH.pdb
REMARK  8 active torsions:
REMARK  status: ('A' for Active; 'I' for Inactive)
REMARK    1  A    between atoms: _5  and  _11
REMARK    2  A    between atoms: _19  and  _21
REMARK    3  A    between atoms: _22  and  _66
REMARK    4  A    between atoms: _27  and  _30
REMARK    5  A    between atoms: _32  and  _33
REMARK    6  A    between atoms: _38  and  _43
REMARK    7  A    between atoms: _43  and  _46
REMARK    8  A    between atoms: _53  and  _55
REMARK                            x       y       z     vdW  Elec       q    Type
REMARK                         _______ _______ _______ _____ _____    ______ ____
ROOT
ATOM     10  C   UNL     1       5.754  13.638  38.547  0.00  0.00    +0.038 A 
ATOM     11  C   UNL     1       4.902  14.413  37.720  0.00  0.00    +0.047 A 
ATOM     12  C   UNL     1       4.719  15.838  37.952  0.00  0.00    +0.035 A 
ATOM     32  C   UNL     1       5.423  16.441  39.034  0.00  0.00    +0.024 A 
ATOM     33  C   UNL     1       6.293  15.669  39.885  0.00  0.00    +0.007 A 
ATOM     34  C   UNL     1       6.475  14.263  39.663  0.00  0.00    -0.029 A 
ATOM     35  C   UNL     1       7.415  13.483  40.611  0.00  0.00    +0.045 C 
ENDROOT
BRANCH  10   9
ATOM      4  C   UNL     1       7.967   9.945  36.426  0.00  0.00    +0.077 A 
ATOM      5  C   UNL     1       8.911  10.808  35.776  0.00  0.00    +0.048 A 
ATOM      6  C   UNL     1       8.789  12.196  36.008  0.00  0.00    +0.116 A 
ATOM      7  N   UNL     1       7.793  12.675  36.831  0.00  0.00    -0.223 NA
ATOM      8  C   UNL     1       6.897  11.816  37.441  0.00  0.00    +0.220 A 
ATOM      9  N   UNL     1       5.893  12.275  38.279  0.00  0.00    -0.283 N 
ATOM     36  H   UNL     1       5.247  11.609  38.704  0.00  0.00    +0.155 HD
ATOM     37  N   UNL     1       6.992  10.486  37.234  0.00  0.00    -0.214 NA
BRANCH   4   3
ATOM      1  C   UNL     1       7.043   6.160  36.773  0.00  0.00    +0.020 A 
ATOM      2  C   UNL     1       6.998   7.594  36.945  0.00  0.00    +0.013 A 
ATOM      3  C   UNL     1       7.969   8.455  36.282  0.00  0.00    +0.019 A 
ATOM     38  C   UNL     1       8.981   7.829  35.444  0.00  0.00    +0.120 A 
ATOM     39  N   UNL     1       9.000   6.445  35.298  0.00  0.00    -0.263 NA
ATOM     40  C   UNL     1       8.072   5.606  35.933  0.00  0.00    +0.111 A 
ENDBRANCH   4   3
ENDBRANCH  10   9
BRANCH  12  13
ATOM     13  N   UNL     1       3.860  16.674  37.150  0.00  0.00    -0.281 N 
ATOM     14  C   UNL     1       2.503  16.899  37.308  0.00  0.00    +0.248 C 
ATOM     30  O   UNL     1       1.774  16.245  38.039  0.00  0.00    -0.270 OA
ATOM     31  H   UNL     1       4.307  17.158  36.372  0.00  0.00    +0.155 HD
BRANCH  14  15
ATOM     15  C   UNL     1       1.859  18.002  36.532  0.00  0.00    +0.037 A 
ATOM     16  C   UNL     1       0.550  18.538  36.915  0.00  0.00    +0.013 A 
ATOM     17  C   UNL     1      -0.056  19.590  36.139  0.00  0.00    +0.005 A 
ATOM     18  C   UNL     1       0.647  20.114  34.970  0.00  0.00    -0.033 A 
ATOM     28  C   UNL     1       1.946  19.568  34.615  0.00  0.00    +0.005 A 
ATOM     29  C   UNL     1       2.543  18.536  35.373  0.00  0.00    +0.013 A 
BRANCH  18  19
ATOM     19  C   UNL     1       0.066  21.222  34.071  0.00  0.00    +0.119 C 
BRANCH  19  20
ATOM     20  N   UNL     1      -1.306  21.716  34.395  0.00  0.00    -0.302 NA
ATOM     21  C   UNL     1      -2.394  20.862  33.738  0.00  0.00    +0.066 C 
ATOM     22  C   UNL     1      -3.823  21.379  34.105  0.00  0.00    -0.064 C 
ATOM     23  N   UNL     1      -3.956  22.844  33.685  0.00  0.00    +0.379 N 
ATOM     24  C   UNL     1      -5.317  23.317  33.977  0.00  0.00    -0.096 C 
ATOM     25  H   UNL     1      -3.809  22.894  32.581  0.00  0.00    -0.082 HD
ATOM     26  C   UNL     1      -2.876  23.700  34.332  0.00  0.00    -0.064 C 
ATOM     27  C   UNL     1      -1.460  23.160  33.985  0.00  0.00    +0.066 C 
ENDBRANCH  19  20
ENDBRANCH  18  19
ENDBRANCH  14  15
ENDBRANCH  12  13
TORSDOF 6
ENDMDL
MODEL 5
REMARK VINA RESULT:      -6.2     10.026     16.378
REMARK  Name = C:\Users\Docking\Desktop\test protocol\1iep_ligandH.pdb
REMARK  8 active torsions:
REMARK  status: ('A' for Active; 'I' for Inactive)
REMARK    1  A    between atoms: _5  and  _11
REMARK    2  A    between atoms: _19  and  _21
REMARK    3  A    between atoms: _22  and  _66
REMARK    4  A    between atoms: _27  and  _30
REMARK    5  A    between atoms: _32  and  _33
REMARK    6  A    between atoms: _38  and  _43
REMARK    7  A    between atoms: _43  and  _46
REMARK    8  A    between atoms: _53  and  _55
REMARK                            x       y       z     vdW  Elec       q    Type
REMARK                         _______ _______ _______ _____ _____    ______ ____
ROOT
ATOM     10  C   UNL     1       8.980  -7.379  30.868  0.00  0.00    +0.038 A 
ATOM     11  C   UNL     1       7.566  -7.387  30.757  0.00  0.00    +0.047 A 
ATOM     12  C   UNL     1       6.858  -8.548  30.238  0.00  0.00    +0.035 A 
ATOM     32  C   UNL     1       7.622  -9.685  29.844  0.00  0.00    +0.024 A 
ATOM     33  C   UNL     1       9.060  -9.693  29.949  0.00  0.00    +0.007 A 
ATOM     34  C   UNL     1       9.764  -8.551  30.457  0.00  0.00    -0.029 A 
ATOM     35  C   UNL     1      11.307  -8.613  30.541  0.00  0.00    +0.045 C 
ENDROOT
BRANCH  10   9
ATOM      4  C   UNL     1      10.931  -4.860  34.456  0.00  0.00    +0.077 A 
ATOM      5  C   UNL     1      10.652  -5.892  35.412  0.00  0.00    +0.048 A 
ATOM      6  C   UNL     1       9.999  -7.053  34.941  0.00  0.00    +0.116 A 
ATOM      7  N   UNL     1       9.655  -7.162  33.611  0.00  0.00    -0.223 NA
ATOM      8  C   UNL     1       9.937  -6.147  32.716  0.00  0.00    +0.220 A 
ATOM      9  N   UNL     1       9.608  -6.239  31.372  0.00  0.00    -0.283 N 
ATOM     36  H   UNL     1       9.826  -5.464  30.746  0.00  0.00    +0.155 HD
ATOM     37  N   UNL     1      10.559  -5.028  33.141  0.00  0.00    -0.214 NA
BRANCH   4   3
ATOM      1  C   UNL     1      13.227  -1.696  34.301  0.00  0.00    +0.020 A 
ATOM      2  C   UNL     1      12.592  -2.937  33.922  0.00  0.00    +0.013 A 
ATOM      3  C   UNL     1      11.619  -3.575  34.800  0.00  0.00    +0.019 A 
ATOM     38  C   UNL     1      11.308  -2.925  36.065  0.00  0.00    +0.120 A 
ATOM     39  N   UNL     1      11.937  -1.731  36.404  0.00  0.00    -0.263 NA
ATOM     40  C   UNL     1      12.876  -1.109  35.567  0.00  0.00    +0.111 A 
ENDBRANCH   4   3
ENDBRANCH  10   9
BRANCH  12  13
ATOM     13  N   UNL     1       5.425  -8.611  30.095  0.00  0.00    -0.281 N 
ATOM     14  C   UNL     1       4.469  -8.630  31.098  0.00  0.00    +0.248 C 
ATOM     30  O   UNL     1       4.712  -8.811  32.281  0.00  0.00    -0.270 OA
ATOM     31  H   UNL     1       5.072  -8.645  29.139  0.00  0.00    +0.155 HD
BRANCH  14  15
ATOM     15  C   UNL     1       3.033  -8.432  30.731  0.00  0.00    +0.037 A 
ATOM     16  C   UNL     1       2.640  -8.076  29.365  0.00  0.00    +0.013 A 
ATOM     17  C   UNL     1       1.250  -7.875  29.042  0.00  0.00    +0.005 A 
ATOM     18  C   UNL     1       0.242  -8.031  30.087  0.00  0.00    -0.033 A 
ATOM     28  C   UNL     1       0.659  -8.390  31.433  0.00  0.00    +0.005 A 
ATOM     29  C   UNL     1       2.021  -8.587  31.753  0.00  0.00    +0.013 A 
BRANCH  18  19
ATOM     19  C   UNL     1      -1.262  -7.815  29.837  0.00  0.00    +0.119 C 
BRANCH  19  20
ATOM     20  N   UNL     1      -1.773  -8.086  28.461  0.00  0.00    -0.302 NA
ATOM     21  C   UNL     1      -3.101  -7.374  28.189  0.00  0.00    +0.066 C 
ATOM     22  C   UNL     1      -3.609  -7.651  26.737  0.00  0.00    -0.064 C 
ATOM     23  N   UNL     1      -3.751  -9.160  26.528  0.00  0.00    +0.379 N 
ATOM     24  C   UNL     1      -4.284  -9.421  25.183  0.00  0.00    -0.096 C 
ATOM     25  H   UNL     1      -4.498  -9.534  27.266  0.00  0.00    -0.082 HD
ATOM     26  C   UNL     1      -2.436  -9.876  26.798  0.00  0.00    -0.064 C 
ATOM     27  C   UNL     1      -1.925  -9.570  28.234  0.00  0.00    +0.066 C 
ENDBRANCH  19  20
ENDBRANCH  18  19
ENDBRANCH  14  15
ENDBRANCH  12  13
TORSDOF 6
ENDMDL
