MODEL 1
REMARK VINA RESULT:      -6.8      0.000      0.000
REMARK  Name = C:\Users\Docking\Desktop\test protocol\1iep_ligandH.pdb
REMARK  8 active torsions:
REMARK  status: ('A' for Active; 'I' for Inactive)
REMARK    1  A    between atoms: _5  and  _11
REMARK    2  A    between atoms: _19  and  _21
REMARK    3  A    between atoms: _22  and  _66
REMARK    4  A    between atoms: _27  and  _30
REMARK    5  A    between atoms: _32  and  _33
REMARK    6  A    between atoms: _38  and  _43
REMARK    7  A    between atoms: _43  and  _46
REMARK    8  A    between atoms: _53  and  _55
REMARK                            x       y       z     vdW  Elec       q    Type
REMARK                         _______ _______ _______ _____ _____    ______ ____
ROOT
ATOM     10  C   UNL     1     -14.522  -4.934   7.745  0.00  0.00    +0.038 A 
ATOM     11  C   UNL     1     -14.450  -4.994   9.160  0.00  0.00    +0.047 A 
ATOM     12  C   UNL     1     -13.806  -6.111   9.834  0.00  0.00    +0.035 A 
ATOM     32  C   UNL     1     -13.243  -7.148   9.035  0.00  0.00    +0.024 A 
ATOM     33  C   UNL     1     -13.307  -7.103   7.595  0.00  0.00    +0.007 A 
ATOM     34  C   UNL     1     -13.944  -6.005   6.925  0.00  0.00    -0.029 A 
ATOM     35  C   UNL     1     -13.989  -6.013   5.379  0.00  0.00    +0.045 C 
ENDROOT
BRANCH  10   9
ATOM      4  C   UNL     1     -18.382  -2.760   5.898  0.00  0.00    +0.077 A 
ATOM      5  C   UNL     1     -19.207  -3.914   6.110  0.00  0.00    +0.048 A 
ATOM      6  C   UNL     1     -18.598  -5.049   6.691  0.00  0.00    +0.116 A 
ATOM      7  N   UNL     1     -17.262  -5.021   7.030  0.00  0.00    -0.223 NA
ATOM      8  C   UNL     1     -16.495  -3.892   6.810  0.00  0.00    +0.220 A 
ATOM      9  N   UNL     1     -15.152  -3.838   7.150  0.00  0.00    -0.283 N 
ATOM     36  H   UNL     1     -14.618  -2.989   6.965  0.00  0.00    +0.155 HD
ATOM     37  N   UNL     1     -17.053  -2.796   6.255  0.00  0.00    -0.214 NA
BRANCH   4   3
ATOM      1  C   UNL     1     -19.527   0.952   5.436  0.00  0.00    +0.020 A 
ATOM      2  C   UNL     1     -19.042  -0.255   6.065  0.00  0.00    +0.013 A 
ATOM      3  C   UNL     1     -18.881  -1.483   5.296  0.00  0.00    +0.019 A 
ATOM     38  C   UNL     1     -19.222  -1.455   3.882  0.00  0.00    +0.120 A 
ATOM     39  N   UNL     1     -19.689  -0.279   3.304  0.00  0.00    -0.263 NA
ATOM     40  C   UNL     1     -19.849   0.908   4.034  0.00  0.00    +0.111 A 
ENDBRANCH   4   3
ENDBRANCH  10   9
BRANCH  12  13
ATOM     13  N   UNL     1     -13.710  -6.230  11.268  0.00  0.00    -0.281 N 
ATOM     14  C   UNL     1     -14.518  -6.970  12.116  0.00  0.00    +0.248 C 
ATOM     30  O   UNL     1     -15.583  -7.474  11.792  0.00  0.00    -0.270 OA
ATOM     31  H   UNL     1     -12.955  -5.707  11.711  0.00  0.00    +0.155 HD
BRANCH  14  15
ATOM     15  C   UNL     1     -14.088  -7.165  13.534  0.00  0.00    +0.037 A 
ATOM     16  C   UNL     1     -15.068  -7.308  14.613  0.00  0.00    +0.013 A 
ATOM     17  C   UNL     1     -14.626  -7.478  15.975  0.00  0.00    +0.005 A 
ATOM     18  C   UNL     1     -13.194  -7.508  16.264  0.00  0.00    -0.033 A 
ATOM     28  C   UNL     1     -12.243  -7.369  15.174  0.00  0.00    +0.005 A 
ATOM     29  C   UNL     1     -12.673  -7.201  13.838  0.00  0.00    +0.013 A 
BRANCH  18  19
ATOM     19  C   UNL     1     -12.632  -7.664  17.690  0.00  0.00    +0.119 C 
BRANCH  19  20
ATOM     20  N   UNL     1     -12.177  -9.026  18.100  0.00  0.00    -0.302 NA
ATOM     21  C   UNL     1     -12.783  -9.455  19.439  0.00  0.00    +0.066 C 
ATOM     22  C   UNL     1     -12.313 -10.891  19.842  0.00  0.00    -0.064 C 
ATOM     23  N   UNL     1     -10.785 -10.928  19.901  0.00  0.00    +0.379 N 
ATOM     24  C   UNL     1     -10.343 -12.261  20.336  0.00  0.00    -0.096 C 
ATOM     25  H   UNL     1     -10.460 -10.194  20.675  0.00  0.00    -0.082 HD
ATOM     26  C   UNL     1     -10.175 -10.500  18.574  0.00  0.00    -0.064 C 
ATOM     27  C   UNL     1     -10.671  -9.083  18.169  0.00  0.00    +0.066 C 
ENDBRANCH  19  20
ENDBRANCH  18  19
ENDBRANCH  14  15
ENDBRANCH  12  13
TORSDOF 6
ENDMDL
MODEL 2
REMARK VINA RESULT:      -6.8     29.277     33.784
REMARK  Name = C:\Users\Docking\Desktop\test protocol\1iep_ligandH.pdb
REMARK  8 active torsions:
REMARK  status: ('A' for Active; 'I' for Inactive)
REMARK    1  A    between atoms: _5  and  _11
REMARK    2  A    between atoms: _19  and  _21
REMARK    3  A    between atoms: _22  and  _66
REMARK    4  A    between atoms: _27  and  _30
REMARK    5  A    between atoms: _32  and  _33
REMARK    6  A    between atoms: _38  and  _43
REMARK    7  A    between atoms: _43  and  _46
REMARK    8  A    between atoms: _53  and  _55
REMARK                            x       y       z     vdW  Elec       q    Type
REMARK                         _______ _______ _______ _____ _____    ______ ____
ROOT
ATOM     10  C   UNL     1     -31.535  15.459  -0.373  0.00  0.00    +0.038 A 
ATOM     11  C   UNL     1     -31.367  15.578  -1.777  0.00  0.00    +0.047 A 
ATOM     12  C   UNL     1     -31.969  14.620  -2.691  0.00  0.00    +0.035 A 
ATOM     32  C   UNL     1     -32.738  13.553  -2.141  0.00  0.00    +0.024 A 
ATOM     33  C   UNL     1     -32.918  13.416  -0.717  0.00  0.00    +0.007 A 
ATOM     34  C   UNL     1     -32.325  14.357   0.190  0.00  0.00    -0.029 A 
ATOM     35  C   UNL     1     -32.545  14.158   1.707  0.00  0.00    +0.045 C 
ENDROOT
BRANCH  10   9
ATOM      4  C   UNL     1     -31.338  19.823   1.616  0.00  0.00    +0.077 A 
ATOM      5  C   UNL     1     -32.515  20.258   0.921  0.00  0.00    +0.048 A 
ATOM      6  C   UNL     1     -33.137  19.331   0.055  0.00  0.00    +0.116 A 
ATOM      7  N   UNL     1     -32.613  18.065  -0.096  0.00  0.00    -0.223 NA
ATOM      8  C   UNL     1     -31.475  17.678   0.588  0.00  0.00    +0.220 A 
ATOM      9  N   UNL     1     -30.935  16.408   0.458  0.00  0.00    -0.283 N 
ATOM     36  H   UNL     1     -30.090  16.164   0.974  0.00  0.00    +0.155 HD
ATOM     37  N   UNL     1     -30.862  18.546   1.420  0.00  0.00    -0.214 NA
BRANCH   4   3
ATOM      1  C   UNL     1     -29.470  21.129   4.795  0.00  0.00    +0.020 A 
ATOM      2  C   UNL     1     -30.213  20.257   3.915  0.00  0.00    +0.013 A 
ATOM      3  C   UNL     1     -30.570  20.686   2.569  0.00  0.00    +0.019 A 
ATOM     38  C   UNL     1     -30.157  22.014   2.140  0.00  0.00    +0.120 A 
ATOM     39  N   UNL     1     -29.443  22.832   3.010  0.00  0.00    -0.263 NA
ATOM     40  C   UNL     1     -29.095  22.431   4.308  0.00  0.00    +0.111 A 
ENDBRANCH   4   3
ENDBRANCH  10   9
BRANCH  12  13
ATOM     13  N   UNL     1     -31.827  14.685  -4.124  0.00  0.00    -0.281 N 
ATOM     14  C   UNL     1     -31.772  13.633  -5.023  0.00  0.00    +0.248 C 
ATOM     30  O   UNL     1     -31.622  12.461  -4.708  0.00  0.00    -0.270 OA
ATOM     31  H   UNL     1     -31.758  15.621  -4.524  0.00  0.00    +0.155 HD
BRANCH  14  15
ATOM     15  C   UNL     1     -31.886  13.925  -6.484  0.00  0.00    +0.037 A 
ATOM     16  C   UNL     1     -31.823  15.298  -6.992  0.00  0.00    +0.013 A 
ATOM     17  C   UNL     1     -31.952  15.553  -8.405  0.00  0.00    +0.005 A 
ATOM     18  C   UNL     1     -32.145  14.431  -9.321  0.00  0.00    -0.033 A 
ATOM     28  C   UNL     1     -32.198  13.079  -8.791  0.00  0.00    +0.005 A 
ATOM     29  C   UNL     1     -32.073  12.825  -7.406  0.00  0.00    +0.013 A 
BRANCH  18  19
ATOM     19  C   UNL     1     -32.314  14.612 -10.841  0.00  0.00    +0.119 C 
BRANCH  19  20
ATOM     20  N   UNL     1     -33.327  13.754 -11.523  0.00  0.00    -0.302 NA
ATOM     21  C   UNL     1     -33.213  13.831 -13.048  0.00  0.00    +0.066 C 
ATOM     22  C   UNL     1     -34.266  12.910 -13.746  0.00  0.00    -0.064 C 
ATOM     23  N   UNL     1     -35.670  13.307 -13.287  0.00  0.00    +0.379 N 
ATOM     24  C   UNL     1     -36.666  12.481 -13.985  0.00  0.00    -0.096 C 
ATOM     25  H   UNL     1     -35.838  14.367 -13.590  0.00  0.00    -0.082 HD
ATOM     26  C   UNL     1     -35.792  13.235 -11.771  0.00  0.00    -0.064 C 
ATOM     27  C   UNL     1     -34.722  14.131 -11.088  0.00  0.00    +0.066 C 
ENDBRANCH  19  20
ENDBRANCH  18  19
ENDBRANCH  14  15
ENDBRANCH  12  13
TORSDOF 6
ENDMDL
MODEL 3
REMARK VINA RESULT:      -6.8     27.364     35.823
REMARK  Name = C:\Users\Docking\Desktop\test protocol\1iep_ligandH.pdb
REMARK  8 active torsions:
REMARK  status: ('A' for Active; 'I' for Inactive)
REMARK    1  A    between atoms: _5  and  _11
REMARK    2  A    between atoms: _19  and  _21
REMARK    3  A    between atoms: _22  and  _66
REMARK    4  A    between atoms: _27  and  _30
REMARK    5  A    between atoms: _32  and  _33
REMARK    6  A    between atoms: _38  and  _43
REMARK    7  A    between atoms: _43  and  _46
REMARK    8  A    between atoms: _53  and  _55
REMARK                            x       y       z     vdW  Elec       q    Type
REMARK                         _______ _______ _______ _____ _____    ______ ____
ROOT
ATOM     10  C   UNL     1     -31.986  13.242  -6.072  0.00  0.00    +0.038 A 
ATOM     11  C   UNL     1     -32.124  12.955  -7.454  0.00  0.00    +0.047 A 
ATOM     12  C   UNL     1     -32.000  14.003  -8.456  0.00  0.00    +0.035 A 
ATOM     32  C   UNL     1     -31.731  15.331  -8.015  0.00  0.00    +0.024 A 
ATOM     33  C   UNL     1     -31.588  15.640  -6.614  0.00  0.00    +0.007 A 
ATOM     34  C   UNL     1     -31.712  14.612  -5.621  0.00  0.00    -0.029 A 
ATOM     35  C   UNL     1     -31.556  15.002  -4.133  0.00  0.00    +0.045 C 
ENDROOT
BRANCH  10   9
ATOM      4  C   UNL     1     -34.573  10.569  -3.039  0.00  0.00    +0.077 A 
ATOM      5  C   UNL     1     -35.761  11.334  -3.286  0.00  0.00    +0.048 A 
ATOM      6  C   UNL     1     -35.663  12.411  -4.195  0.00  0.00    +0.116 A 
ATOM      7  N   UNL     1     -34.460  12.694  -4.806  0.00  0.00    -0.223 NA
ATOM      8  C   UNL     1     -33.333  11.937  -4.544  0.00  0.00    +0.220 A 
ATOM      9  N   UNL     1     -32.115  12.198  -5.154  0.00  0.00    -0.283 N 
ATOM     36  H   UNL     1     -31.305  11.621  -4.929  0.00  0.00    +0.155 HD
ATOM     37  N   UNL     1     -33.401  10.904  -3.679  0.00  0.00    -0.214 NA
BRANCH   4   3
ATOM      1  C   UNL     1     -34.116   8.358   0.155  0.00  0.00    +0.020 A 
ATOM      2  C   UNL     1     -34.154   9.521  -0.702  0.00  0.00    +0.013 A 
ATOM      3  C   UNL     1     -34.518   9.398  -2.108  0.00  0.00    +0.019 A 
ATOM     38  C   UNL     1     -34.842   8.075  -2.619  0.00  0.00    +0.120 A 
ATOM     39  N   UNL     1     -34.797   6.973  -1.770  0.00  0.00    -0.263 NA
ATOM     40  C   UNL     1     -34.446   7.079  -0.416  0.00  0.00    +0.111 A 
ENDBRANCH   4   3
ENDBRANCH  10   9
BRANCH  12  13
ATOM     13  N   UNL     1     -32.138  13.773  -9.873  0.00  0.00    -0.281 N 
ATOM     14  C   UNL     1     -33.259  13.973 -10.663  0.00  0.00    +0.248 C 
ATOM     30  O   UNL     1     -34.382  14.180 -10.228  0.00  0.00    -0.270 OA
ATOM     31  H   UNL     1     -31.310  13.420 -10.352  0.00  0.00    +0.155 HD
BRANCH  14  15
ATOM     15  C   UNL     1     -33.113  13.923 -12.149  0.00  0.00    +0.037 A 
ATOM     16  C   UNL     1     -32.492  15.024 -12.890  0.00  0.00    +0.013 A 
ATOM     17  C   UNL     1     -32.379  14.957 -14.325  0.00  0.00    +0.005 A 
ATOM     18  C   UNL     1     -32.888  13.783 -15.030  0.00  0.00    -0.033 A 
ATOM     28  C   UNL     1     -33.495  12.703 -14.270  0.00  0.00    +0.005 A 
ATOM     29  C   UNL     1     -33.608  12.765 -12.863  0.00  0.00    +0.013 A 
BRANCH  18  19
ATOM     19  C   UNL     1     -32.829  13.636 -16.562  0.00  0.00    +0.119 C 
BRANCH  19  20
ATOM     20  N   UNL     1     -33.265  14.808 -17.378  0.00  0.00    -0.302 NA
ATOM     21  C   UNL     1     -34.679  15.268 -17.014  0.00  0.00    +0.066 C 
ATOM     22  C   UNL     1     -35.111  16.508 -17.862  0.00  0.00    -0.064 C 
ATOM     23  N   UNL     1     -35.020  16.162 -19.349  0.00  0.00    +0.379 N 
ATOM     24  C   UNL     1     -35.480  17.308 -20.148  0.00  0.00    -0.096 C 
ATOM     25  H   UNL     1     -35.717  15.314 -19.542  0.00  0.00    -0.082 HD
ATOM     26  C   UNL     1     -33.617  15.701 -19.720  0.00  0.00    -0.064 C 
ATOM     27  C   UNL     1     -33.187  14.487 -18.851  0.00  0.00    +0.066 C 
ENDBRANCH  19  20
ENDBRANCH  18  19
ENDBRANCH  14  15
ENDBRANCH  12  13
TORSDOF 6
ENDMDL
MODEL 4
REMARK VINA RESULT:      -6.7     34.040     37.539
REMARK  Name = C:\Users\Docking\Desktop\test protocol\1iep_ligandH.pdb
REMARK  8 active torsions:
REMARK  status: ('A' for Active; 'I' for Inactive)
REMARK    1  A    between atoms: _5  and  _11
REMARK    2  A    between atoms: _19  and  _21
REMARK    3  A    between atoms: _22  and  _66
REMARK    4  A    between atoms: _27  and  _30
REMARK    5  A    between atoms: _32  and  _33
REMARK    6  A    between atoms: _38  and  _43
REMARK    7  A    between atoms: _43  and  _46
REMARK    8  A    between atoms: _53  and  _55
REMARK                            x       y       z     vdW  Elec       q    Type
REMARK                         _______ _______ _______ _____ _____    ______ ____
ROOT
ATOM     10  C   UNL     1     -37.626  11.746 -13.566  0.00  0.00    +0.038 A 
ATOM     11  C   UNL     1     -37.700  10.340 -13.732  0.00  0.00    +0.047 A 
ATOM     12  C   UNL     1     -38.656   9.739 -14.649  0.00  0.00    +0.035 A 
ATOM     32  C   UNL     1     -39.520  10.601 -15.384  0.00  0.00    +0.024 A 
ATOM     33  C   UNL     1     -39.459  12.033 -15.228  0.00  0.00    +0.007 A 
ATOM     34  C   UNL     1     -38.520  12.631 -14.323  0.00  0.00    -0.029 A 
ATOM     35  C   UNL     1     -38.504  14.172 -14.190  0.00  0.00    +0.045 C 
ENDROOT
BRANCH  10   9
ATOM      4  C   UNL     1     -33.396  13.791 -12.583  0.00  0.00    +0.077 A 
ATOM      5  C   UNL     1     -33.009  13.793 -13.964  0.00  0.00    +0.048 A 
ATOM      6  C   UNL     1     -33.924  13.252 -14.895  0.00  0.00    +0.116 A 
ATOM      7  N   UNL     1     -35.133  12.750 -14.465  0.00  0.00    -0.223 NA
ATOM      8  C   UNL     1     -35.475  12.762 -13.126  0.00  0.00    +0.220 A 
ATOM      9  N   UNL     1     -36.689  12.269 -12.672  0.00  0.00    -0.283 N 
ATOM     36  H   UNL     1     -36.901  12.290 -11.675  0.00  0.00    +0.155 HD
ATOM     37  N   UNL     1     -34.618  13.271 -12.217  0.00  0.00    -0.214 NA
BRANCH   4   3
ATOM      1  C   UNL     1     -31.358  14.123  -9.260  0.00  0.00    +0.020 A 
ATOM      2  C   UNL     1     -32.190  13.555 -10.296  0.00  0.00    +0.013 A 
ATOM      3  C   UNL     1     -32.539  14.331 -11.480  0.00  0.00    +0.019 A 
ATOM     38  C   UNL     1     -32.027  15.688 -11.586  0.00  0.00    +0.120 A 
ATOM     39  N   UNL     1     -31.229  16.209 -10.571  0.00  0.00    -0.263 NA
ATOM     40  C   UNL     1     -30.888  15.473  -9.427  0.00  0.00    +0.111 A 
ENDBRANCH   4   3
ENDBRANCH  10   9
BRANCH  12  13
ATOM     13  N   UNL     1     -38.782   8.317 -14.852  0.00  0.00    -0.281 N 
ATOM     14  C   UNL     1     -39.567   7.422 -14.144  0.00  0.00    +0.248 C 
ATOM     30  O   UNL     1     -40.120   7.676 -13.084  0.00  0.00    -0.270 OA
ATOM     31  H   UNL     1     -38.225   7.923 -15.611  0.00  0.00    +0.155 HD
BRANCH  14  15
ATOM     15  C   UNL     1     -39.752   6.040 -14.683  0.00  0.00    +0.037 A 
ATOM     16  C   UNL     1     -39.342   5.695 -16.047  0.00  0.00    +0.013 A 
ATOM     17  C   UNL     1     -39.548   4.360 -16.548  0.00  0.00    +0.005 A 
ATOM     18  C   UNL     1     -40.166   3.357 -15.683  0.00  0.00    -0.033 A 
ATOM     28  C   UNL     1     -40.558   3.725 -14.332  0.00  0.00    +0.005 A 
ATOM     29  C   UNL     1     -40.359   5.034 -13.838  0.00  0.00    +0.013 A 
BRANCH  18  19
ATOM     19  C   UNL     1     -40.443   1.913 -16.141  0.00  0.00    +0.119 C 
BRANCH  19  20
ATOM     20  N   UNL     1     -39.261   1.034 -16.384  0.00  0.00    -0.302 NA
ATOM     21  C   UNL     1     -39.654  -0.284 -17.056  0.00  0.00    +0.066 C 
ATOM     22  C   UNL     1     -38.402  -1.182 -17.323  0.00  0.00    -0.064 C 
ATOM     23  N   UNL     1     -37.673  -1.443 -16.004  0.00  0.00    +0.379 N 
ATOM     24  C   UNL     1     -36.529  -2.334 -16.243  0.00  0.00    -0.096 C 
ATOM     25  H   UNL     1     -38.381  -1.975 -15.326  0.00  0.00    -0.082 HD
ATOM     26  C   UNL     1     -37.281  -0.136 -15.328  0.00  0.00    -0.064 C 
ATOM     27  C   UNL     1     -38.529   0.761 -15.093  0.00  0.00    +0.066 C 
ENDBRANCH  19  20
ENDBRANCH  18  19
ENDBRANCH  14  15
ENDBRANCH  12  13
TORSDOF 6
ENDMDL
MODEL 5
REMARK VINA RESULT:      -6.6     24.770     30.650
REMARK  Name = C:\Users\Docking\Desktop\test protocol\1iep_ligandH.pdb
REMARK  8 active torsions:
REMARK  status: ('A' for Active; 'I' for Inactive)
REMARK    1  A    between atoms: _5  and  _11
REMARK    2  A    between atoms: _19  and  _21
REMARK    3  A    between atoms: _22  and  _66
REMARK    4  A    between atoms: _27  and  _30
REMARK    5  A    between atoms: _32  and  _33
REMARK    6  A    between atoms: _38  and  _43
REMARK    7  A    between atoms: _43  and  _46
REMARK    8  A    between atoms: _53  and  _55
REMARK                            x       y       z     vdW  Elec       q    Type
REMARK                         _______ _______ _______ _____ _____    ______ ____
ROOT
ATOM     10  C   UNL     1     -31.997  13.606  -7.057  0.00  0.00    +0.038 A 
ATOM     11  C   UNL     1     -32.345  12.414  -6.372  0.00  0.00    +0.047 A 
ATOM     12  C   UNL     1     -32.556  12.407  -4.933  0.00  0.00    +0.035 A 
ATOM     32  C   UNL     1     -32.407  13.634  -4.222  0.00  0.00    +0.024 A 
ATOM     33  C   UNL     1     -32.053  14.855  -4.902  0.00  0.00    +0.007 A 
ATOM     34  C   UNL     1     -31.841  14.867  -6.322  0.00  0.00    -0.029 A 
ATOM     35  C   UNL     1     -31.456  16.204  -6.997  0.00  0.00    +0.045 C 
ENDROOT
BRANCH  10   9
ATOM      4  C   UNL     1     -33.598  13.970 -11.567  0.00  0.00    +0.077 A 
ATOM      5  C   UNL     1     -34.934  14.260 -11.132  0.00  0.00    +0.048 A 
ATOM      6  C   UNL     1     -35.169  14.299  -9.739  0.00  0.00    +0.116 A 
ATOM      7  N   UNL     1     -34.137  14.064  -8.856  0.00  0.00    -0.223 NA
ATOM      8  C   UNL     1     -32.861  13.786  -9.309  0.00  0.00    +0.220 A 
ATOM      9  N   UNL     1     -31.806  13.555  -8.440  0.00  0.00    -0.283 N 
ATOM     36  H   UNL     1     -30.881  13.346  -8.813  0.00  0.00    +0.155 HD
ATOM     37  N   UNL     1     -32.611  13.742 -10.635  0.00  0.00    -0.214 NA
BRANCH   4   3
ATOM      1  C   UNL     1     -33.029  12.710 -15.226  0.00  0.00    +0.020 A 
ATOM      2  C   UNL     1     -33.442  12.729 -13.842  0.00  0.00    +0.013 A 
ATOM      3  C   UNL     1     -33.192  13.897 -13.006  0.00  0.00    +0.019 A 
ATOM     38  C   UNL     1     -32.518  15.038 -13.607  0.00  0.00    +0.120 A 
ATOM     39  N   UNL     1     -32.131  14.990 -14.943  0.00  0.00    -0.263 NA
ATOM     40  C   UNL     1     -32.365  13.871 -15.756  0.00  0.00    +0.111 A 
ENDBRANCH   4   3
ENDBRANCH  10   9
BRANCH  12  13
ATOM     13  N   UNL     1     -32.904  11.226  -4.182  0.00  0.00    -0.281 N 
ATOM     14  C   UNL     1     -34.086  10.961  -3.510  0.00  0.00    +0.248 C 
ATOM     30  O   UNL     1     -34.948  11.794  -3.273  0.00  0.00    -0.270 OA
ATOM     31  H   UNL     1     -32.191  10.497  -4.142  0.00  0.00    +0.155 HD
BRANCH  14  15
ATOM     15  C   UNL     1     -34.341   9.573  -3.018  0.00  0.00    +0.037 A 
ATOM     16  C   UNL     1     -34.541   9.296  -1.593  0.00  0.00    +0.013 A 
ATOM     17  C   UNL     1     -34.768   7.946  -1.143  0.00  0.00    +0.005 A 
ATOM     18  C   UNL     1     -34.797   6.861  -2.121  0.00  0.00    -0.033 A 
ATOM     28  C   UNL     1     -34.601   7.164  -3.529  0.00  0.00    +0.005 A 
ATOM     29  C   UNL     1     -34.377   8.486  -3.973  0.00  0.00    +0.013 A 
BRANCH  18  19
ATOM     19  C   UNL     1     -35.013   5.387  -1.728  0.00  0.00    +0.119 C 
BRANCH  19  20
ATOM     20  N   UNL     1     -34.242   4.358  -2.487  0.00  0.00    -0.302 NA
ATOM     21  C   UNL     1     -35.076   3.104  -2.764  0.00  0.00    +0.066 C 
ATOM     22  C   UNL     1     -34.262   2.046  -3.578  0.00  0.00    -0.064 C 
ATOM     23  N   UNL     1     -32.985   1.690  -2.814  0.00  0.00    +0.379 N 
ATOM     24  C   UNL     1     -32.246   0.654  -3.549  0.00  0.00    -0.096 C 
ATOM     25  H   UNL     1     -33.289   1.258  -1.833  0.00  0.00    -0.082 HD
ATOM     26  C   UNL     1     -32.151   2.932  -2.533  0.00  0.00    -0.064 C 
ATOM     27  C   UNL     1     -32.979   3.988  -1.749  0.00  0.00    +0.066 C 
ENDBRANCH  19  20
ENDBRANCH  18  19
ENDBRANCH  14  15
ENDBRANCH  12  13
TORSDOF 6
ENDMDL
