MODEL 1
REMARK VINA RESULT:      -8.2      0.000      0.000
REMARK  Name = C:\Users\Docking\Desktop\test protocol\1iep_ligandH.pdb
REMARK  8 active torsions:
REMARK  status: ('A' for Active; 'I' for Inactive)
REMARK    1  A    between atoms: _5  and  _11
REMARK    2  A    between atoms: _19  and  _21
REMARK    3  A    between atoms: _22  and  _66
REMARK    4  A    between atoms: _27  and  _30
REMARK    5  A    between atoms: _32  and  _33
REMARK    6  A    between atoms: _38  and  _43
REMARK    7  A    between atoms: _43  and  _46
REMARK    8  A    between atoms: _53  and  _55
REMARK                            x       y       z     vdW  Elec       q    Type
REMARK                         _______ _______ _______ _____ _____    ______ ____
ROOT
ATOM     10  C   UNL     1      37.080 -25.958  -4.704  0.00  0.00    +0.038 A 
ATOM     11  C   UNL     1      36.469 -25.855  -3.427  0.00  0.00    +0.047 A 
ATOM     12  C   UNL     1      37.045 -26.510  -2.263  0.00  0.00    +0.035 A 
ATOM     32  C   UNL     1      38.245 -27.261  -2.434  0.00  0.00    +0.024 A 
ATOM     33  C   UNL     1      38.878 -27.376  -3.725  0.00  0.00    +0.007 A 
ATOM     34  C   UNL     1      38.313 -26.734  -4.877  0.00  0.00    -0.029 A 
ATOM     35  C   UNL     1      39.031 -26.898  -6.237  0.00  0.00    +0.045 C 
ENDROOT
BRANCH  10   9
ATOM      4  C   UNL     1      33.477 -25.352  -7.816  0.00  0.00    +0.077 A 
ATOM      5  C   UNL     1      32.729 -26.439  -7.253  0.00  0.00    +0.048 A 
ATOM      6  C   UNL     1      33.310 -27.133  -6.169  0.00  0.00    +0.116 A 
ATOM      7  N   UNL     1      34.547 -26.759  -5.690  0.00  0.00    -0.223 NA
ATOM      8  C   UNL     1      35.243 -25.707  -6.257  0.00  0.00    +0.220 A 
ATOM      9  N   UNL     1      36.484 -25.308  -5.787  0.00  0.00    -0.283 N 
ATOM     36  H   UNL     1      36.968 -24.532  -6.237  0.00  0.00    +0.155 HD
ATOM     37  N   UNL     1      34.710 -25.029  -7.295  0.00  0.00    -0.214 NA
BRANCH   4   3
ATOM      1  C   UNL     1      32.724 -22.324 -10.175  0.00  0.00    +0.020 A 
ATOM      2  C   UNL     1      33.209 -23.081  -9.044  0.00  0.00    +0.013 A 
ATOM      3  C   UNL     1      32.995 -24.520  -8.964  0.00  0.00    +0.019 A 
ATOM     38  C   UNL     1      32.282 -25.169 -10.054  0.00  0.00    +0.120 A 
ATOM     39  N   UNL     1      31.824 -24.414 -11.130  0.00  0.00    -0.263 NA
ATOM     40  C   UNL     1      32.023 -23.028 -11.217  0.00  0.00    +0.111 A 
ENDBRANCH   4   3
ENDBRANCH  10   9
BRANCH  12  13
ATOM     13  N   UNL     1      36.465 -26.448  -0.944  0.00  0.00    -0.281 N 
ATOM     14  C   UNL     1      35.148 -26.676  -0.581  0.00  0.00    +0.248 C 
ATOM     30  O   UNL     1      34.219 -26.761  -1.370  0.00  0.00    -0.270 OA
ATOM     31  H   UNL     1      37.104 -26.206  -0.186  0.00  0.00    +0.155 HD
BRANCH  14  15
ATOM     15  C   UNL     1      34.813 -26.817   0.869  0.00  0.00    +0.037 A 
ATOM     16  C   UNL     1      35.475 -27.819   1.708  0.00  0.00    +0.013 A 
ATOM     17  C   UNL     1      35.121 -27.946   3.099  0.00  0.00    +0.005 A 
ATOM     18  C   UNL     1      34.099 -27.065   3.661  0.00  0.00    -0.033 A 
ATOM     28  C   UNL     1      33.462 -26.076   2.807  0.00  0.00    +0.005 A 
ATOM     29  C   UNL     1      33.806 -25.950   1.443  0.00  0.00    +0.013 A 
BRANCH  18  19
ATOM     19  C   UNL     1      33.643 -27.143   5.130  0.00  0.00    +0.119 C 
BRANCH  19  20
ATOM     20  N   UNL     1      32.335 -26.512   5.475  0.00  0.00    -0.302 NA
ATOM     21  C   UNL     1      32.484 -25.024   5.806  0.00  0.00    +0.066 C 
ATOM     22  C   UNL     1      31.103 -24.374   6.142  0.00  0.00    -0.064 C 
ATOM     23  N   UNL     1      30.458 -25.126   7.307  0.00  0.00    +0.379 N 
ATOM     24  C   UNL     1      29.186 -24.481   7.664  0.00  0.00    -0.096 C 
ATOM     25  H   UNL     1      31.140 -25.037   8.185  0.00  0.00    -0.082 HD
ATOM     26  C   UNL     1      30.308 -26.606   6.987  0.00  0.00    -0.064 C 
ATOM     27  C   UNL     1      31.682 -27.236   6.626  0.00  0.00    +0.066 C 
ENDBRANCH  19  20
ENDBRANCH  18  19
ENDBRANCH  14  15
ENDBRANCH  12  13
TORSDOF 6
ENDMDL
MODEL 2
REMARK VINA RESULT:      -7.9      2.392      5.206
REMARK  Name = C:\Users\Docking\Desktop\test protocol\1iep_ligandH.pdb
REMARK  8 active torsions:
REMARK  status: ('A' for Active; 'I' for Inactive)
REMARK    1  A    between atoms: _5  and  _11
REMARK    2  A    between atoms: _19  and  _21
REMARK    3  A    between atoms: _22  and  _66
REMARK    4  A    between atoms: _27  and  _30
REMARK    5  A    between atoms: _32  and  _33
REMARK    6  A    between atoms: _38  and  _43
REMARK    7  A    between atoms: _43  and  _46
REMARK    8  A    between atoms: _53  and  _55
REMARK                            x       y       z     vdW  Elec       q    Type
REMARK                         _______ _______ _______ _____ _____    ______ ____
ROOT
ATOM     10  C   UNL     1      35.338 -26.143  -5.458  0.00  0.00    +0.038 A 
ATOM     11  C   UNL     1      35.149 -26.229  -4.055  0.00  0.00    +0.047 A 
ATOM     12  C   UNL     1      33.855 -26.582  -3.490  0.00  0.00    +0.035 A 
ATOM     32  C   UNL     1      32.777 -26.844  -4.384  0.00  0.00    +0.024 A 
ATOM     33  C   UNL     1      32.951 -26.761  -5.813  0.00  0.00    +0.007 A 
ATOM     34  C   UNL     1      34.224 -26.410  -6.375  0.00  0.00    -0.029 A 
ATOM     35  C   UNL     1      34.352 -26.329  -7.915  0.00  0.00    +0.045 C 
ENDROOT
BRANCH  10   9
ATOM      4  C   UNL     1      39.762 -27.286  -6.926  0.00  0.00    +0.077 A 
ATOM      5  C   UNL     1      39.549 -28.682  -6.675  0.00  0.00    +0.048 A 
ATOM      6  C   UNL     1      38.289 -29.064  -6.161  0.00  0.00    +0.116 A 
ATOM      7  N   UNL     1      37.322 -28.112  -5.921  0.00  0.00    -0.223 NA
ATOM      8  C   UNL     1      37.561 -26.774  -6.172  0.00  0.00    +0.220 A 
ATOM      9  N   UNL     1      36.601 -25.800  -5.945  0.00  0.00    -0.283 N 
ATOM     36  H   UNL     1      36.819 -24.822  -6.137  0.00  0.00    +0.155 HD
ATOM     37  N   UNL     1      38.757 -26.383  -6.662  0.00  0.00    -0.214 NA
BRANCH   4   3
ATOM      1  C   UNL     1      42.400 -25.611  -9.279  0.00  0.00    +0.020 A 
ATOM      2  C   UNL     1      41.142 -26.137  -8.800  0.00  0.00    +0.013 A 
ATOM      3  C   UNL     1      41.039 -26.727  -7.471  0.00  0.00    +0.019 A 
ATOM     38  C   UNL     1      42.237 -26.769  -6.646  0.00  0.00    +0.120 A 
ATOM     39  N   UNL     1      43.434 -26.256  -7.134  0.00  0.00    -0.263 NA
ATOM     40  C   UNL     1      43.546 -25.687  -8.412  0.00  0.00    +0.111 A 
ENDBRANCH   4   3
ENDBRANCH  10   9
BRANCH  12  13
ATOM     13  N   UNL     1      33.602 -26.676  -2.074  0.00  0.00    -0.281 N 
ATOM     14  C   UNL     1      34.129 -27.587  -1.173  0.00  0.00    +0.248 C 
ATOM     30  O   UNL     1      34.739 -28.598  -1.489  0.00  0.00    -0.270 OA
ATOM     31  H   UNL     1      32.954 -25.988  -1.689  0.00  0.00    +0.155 HD
BRANCH  14  15
ATOM     15  C   UNL     1      33.940 -27.347   0.290  0.00  0.00    +0.037 A 
ATOM     16  C   UNL     1      33.974 -25.993   0.849  0.00  0.00    +0.013 A 
ATOM     17  C   UNL     1      33.806 -25.792   2.267  0.00  0.00    +0.005 A 
ATOM     18  C   UNL     1      33.600 -26.948   3.135  0.00  0.00    -0.033 A 
ATOM     28  C   UNL     1      33.565 -28.280   2.553  0.00  0.00    +0.005 A 
ATOM     29  C   UNL     1      33.731 -28.481   1.165  0.00  0.00    +0.013 A 
BRANCH  18  19
ATOM     19  C   UNL     1      33.433 -26.829   4.662  0.00  0.00    +0.119 C 
BRANCH  19  20
ATOM     20  N   UNL     1      32.126 -26.312   5.168  0.00  0.00    -0.302 NA
ATOM     21  C   UNL     1      32.169 -24.804   5.432  0.00  0.00    +0.066 C 
ATOM     22  C   UNL     1      30.787 -24.276   5.939  0.00  0.00    -0.064 C 
ATOM     23  N   UNL     1      30.387 -25.036   7.205  0.00  0.00    +0.379 N 
ATOM     24  C   UNL     1      29.117 -24.502   7.717  0.00  0.00    -0.096 C 
ATOM     25  H   UNL     1      31.170 -24.845   7.975  0.00  0.00    -0.082 HD
ATOM     26  C   UNL     1      30.345 -26.536   6.952  0.00  0.00    -0.064 C 
ATOM     27  C   UNL     1      31.714 -27.046   6.420  0.00  0.00    +0.066 C 
ENDBRANCH  19  20
ENDBRANCH  18  19
ENDBRANCH  14  15
ENDBRANCH  12  13
TORSDOF 6
ENDMDL
MODEL 3
REMARK VINA RESULT:      -7.6      3.425     12.816
REMARK  Name = C:\Users\Docking\Desktop\test protocol\1iep_ligandH.pdb
REMARK  8 active torsions:
REMARK  status: ('A' for Active; 'I' for Inactive)
REMARK    1  A    between atoms: _5  and  _11
REMARK    2  A    between atoms: _19  and  _21
REMARK    3  A    between atoms: _22  and  _66
REMARK    4  A    between atoms: _27  and  _30
REMARK    5  A    between atoms: _32  and  _33
REMARK    6  A    between atoms: _38  and  _43
REMARK    7  A    between atoms: _43  and  _46
REMARK    8  A    between atoms: _53  and  _55
REMARK                            x       y       z     vdW  Elec       q    Type
REMARK                         _______ _______ _______ _____ _____    ______ ____
ROOT
ATOM     10  C   UNL     1      37.197 -27.096   0.314  0.00  0.00    +0.038 A 
ATOM     11  C   UNL     1      36.861 -26.906  -1.051  0.00  0.00    +0.047 A 
ATOM     12  C   UNL     1      37.691 -27.453  -2.113  0.00  0.00    +0.035 A 
ATOM     32  C   UNL     1      38.855 -28.190  -1.749  0.00  0.00    +0.024 A 
ATOM     33  C   UNL     1      39.212 -28.392  -0.366  0.00  0.00    +0.007 A 
ATOM     34  C   UNL     1      38.399 -27.853   0.686  0.00  0.00    -0.029 A 
ATOM     35  C   UNL     1      38.833 -28.095   2.150  0.00  0.00    +0.045 C 
ENDROOT
BRANCH  10   9
ATOM      4  C   UNL     1      33.360 -27.279   3.192  0.00  0.00    +0.077 A 
ATOM      5  C   UNL     1      32.966 -28.561   2.683  0.00  0.00    +0.048 A 
ATOM      6  C   UNL     1      33.774 -29.136   1.676  0.00  0.00    +0.116 A 
ATOM      7  N   UNL     1      34.890 -28.470   1.220  0.00  0.00    -0.223 NA
ATOM      8  C   UNL     1      35.241 -27.233   1.731  0.00  0.00    +0.220 A 
ATOM      9  N   UNL     1      36.364 -26.549   1.293  0.00  0.00    -0.283 N 
ATOM     36  H   UNL     1      36.585 -25.636   1.690  0.00  0.00    +0.155 HD
ATOM     37  N   UNL     1      34.486 -26.663   2.692  0.00  0.00    -0.214 NA
BRANCH   4   3
ATOM      1  C   UNL     1      31.487 -24.486   5.190  0.00  0.00    +0.020 A 
ATOM      2  C   UNL     1      32.210 -25.149   4.129  0.00  0.00    +0.013 A 
ATOM      3  C   UNL     1      32.611 -26.544   4.260  0.00  0.00    +0.019 A 
ATOM     38  C   UNL     1      32.262 -27.246   5.486  0.00  0.00    +0.120 A 
ATOM     39  N   UNL     1      31.567 -26.581   6.491  0.00  0.00    -0.263 NA
ATOM     40  C   UNL     1      31.177 -25.238   6.377  0.00  0.00    +0.111 A 
ENDBRANCH   4   3
ENDBRANCH  10   9
BRANCH  12  13
ATOM     13  N   UNL     1      37.405 -27.285  -3.516  0.00  0.00    -0.281 N 
ATOM     14  C   UNL     1      37.132 -26.109  -4.195  0.00  0.00    +0.248 C 
ATOM     30  O   UNL     1      36.881 -25.042  -3.656  0.00  0.00    -0.270 OA
ATOM     31  H   UNL     1      37.403 -28.138  -4.077  0.00  0.00    +0.155 HD
BRANCH  14  15
ATOM     15  C   UNL     1      37.122 -26.124  -5.690  0.00  0.00    +0.037 A 
ATOM     16  C   UNL     1      38.316 -26.496  -6.454  0.00  0.00    +0.013 A 
ATOM     17  C   UNL     1      38.284 -26.486  -7.895  0.00  0.00    +0.005 A 
ATOM     18  C   UNL     1      37.053 -26.103  -8.582  0.00  0.00    -0.033 A 
ATOM     28  C   UNL     1      35.882 -25.743  -7.799  0.00  0.00    +0.005 A 
ATOM     29  C   UNL     1      35.910 -25.752  -6.386  0.00  0.00    +0.013 A 
BRANCH  18  19
ATOM     19  C   UNL     1      36.935 -26.043 -10.116  0.00  0.00    +0.119 C 
BRANCH  19  20
ATOM     20  N   UNL     1      37.954 -25.234 -10.849  0.00  0.00    -0.302 NA
ATOM     21  C   UNL     1      37.315 -24.320 -11.898  0.00  0.00    +0.066 C 
ATOM     22  C   UNL     1      38.393 -23.465 -12.640  0.00  0.00    -0.064 C 
ATOM     23  N   UNL     1      39.421 -24.394 -13.287  0.00  0.00    +0.379 N 
ATOM     24  C   UNL     1      40.404 -23.595 -14.034  0.00  0.00    -0.096 C 
ATOM     25  H   UNL     1      38.882 -25.038 -14.019  0.00  0.00    -0.082 HD
ATOM     26  C   UNL     1      40.060 -25.309 -12.251  0.00  0.00    -0.064 C 
ATOM     27  C   UNL     1      38.977 -26.133 -11.499  0.00  0.00    +0.066 C 
ENDBRANCH  19  20
ENDBRANCH  18  19
ENDBRANCH  14  15
ENDBRANCH  12  13
TORSDOF 6
ENDMDL
MODEL 4
REMARK VINA RESULT:      -7.5      1.555      2.285
REMARK  Name = C:\Users\Docking\Desktop\test protocol\1iep_ligandH.pdb
REMARK  8 active torsions:
REMARK  status: ('A' for Active; 'I' for Inactive)
REMARK    1  A    between atoms: _5  and  _11
REMARK    2  A    between atoms: _19  and  _21
REMARK    3  A    between atoms: _22  and  _66
REMARK    4  A    between atoms: _27  and  _30
REMARK    5  A    between atoms: _32  and  _33
REMARK    6  A    between atoms: _38  and  _43
REMARK    7  A    between atoms: _43  and  _46
REMARK    8  A    between atoms: _53  and  _55
REMARK                            x       y       z     vdW  Elec       q    Type
REMARK                         _______ _______ _______ _____ _____    ______ ____
ROOT
ATOM     10  C   UNL     1      37.060 -26.000  -4.433  0.00  0.00    +0.038 A 
ATOM     11  C   UNL     1      36.269 -25.884  -3.261  0.00  0.00    +0.047 A 
ATOM     12  C   UNL     1      36.651 -26.552  -2.027  0.00  0.00    +0.035 A 
ATOM     32  C   UNL     1      37.847 -27.328  -2.020  0.00  0.00    +0.024 A 
ATOM     33  C   UNL     1      38.662 -27.458  -3.202  0.00  0.00    +0.007 A 
ATOM     34  C   UNL     1      38.289 -26.804  -4.424  0.00  0.00    -0.029 A 
ATOM     35  C   UNL     1      39.198 -26.983  -5.662  0.00  0.00    +0.045 C 
ENDROOT
BRANCH  10   9
ATOM      4  C   UNL     1      33.978 -25.323  -8.050  0.00  0.00    +0.077 A 
ATOM      5  C   UNL     1      33.135 -26.397  -7.610  0.00  0.00    +0.048 A 
ATOM      6  C   UNL     1      33.533 -27.103  -6.453  0.00  0.00    +0.116 A 
ATOM      7  N   UNL     1      34.691 -26.753  -5.793  0.00  0.00    -0.223 NA
ATOM      8  C   UNL     1      35.483 -25.713  -6.244  0.00  0.00    +0.220 A 
ATOM      9  N   UNL     1      36.647 -25.338  -5.591  0.00  0.00    -0.283 N 
ATOM     36  H   UNL     1      37.207 -24.570  -5.960  0.00  0.00    +0.155 HD
ATOM     37  N   UNL     1      35.125 -25.024  -7.348  0.00  0.00    -0.214 NA
BRANCH   4   3
ATOM      1  C   UNL     1      33.532 -24.122 -11.745  0.00  0.00    +0.020 A 
ATOM      2  C   UNL     1      33.823 -24.976 -10.617  0.00  0.00    +0.013 A 
ATOM      3  C   UNL     1      33.690 -24.481  -9.253  0.00  0.00    +0.019 A 
ATOM     38  C   UNL     1      33.256 -23.105  -9.063  0.00  0.00    +0.120 A 
ATOM     39  N   UNL     1      32.983 -22.305 -10.169  0.00  0.00    -0.263 NA
ATOM     40  C   UNL     1      33.110 -22.770 -11.486  0.00  0.00    +0.111 A 
ENDBRANCH   4   3
ENDBRANCH  10   9
BRANCH  12  13
ATOM     13  N   UNL     1      35.884 -26.477  -0.808  0.00  0.00    -0.281 N 
ATOM     14  C   UNL     1      34.573 -26.876  -0.601  0.00  0.00    +0.248 C 
ATOM     30  O   UNL     1      33.789 -27.163  -1.493  0.00  0.00    -0.270 OA
ATOM     31  H   UNL     1      36.365 -26.082  -0.000  0.00  0.00    +0.155 HD
BRANCH  14  15
ATOM     15  C   UNL     1      34.055 -26.953   0.798  0.00  0.00    +0.037 A 
ATOM     16  C   UNL     1      33.684 -28.236   1.401  0.00  0.00    +0.013 A 
ATOM     17  C   UNL     1      33.170 -28.281   2.748  0.00  0.00    +0.005 A 
ATOM     18  C   UNL     1      33.026 -27.037   3.501  0.00  0.00    -0.033 A 
ATOM     28  C   UNL     1      33.406 -25.779   2.880  0.00  0.00    +0.005 A 
ATOM     29  C   UNL     1      33.909 -25.731   1.560  0.00  0.00    +0.013 A 
BRANCH  18  19
ATOM     19  C   UNL     1      32.466 -26.988   4.935  0.00  0.00    +0.119 C 
BRANCH  19  20
ATOM     20  N   UNL     1      33.447 -26.801   6.045  0.00  0.00    -0.302 NA
ATOM     21  C   UNL     1      33.542 -25.338   6.487  0.00  0.00    +0.066 C 
ATOM     22  C   UNL     1      34.556 -25.163   7.665  0.00  0.00    -0.064 C 
ATOM     23  N   UNL     1      35.927 -25.689   7.236  0.00  0.00    +0.379 N 
ATOM     24  C   UNL     1      36.896 -25.474   8.320  0.00  0.00    -0.096 C 
ATOM     25  H   UNL     1      36.260 -25.087   6.359  0.00  0.00    -0.082 HD
ATOM     26  C   UNL     1      35.841 -27.143   6.792  0.00  0.00    -0.064 C 
ATOM     27  C   UNL     1      34.809 -27.310   5.642  0.00  0.00    +0.066 C 
ENDBRANCH  19  20
ENDBRANCH  18  19
ENDBRANCH  14  15
ENDBRANCH  12  13
TORSDOF 6
ENDMDL
MODEL 5
REMARK VINA RESULT:      -7.5     15.377     20.797
REMARK  Name = C:\Users\Docking\Desktop\test protocol\1iep_ligandH.pdb
REMARK  8 active torsions:
REMARK  status: ('A' for Active; 'I' for Inactive)
REMARK    1  A    between atoms: _5  and  _11
REMARK    2  A    between atoms: _19  and  _21
REMARK    3  A    between atoms: _22  and  _66
REMARK    4  A    between atoms: _27  and  _30
REMARK    5  A    between atoms: _32  and  _33
REMARK    6  A    between atoms: _38  and  _43
REMARK    7  A    between atoms: _43  and  _46
REMARK    8  A    between atoms: _53  and  _55
REMARK                            x       y       z     vdW  Elec       q    Type
REMARK                         _______ _______ _______ _____ _____    ______ ____
ROOT
ATOM     10  C   UNL     1      19.411 -15.341  -3.844  0.00  0.00    +0.038 A 
ATOM     11  C   UNL     1      20.342 -15.610  -4.880  0.00  0.00    +0.047 A 
ATOM     12  C   UNL     1      20.851 -16.954  -5.104  0.00  0.00    +0.035 A 
ATOM     32  C   UNL     1      20.389 -18.002  -4.256  0.00  0.00    +0.024 A 
ATOM     33  C   UNL     1      19.443 -17.746  -3.197  0.00  0.00    +0.007 A 
ATOM     34  C   UNL     1      18.939 -16.422  -2.970  0.00  0.00    -0.029 A 
ATOM     35  C   UNL     1      17.932 -16.206  -1.817  0.00  0.00    +0.045 C 
ENDROOT
BRANCH  10   9
ATOM      4  C   UNL     1      19.925 -10.859  -2.207  0.00  0.00    +0.077 A 
ATOM      5  C   UNL     1      21.199 -11.157  -1.619  0.00  0.00    +0.048 A 
ATOM      6  C   UNL     1      21.683 -12.478  -1.753  0.00  0.00    +0.116 A 
ATOM      7  N   UNL     1      20.940 -13.421  -2.429  0.00  0.00    -0.223 NA
ATOM      8  C   UNL     1      19.715 -13.101  -2.983  0.00  0.00    +0.220 A 
ATOM      9  N   UNL     1      18.954 -14.032  -3.674  0.00  0.00    -0.283 N 
ATOM     36  H   UNL     1      18.052 -13.759  -4.061  0.00  0.00    +0.155 HD
ATOM     37  N   UNL     1      19.230 -11.847  -2.867  0.00  0.00    -0.214 NA
BRANCH   4   3
ATOM      1  C   UNL     1      17.313  -7.984  -1.745  0.00  0.00    +0.020 A 
ATOM      2  C   UNL     1      17.886  -9.310  -1.783  0.00  0.00    +0.013 A 
ATOM      3  C   UNL     1      19.282  -9.508  -2.152  0.00  0.00    +0.019 A 
ATOM     38  C   UNL     1      20.077  -8.334  -2.479  0.00  0.00    +0.120 A 
ATOM     39  N   UNL     1      19.498  -7.070  -2.435  0.00  0.00    -0.263 NA
ATOM     40  C   UNL     1      18.155  -6.867  -2.083  0.00  0.00    +0.111 A 
ENDBRANCH   4   3
ENDBRANCH  10   9
BRANCH  12  13
ATOM     13  N   UNL     1      21.804 -17.285  -6.134  0.00  0.00    -0.281 N 
ATOM     14  C   UNL     1      21.607 -17.292  -7.506  0.00  0.00    +0.248 C 
ATOM     30  O   UNL     1      20.514 -17.221  -8.047  0.00  0.00    -0.270 OA
ATOM     31  H   UNL     1      22.737 -17.546  -5.814  0.00  0.00    +0.155 HD
BRANCH  14  15
ATOM     15  C   UNL     1      22.795 -17.410  -8.405  0.00  0.00    +0.037 A 
ATOM     16  C   UNL     1      23.267 -18.716  -8.873  0.00  0.00    +0.013 A 
ATOM     17  C   UNL     1      24.426 -18.803  -9.726  0.00  0.00    +0.005 A 
ATOM     18  C   UNL     1      25.120 -17.579 -10.118  0.00  0.00    -0.033 A 
ATOM     28  C   UNL     1      24.626 -16.296  -9.644  0.00  0.00    +0.005 A 
ATOM     29  C   UNL     1      23.492 -16.207  -8.807  0.00  0.00    +0.013 A 
BRANCH  18  19
ATOM     19  C   UNL     1      26.376 -17.579 -11.008  0.00  0.00    +0.119 C 
BRANCH  19  20
ATOM     20  N   UNL     1      26.169 -17.669 -12.485  0.00  0.00    -0.302 NA
ATOM     21  C   UNL     1      24.939 -16.878 -12.941  0.00  0.00    +0.066 C 
ATOM     22  C   UNL     1      24.750 -16.965 -14.491  0.00  0.00    -0.064 C 
ATOM     23  N   UNL     1      24.635 -18.433 -14.906  0.00  0.00    +0.379 N 
ATOM     24  C   UNL     1      24.399 -18.515 -16.355  0.00  0.00    -0.096 C 
ATOM     25  H   UNL     1      23.743 -18.860 -14.393  0.00  0.00    -0.082 HD
ATOM     26  C   UNL     1      25.852 -19.227 -14.454  0.00  0.00    -0.064 C 
ATOM     27  C   UNL     1      26.048 -19.110 -12.916  0.00  0.00    +0.066 C 
ENDBRANCH  19  20
ENDBRANCH  18  19
ENDBRANCH  14  15
ENDBRANCH  12  13
TORSDOF 6
ENDMDL
