MODEL 1
REMARK VINA RESULT:      -7.4      0.000      0.000
REMARK  Name = C:\Users\Docking\Desktop\test protocol\1iep_ligandH.pdb
REMARK  8 active torsions:
REMARK  status: ('A' for Active; 'I' for Inactive)
REMARK    1  A    between atoms: _5  and  _11
REMARK    2  A    between atoms: _19  and  _21
REMARK    3  A    between atoms: _22  and  _66
REMARK    4  A    between atoms: _27  and  _30
REMARK    5  A    between atoms: _32  and  _33
REMARK    6  A    between atoms: _38  and  _43
REMARK    7  A    between atoms: _43  and  _46
REMARK    8  A    between atoms: _53  and  _55
REMARK                            x       y       z     vdW  Elec       q    Type
REMARK                         _______ _______ _______ _____ _____    ______ ____
ROOT
ATOM     10  C   UNL     1      29.493  -2.393  -1.002  0.00  0.00    +0.038 A 
ATOM     11  C   UNL     1      28.165  -2.170  -0.559  0.00  0.00    +0.047 A 
ATOM     12  C   UNL     1      27.173  -1.558  -1.430  0.00  0.00    +0.035 A 
ATOM     32  C   UNL     1      27.569  -1.189  -2.749  0.00  0.00    +0.024 A 
ATOM     33  C   UNL     1      28.915  -1.408  -3.215  0.00  0.00    +0.007 A 
ATOM     34  C   UNL     1      29.898  -2.009  -2.359  0.00  0.00    -0.029 A 
ATOM     35  C   UNL     1      31.328  -2.214  -2.911  0.00  0.00    +0.045 C 
ENDROOT
BRANCH  10   9
ATOM      4  C   UNL     1      31.530  -6.234   1.032  0.00  0.00    +0.077 A 
ATOM      5  C   UNL     1      30.690  -7.140   0.302  0.00  0.00    +0.048 A 
ATOM      6  C   UNL     1      29.742  -6.576  -0.581  0.00  0.00    +0.116 A 
ATOM      7  N   UNL     1      29.650  -5.208  -0.717  0.00  0.00    -0.223 NA
ATOM      8  C   UNL     1      30.474  -4.363   0.003  0.00  0.00    +0.220 A 
ATOM      9  N   UNL     1      30.404  -2.984  -0.123  0.00  0.00    -0.283 N 
ATOM     36  H   UNL     1      31.025  -2.395   0.431  0.00  0.00    +0.155 HD
ATOM     37  N   UNL     1      31.387  -4.876   0.854  0.00  0.00    -0.214 NA
BRANCH   4   3
ATOM      1  C   UNL     1      33.417  -8.128   3.887  0.00  0.00    +0.020 A 
ATOM      2  C   UNL     1      32.367  -7.739   2.974  0.00  0.00    +0.013 A 
ATOM      3  C   UNL     1      32.583  -6.676   2.001  0.00  0.00    +0.019 A 
ATOM     38  C   UNL     1      33.883  -6.023   1.976  0.00  0.00    +0.120 A 
ATOM     39  N   UNL     1      34.874  -6.418   2.868  0.00  0.00    -0.263 NA
ATOM     40  C   UNL     1      34.678  -7.439   3.811  0.00  0.00    +0.111 A 
ENDBRANCH   4   3
ENDBRANCH  10   9
BRANCH  12  13
ATOM     13  N   UNL     1      25.812  -1.299  -1.032  0.00  0.00    -0.281 N 
ATOM     14  C   UNL     1      24.823  -2.221  -0.730  0.00  0.00    +0.248 C 
ATOM     30  O   UNL     1      24.899  -3.418  -0.964  0.00  0.00    -0.270 OA
ATOM     31  H   UNL     1      25.545  -0.317  -0.965  0.00  0.00    +0.155 HD
BRANCH  14  15
ATOM     15  C   UNL     1      23.561  -1.742  -0.088  0.00  0.00    +0.037 A 
ATOM     16  C   UNL     1      23.376  -1.805   1.364  0.00  0.00    +0.013 A 
ATOM     17  C   UNL     1      22.142  -1.352   1.956  0.00  0.00    +0.005 A 
ATOM     18  C   UNL     1      21.084  -0.830   1.095  0.00  0.00    -0.033 A 
ATOM     28  C   UNL     1      21.296  -0.774  -0.342  0.00  0.00    +0.005 A 
ATOM     29  C   UNL     1      22.504  -1.218  -0.926  0.00  0.00    +0.013 A 
BRANCH  18  19
ATOM     19  C   UNL     1      19.727  -0.344   1.638  0.00  0.00    +0.119 C 
BRANCH  19  20
ATOM     20  N   UNL     1      19.669   1.040   2.195  0.00  0.00    -0.302 NA
ATOM     21  C   UNL     1      19.663   1.043   3.727  0.00  0.00    +0.066 C 
ATOM     22  C   UNL     1      19.625   2.499   4.293  0.00  0.00    -0.064 C 
ATOM     23  N   UNL     1      18.396   3.225   3.745  0.00  0.00    +0.379 N 
ATOM     24  C   UNL     1      18.326   4.576   4.322  0.00  0.00    -0.096 C 
ATOM     25  H   UNL     1      17.493   2.665   4.085  0.00  0.00    -0.082 HD
ATOM     26  C   UNL     1      18.392   3.225   2.223  0.00  0.00    -0.064 C 
ATOM     27  C   UNL     1      18.460   1.774   1.671  0.00  0.00    +0.066 C 
ENDBRANCH  19  20
ENDBRANCH  18  19
ENDBRANCH  14  15
ENDBRANCH  12  13
TORSDOF 6
ENDMDL
MODEL 2
REMARK VINA RESULT:      -7.2      6.469     10.211
REMARK  Name = C:\Users\Docking\Desktop\test protocol\1iep_ligandH.pdb
REMARK  8 active torsions:
REMARK  status: ('A' for Active; 'I' for Inactive)
REMARK    1  A    between atoms: _5  and  _11
REMARK    2  A    between atoms: _19  and  _21
REMARK    3  A    between atoms: _22  and  _66
REMARK    4  A    between atoms: _27  and  _30
REMARK    5  A    between atoms: _32  and  _33
REMARK    6  A    between atoms: _38  and  _43
REMARK    7  A    between atoms: _43  and  _46
REMARK    8  A    between atoms: _53  and  _55
REMARK                            x       y       z     vdW  Elec       q    Type
REMARK                         _______ _______ _______ _____ _____    ______ ____
ROOT
ATOM     10  C   UNL     1      22.399  -1.248   1.619  0.00  0.00    +0.038 A 
ATOM     11  C   UNL     1      22.985  -0.960   2.878  0.00  0.00    +0.047 A 
ATOM     12  C   UNL     1      22.282  -1.244   4.119  0.00  0.00    +0.035 A 
ATOM     32  C   UNL     1      20.982  -1.825   4.041  0.00  0.00    +0.024 A 
ATOM     33  C   UNL     1      20.371  -2.123   2.770  0.00  0.00    +0.007 A 
ATOM     34  C   UNL     1      21.059  -1.843   1.543  0.00  0.00    -0.029 A 
ATOM     35  C   UNL     1      20.352  -2.178   0.209  0.00  0.00    +0.045 C 
ENDROOT
BRANCH  10   9
ATOM      4  C   UNL     1      25.315  -2.498  -1.982  0.00  0.00    +0.077 A 
ATOM      5  C   UNL     1      25.435  -3.843  -1.496  0.00  0.00    +0.048 A 
ATOM      6  C   UNL     1      24.736  -4.170  -0.313  0.00  0.00    +0.116 A 
ATOM      7  N   UNL     1      23.977  -3.216   0.329  0.00  0.00    -0.223 NA
ATOM      8  C   UNL     1      23.884  -1.928  -0.165  0.00  0.00    +0.220 A 
ATOM      9  N   UNL     1      23.119  -0.955   0.460  0.00  0.00    -0.283 N 
ATOM     36  H   UNL     1      23.083  -0.014   0.068  0.00  0.00    +0.155 HD
ATOM     37  N   UNL     1      24.543  -1.590  -1.293  0.00  0.00    -0.214 NA
BRANCH   4   3
ATOM      1  C   UNL     1      27.845  -0.780  -4.421  0.00  0.00    +0.020 A 
ATOM      2  C   UNL     1      27.233  -1.237  -3.194  0.00  0.00    +0.013 A 
ATOM      3  C   UNL     1      25.992  -2.000  -3.221  0.00  0.00    +0.019 A 
ATOM     38  C   UNL     1      25.391  -2.287  -4.515  0.00  0.00    +0.120 A 
ATOM     39  N   UNL     1      26.003  -1.833  -5.679  0.00  0.00    -0.263 NA
ATOM     40  C   UNL     1      27.196  -1.096  -5.666  0.00  0.00    +0.111 A 
ENDBRANCH   4   3
ENDBRANCH  10   9
BRANCH  12  13
ATOM     13  N   UNL     1      22.823  -0.966   5.426  0.00  0.00    -0.281 N 
ATOM     14  C   UNL     1      22.437   0.024   6.315  0.00  0.00    +0.248 C 
ATOM     30  O   UNL     1      21.704   0.960   6.032  0.00  0.00    -0.270 OA
ATOM     31  H   UNL     1      23.585  -1.572   5.733  0.00  0.00    +0.155 HD
BRANCH  14  15
ATOM     15  C   UNL     1      22.949  -0.026   7.719  0.00  0.00    +0.037 A 
ATOM     16  C   UNL     1      24.174   0.678   8.106  0.00  0.00    +0.013 A 
ATOM     17  C   UNL     1      24.655   0.599   9.462  0.00  0.00    +0.005 A 
ATOM     18  C   UNL     1      23.909  -0.187  10.443  0.00  0.00    -0.033 A 
ATOM     28  C   UNL     1      22.694  -0.871  10.032  0.00  0.00    +0.005 A 
ATOM     29  C   UNL     1      22.220  -0.797   8.704  0.00  0.00    +0.013 A 
BRANCH  18  19
ATOM     19  C   UNL     1      24.360  -0.344  11.907  0.00  0.00    +0.119 C 
BRANCH  19  20
ATOM     20  N   UNL     1      25.603  -1.133  12.159  0.00  0.00    -0.302 NA
ATOM     21  C   UNL     1      25.616  -2.449  11.376  0.00  0.00    +0.066 C 
ATOM     22  C   UNL     1      26.932  -3.252  11.633  0.00  0.00    -0.064 C 
ATOM     23  N   UNL     1      27.082  -3.512  13.133  0.00  0.00    +0.379 N 
ATOM     24  C   UNL     1      28.289  -4.317  13.373  0.00  0.00    -0.096 C 
ATOM     25  H   UNL     1      26.203  -4.115  13.461  0.00  0.00    -0.082 HD
ATOM     26  C   UNL     1      27.067  -2.209  13.920  0.00  0.00    -0.064 C 
ATOM     27  C   UNL     1      25.768  -1.406  13.634  0.00  0.00    +0.066 C 
ENDBRANCH  19  20
ENDBRANCH  18  19
ENDBRANCH  14  15
ENDBRANCH  12  13
TORSDOF 6
ENDMDL
MODEL 3
REMARK VINA RESULT:      -7.1      5.781     11.433
REMARK  Name = C:\Users\Docking\Desktop\test protocol\1iep_ligandH.pdb
REMARK  8 active torsions:
REMARK  status: ('A' for Active; 'I' for Inactive)
REMARK    1  A    between atoms: _5  and  _11
REMARK    2  A    between atoms: _19  and  _21
REMARK    3  A    between atoms: _22  and  _66
REMARK    4  A    between atoms: _27  and  _30
REMARK    5  A    between atoms: _32  and  _33
REMARK    6  A    between atoms: _38  and  _43
REMARK    7  A    between atoms: _43  and  _46
REMARK    8  A    between atoms: _53  and  _55
REMARK                            x       y       z     vdW  Elec       q    Type
REMARK                         _______ _______ _______ _____ _____    ______ ____
ROOT
ATOM     10  C   UNL     1      23.364  -3.469   1.464  0.00  0.00    +0.038 A 
ATOM     11  C   UNL     1      24.010  -2.750   0.426  0.00  0.00    +0.047 A 
ATOM     12  C   UNL     1      23.831  -3.119  -0.969  0.00  0.00    +0.035 A 
ATOM     32  C   UNL     1      22.984  -4.225  -1.272  0.00  0.00    +0.024 A 
ATOM     33  C   UNL     1      22.320  -4.967  -0.230  0.00  0.00    +0.007 A 
ATOM     34  C   UNL     1      22.495  -4.609   1.149  0.00  0.00    -0.029 A 
ATOM     35  C   UNL     1      21.763  -5.444   2.225  0.00  0.00    +0.045 C 
ENDROOT
BRANCH  10   9
ATOM      4  C   UNL     1      22.352  -0.719   5.266  0.00  0.00    +0.077 A 
ATOM      5  C   UNL     1      21.342   0.005   4.548  0.00  0.00    +0.048 A 
ATOM      6  C   UNL     1      21.119  -0.357   3.200  0.00  0.00    +0.116 A 
ATOM      7  N   UNL     1      21.857  -1.368   2.624  0.00  0.00    -0.223 NA
ATOM      8  C   UNL     1      22.824  -2.045   3.344  0.00  0.00    +0.220 A 
ATOM      9  N   UNL     1      23.572  -3.071   2.787  0.00  0.00    -0.283 N 
ATOM     36  H   UNL     1      24.281  -3.541   3.349  0.00  0.00    +0.155 HD
ATOM     37  N   UNL     1      23.057  -1.718   4.632  0.00  0.00    -0.214 NA
BRANCH   4   3
ATOM      1  C   UNL     1      24.121   0.603   8.494  0.00  0.00    +0.020 A 
ATOM      2  C   UNL     1      23.827   0.380   7.097  0.00  0.00    +0.013 A 
ATOM      3  C   UNL     1      22.701  -0.455   6.697  0.00  0.00    +0.019 A 
ATOM     38  C   UNL     1      21.886  -1.054   7.744  0.00  0.00    +0.120 A 
ATOM     39  N   UNL     1      22.195  -0.823   9.081  0.00  0.00    -0.263 NA
ATOM     40  C   UNL     1      23.276  -0.023   9.477  0.00  0.00    +0.111 A 
ENDBRANCH   4   3
ENDBRANCH  10   9
BRANCH  12  13
ATOM     13  N   UNL     1      24.468  -2.432  -2.065  0.00  0.00    -0.281 N 
ATOM     14  C   UNL     1      25.792  -2.509  -2.465  0.00  0.00    +0.248 C 
ATOM     30  O   UNL     1      26.684  -3.021  -1.805  0.00  0.00    -0.270 OA
ATOM     31  H   UNL     1      23.870  -1.813  -2.613  0.00  0.00    +0.155 HD
BRANCH  14  15
ATOM     15  C   UNL     1      26.184  -1.920  -3.781  0.00  0.00    +0.037 A 
ATOM     16  C   UNL     1      27.329  -1.012  -3.897  0.00  0.00    +0.013 A 
ATOM     17  C   UNL     1      27.675  -0.445  -5.175  0.00  0.00    +0.005 A 
ATOM     18  C   UNL     1      26.876  -0.785  -6.350  0.00  0.00    -0.033 A 
ATOM     28  C   UNL     1      25.750  -1.692  -6.208  0.00  0.00    +0.005 A 
ATOM     29  C   UNL     1      25.406  -2.250  -4.956  0.00  0.00    +0.013 A 
BRANCH  18  19
ATOM     19  C   UNL     1      27.161  -0.209  -7.750  0.00  0.00    +0.119 C 
BRANCH  19  20
ATOM     20  N   UNL     1      28.493  -0.509  -8.355  0.00  0.00    -0.302 NA
ATOM     21  C   UNL     1      29.154   0.743  -8.938  0.00  0.00    +0.066 C 
ATOM     22  C   UNL     1      30.557   0.415  -9.546  0.00  0.00    -0.064 C 
ATOM     23  N   UNL     1      30.404  -0.665 -10.618  0.00  0.00    +0.379 N 
ATOM     24  C   UNL     1      31.712  -0.934 -11.233  0.00  0.00    -0.096 C 
ATOM     25  H   UNL     1      29.734  -0.262 -11.412  0.00  0.00    -0.082 HD
ATOM     26  C   UNL     1      29.745  -1.913 -10.048  0.00  0.00    -0.064 C 
ATOM     27  C   UNL     1      28.365  -1.571  -9.420  0.00  0.00    +0.066 C 
ENDBRANCH  19  20
ENDBRANCH  18  19
ENDBRANCH  14  15
ENDBRANCH  12  13
TORSDOF 6
ENDMDL
MODEL 4
REMARK VINA RESULT:      -6.9     35.682     40.570
REMARK  Name = C:\Users\Docking\Desktop\test protocol\1iep_ligandH.pdb
REMARK  8 active torsions:
REMARK  status: ('A' for Active; 'I' for Inactive)
REMARK    1  A    between atoms: _5  and  _11
REMARK    2  A    between atoms: _19  and  _21
REMARK    3  A    between atoms: _22  and  _66
REMARK    4  A    between atoms: _27  and  _30
REMARK    5  A    between atoms: _32  and  _33
REMARK    6  A    between atoms: _38  and  _43
REMARK    7  A    between atoms: _43  and  _46
REMARK    8  A    between atoms: _53  and  _55
REMARK                            x       y       z     vdW  Elec       q    Type
REMARK                         _______ _______ _______ _____ _____    ______ ____
ROOT
ATOM     10  C   UNL     1      55.586   8.787 -29.936  0.00  0.00    +0.038 A 
ATOM     11  C   UNL     1      54.685   9.157 -28.904  0.00  0.00    +0.047 A 
ATOM     12  C   UNL     1      54.961  10.290 -28.035  0.00  0.00    +0.035 A 
ATOM     32  C   UNL     1      56.163  11.027 -28.246  0.00  0.00    +0.024 A 
ATOM     33  C   UNL     1      57.090  10.664 -29.289  0.00  0.00    +0.007 A 
ATOM     34  C   UNL     1      56.824   9.546 -30.148  0.00  0.00    -0.029 A 
ATOM     35  C   UNL     1      57.857   9.199 -31.246  0.00  0.00    +0.045 C 
ENDROOT
BRANCH  10   9
ATOM      4  C   UNL     1      55.441   4.067 -30.791  0.00  0.00    +0.077 A 
ATOM      5  C   UNL     1      56.071   3.761 -29.539  0.00  0.00    +0.048 A 
ATOM      6  C   UNL     1      56.422   4.847 -28.707  0.00  0.00    +0.116 A 
ATOM      7  N   UNL     1      56.159   6.139 -29.107  0.00  0.00    -0.223 NA
ATOM      8  C   UNL     1      55.552   6.399 -30.322  0.00  0.00    +0.220 A 
ATOM      9  N   UNL     1      55.271   7.691 -30.742  0.00  0.00    -0.283 N 
ATOM     36  H   UNL     1      54.829   7.841 -31.648  0.00  0.00    +0.155 HD
ATOM     37  N   UNL     1      55.208   5.379 -31.136  0.00  0.00    -0.214 NA
BRANCH   4   3
ATOM      1  C   UNL     1      53.273   1.901 -33.222  0.00  0.00    +0.020 A 
ATOM      2  C   UNL     1      53.640   2.923 -32.269  0.00  0.00    +0.013 A 
ATOM      3  C   UNL     1      55.008   3.027 -31.778  0.00  0.00    +0.019 A 
ATOM     38  C   UNL     1      55.989   2.075 -32.276  0.00  0.00    +0.120 A 
ATOM     39  N   UNL     1      55.607   1.101 -33.193  0.00  0.00    -0.263 NA
ATOM     40  C   UNL     1      54.293   0.989 -33.671  0.00  0.00    +0.111 A 
ENDBRANCH   4   3
ENDBRANCH  10   9
BRANCH  12  13
ATOM     13  N   UNL     1      54.088  10.707 -26.966  0.00  0.00    -0.281 N 
ATOM     14  C   UNL     1      53.998  10.184 -25.686  0.00  0.00    +0.248 C 
ATOM     30  O   UNL     1      54.509   9.132 -25.332  0.00  0.00    -0.270 OA
ATOM     31  H   UNL     1      53.459  11.482 -27.179  0.00  0.00    +0.155 HD
BRANCH  14  15
ATOM     15  C   UNL     1      53.216  10.931 -24.655  0.00  0.00    +0.037 A 
ATOM     16  C   UNL     1      51.870  11.436 -24.939  0.00  0.00    +0.013 A 
ATOM     17  C   UNL     1      51.144  12.168 -23.932  0.00  0.00    +0.005 A 
ATOM     18  C   UNL     1      51.762  12.397 -22.628  0.00  0.00    -0.033 A 
ATOM     28  C   UNL     1      53.096  11.880 -22.371  0.00  0.00    +0.005 A 
ATOM     29  C   UNL     1      53.811  11.163 -23.356  0.00  0.00    +0.013 A 
BRANCH  18  19
ATOM     19  C   UNL     1      51.069  13.185 -21.501  0.00  0.00    +0.119 C 
BRANCH  19  20
ATOM     20  N   UNL     1      50.004  12.480 -20.728  0.00  0.00    -0.302 NA
ATOM     21  C   UNL     1      48.890  13.433 -20.284  0.00  0.00    +0.066 C 
ATOM     22  C   UNL     1      47.773  12.674 -19.496  0.00  0.00    -0.064 C 
ATOM     23  N   UNL     1      48.393  11.966 -18.291  0.00  0.00    +0.379 N 
ATOM     24  C   UNL     1      47.337  11.300 -17.516  0.00  0.00    -0.096 C 
ATOM     25  H   UNL     1      48.850  12.746 -17.639  0.00  0.00    -0.082 HD
ATOM     26  C   UNL     1      49.503  11.019 -18.724  0.00  0.00    -0.064 C 
ATOM     27  C   UNL     1      50.594  11.777 -19.531  0.00  0.00    +0.066 C 
ENDBRANCH  19  20
ENDBRANCH  18  19
ENDBRANCH  14  15
ENDBRANCH  12  13
TORSDOF 6
ENDMDL
MODEL 5
REMARK VINA RESULT:      -6.9     36.140     41.050
REMARK  Name = C:\Users\Docking\Desktop\test protocol\1iep_ligandH.pdb
REMARK  8 active torsions:
REMARK  status: ('A' for Active; 'I' for Inactive)
REMARK    1  A    between atoms: _5  and  _11
REMARK    2  A    between atoms: _19  and  _21
REMARK    3  A    between atoms: _22  and  _66
REMARK    4  A    between atoms: _27  and  _30
REMARK    5  A    between atoms: _32  and  _33
REMARK    6  A    between atoms: _38  and  _43
REMARK    7  A    between atoms: _43  and  _46
REMARK    8  A    between atoms: _53  and  _55
REMARK                            x       y       z     vdW  Elec       q    Type
REMARK                         _______ _______ _______ _____ _____    ______ ____
ROOT
ATOM     10  C   UNL     1      55.608   8.816 -29.994  0.00  0.00    +0.038 A 
ATOM     11  C   UNL     1      54.722   9.181 -28.949  0.00  0.00    +0.047 A 
ATOM     12  C   UNL     1      55.018  10.300 -28.068  0.00  0.00    +0.035 A 
ATOM     32  C   UNL     1      56.225  11.027 -28.282  0.00  0.00    +0.024 A 
ATOM     33  C   UNL     1      57.138  10.669 -29.338  0.00  0.00    +0.007 A 
ATOM     34  C   UNL     1      56.852   9.564 -30.209  0.00  0.00    -0.029 A 
ATOM     35  C   UNL     1      57.871   9.221 -31.321  0.00  0.00    +0.045 C 
ENDROOT
BRANCH  10   9
ATOM      4  C   UNL     1      55.463   4.111 -30.935  0.00  0.00    +0.077 A 
ATOM      5  C   UNL     1      56.133   3.785 -29.709  0.00  0.00    +0.048 A 
ATOM      6  C   UNL     1      56.505   4.858 -28.867  0.00  0.00    +0.116 A 
ATOM      7  N   UNL     1      56.222   6.156 -29.234  0.00  0.00    -0.223 NA
ATOM      8  C   UNL     1      55.576   6.435 -30.425  0.00  0.00    +0.220 A 
ATOM      9  N   UNL     1      55.274   7.732 -30.810  0.00  0.00    -0.283 N 
ATOM     36  H   UNL     1      54.803   7.898 -31.699  0.00  0.00    +0.155 HD
ATOM     37  N   UNL     1      55.212   5.429 -31.246  0.00  0.00    -0.214 NA
BRANCH   4   3
ATOM      1  C   UNL     1      53.592   1.114 -32.612  0.00  0.00    +0.020 A 
ATOM      2  C   UNL     1      54.000   2.079 -31.617  0.00  0.00    +0.013 A 
ATOM      3  C   UNL     1      55.005   3.088 -31.927  0.00  0.00    +0.019 A 
ATOM     38  C   UNL     1      55.581   3.094 -33.263  0.00  0.00    +0.120 A 
ATOM     39  N   UNL     1      55.169   2.151 -34.200  0.00  0.00    -0.263 NA
ATOM     40  C   UNL     1      54.204   1.174 -33.913  0.00  0.00    +0.111 A 
ENDBRANCH   4   3
ENDBRANCH  10   9
BRANCH  12  13
ATOM     13  N   UNL     1      54.160  10.713 -26.985  0.00  0.00    -0.281 N 
ATOM     14  C   UNL     1      54.070  10.168 -25.714  0.00  0.00    +0.248 C 
ATOM     30  O   UNL     1      54.566   9.101 -25.383  0.00  0.00    -0.270 OA
ATOM     31  H   UNL     1      53.543  11.502 -27.179  0.00  0.00    +0.155 HD
BRANCH  14  15
ATOM     15  C   UNL     1      53.308  10.909 -24.663  0.00  0.00    +0.037 A 
ATOM     16  C   UNL     1      53.872  11.130 -23.330  0.00  0.00    +0.013 A 
ATOM     17  C   UNL     1      53.109  11.833 -22.329  0.00  0.00    +0.005 A 
ATOM     18  C   UNL     1      51.772  12.321 -22.660  0.00  0.00    -0.033 A 
ATOM     28  C   UNL     1      51.239  12.092 -23.992  0.00  0.00    +0.005 A 
ATOM     29  C   UNL     1      51.984  11.403 -24.975  0.00  0.00    +0.013 A 
BRANCH  18  19
ATOM     19  C   UNL     1      50.879  13.062 -21.648  0.00  0.00    +0.119 C 
BRANCH  19  20
ATOM     20  N   UNL     1      51.521  13.534 -20.385  0.00  0.00    -0.302 NA
ATOM     21  C   UNL     1      51.154  12.652 -19.189  0.00  0.00    +0.066 C 
ATOM     22  C   UNL     1      51.852  13.147 -17.881  0.00  0.00    -0.064 C 
ATOM     23  N   UNL     1      51.466  14.603 -17.619  0.00  0.00    +0.379 N 
ATOM     24  C   UNL     1      52.074  15.053 -16.359  0.00  0.00    -0.096 C 
ATOM     25  H   UNL     1      50.359  14.641 -17.492  0.00  0.00    -0.082 HD
ATOM     26  C   UNL     1      51.825  15.487 -18.804  0.00  0.00    -0.064 C 
ATOM     27  C   UNL     1      51.149  14.969 -20.105  0.00  0.00    +0.066 C 
ENDBRANCH  19  20
ENDBRANCH  18  19
ENDBRANCH  14  15
ENDBRANCH  12  13
TORSDOF 6
ENDMDL
