MODEL 1
REMARK VINA RESULT:      -7.7      0.000      0.000
REMARK  Name = C:\Users\Docking\Desktop\test protocol\1iep_ligandH.pdb
REMARK  8 active torsions:
REMARK  status: ('A' for Active; 'I' for Inactive)
REMARK    1  A    between atoms: _5  and  _11
REMARK    2  A    between atoms: _19  and  _21
REMARK    3  A    between atoms: _22  and  _66
REMARK    4  A    between atoms: _27  and  _30
REMARK    5  A    between atoms: _32  and  _33
REMARK    6  A    between atoms: _38  and  _43
REMARK    7  A    between atoms: _43  and  _46
REMARK    8  A    between atoms: _53  and  _55
REMARK                            x       y       z     vdW  Elec       q    Type
REMARK                         _______ _______ _______ _____ _____    ______ ____
ROOT
ATOM     10  C   UNL     1     -31.731  -8.799 -19.648  0.00  0.00    +0.038 A 
ATOM     11  C   UNL     1     -32.898  -8.468 -18.913  0.00  0.00    +0.047 A 
ATOM     12  C   UNL     1     -33.390  -7.100 -18.857  0.00  0.00    +0.035 A 
ATOM     32  C   UNL     1     -32.669  -6.094 -19.565  0.00  0.00    +0.024 A 
ATOM     33  C   UNL     1     -31.480  -6.413 -20.316  0.00  0.00    +0.007 A 
ATOM     34  C   UNL     1     -30.990  -7.760 -20.372  0.00  0.00    -0.029 A 
ATOM     35  C   UNL     1     -29.706  -8.043 -21.187  0.00  0.00    +0.045 C 
ENDROOT
BRANCH  10   9
ATOM      4  C   UNL     1     -29.485 -12.552 -17.672  0.00  0.00    +0.077 A 
ATOM      5  C   UNL     1     -29.106 -11.792 -16.515  0.00  0.00    +0.048 A 
ATOM      6  C   UNL     1     -29.504 -10.437 -16.471  0.00  0.00    +0.116 A 
ATOM      7  N   UNL     1     -30.225  -9.893 -17.511  0.00  0.00    -0.223 NA
ATOM      8  C   UNL     1     -30.572 -10.653 -18.613  0.00  0.00    +0.220 A 
ATOM      9  N   UNL     1     -31.304 -10.129 -19.667  0.00  0.00    -0.283 N 
ATOM     36  H   UNL     1     -31.534 -10.721 -20.465  0.00  0.00    +0.155 HD
ATOM     37  N   UNL     1     -30.204 -11.950 -18.680  0.00  0.00    -0.214 NA
BRANCH   4   3
ATOM      1  C   UNL     1     -28.473 -16.270 -16.998  0.00  0.00    +0.020 A 
ATOM      2  C   UNL     1     -28.796 -14.883 -16.759  0.00  0.00    +0.013 A 
ATOM      3  C   UNL     1     -29.142 -13.997 -17.864  0.00  0.00    +0.019 A 
ATOM     38  C   UNL     1     -29.153 -14.552 -19.209  0.00  0.00    +0.120 A 
ATOM     39  N   UNL     1     -28.837 -15.892 -19.409  0.00  0.00    -0.263 NA
ATOM     40  C   UNL     1     -28.501 -16.753 -18.354  0.00  0.00    +0.111 A 
ENDBRANCH   4   3
ENDBRANCH  10   9
BRANCH  12  13
ATOM     13  N   UNL     1     -34.564  -6.703 -18.121  0.00  0.00    -0.281 N 
ATOM     14  C   UNL     1     -34.880  -5.445 -17.635  0.00  0.00    +0.248 C 
ATOM     30  O   UNL     1     -34.094  -4.510 -17.575  0.00  0.00    -0.270 OA
ATOM     31  H   UNL     1     -35.246  -7.439 -17.935  0.00  0.00    +0.155 HD
BRANCH  14  15
ATOM     15  C   UNL     1     -36.263  -5.192 -17.130  0.00  0.00    +0.037 A 
ATOM     16  C   UNL     1     -36.525  -4.978 -15.704  0.00  0.00    +0.013 A 
ATOM     17  C   UNL     1     -37.871  -4.753 -15.241  0.00  0.00    +0.005 A 
ATOM     18  C   UNL     1     -38.967  -4.739 -16.207  0.00  0.00    -0.033 A 
ATOM     28  C   UNL     1     -38.679  -4.948 -17.616  0.00  0.00    +0.005 A 
ATOM     29  C   UNL     1     -37.361  -5.170 -18.073  0.00  0.00    +0.013 A 
BRANCH  18  19
ATOM     19  C   UNL     1     -40.438  -4.527 -15.800  0.00  0.00    +0.119 C 
BRANCH  19  20
ATOM     20  N   UNL     1     -41.185  -5.717 -15.295  0.00  0.00    -0.302 NA
ATOM     21  C   UNL     1     -41.606  -6.655 -16.430  0.00  0.00    +0.066 C 
ATOM     22  C   UNL     1     -42.368  -7.906 -15.881  0.00  0.00    -0.064 C 
ATOM     23  N   UNL     1     -43.586  -7.447 -15.079  0.00  0.00    +0.379 N 
ATOM     24  C   UNL     1     -44.336  -8.621 -14.611  0.00  0.00    -0.096 C 
ATOM     25  H   UNL     1     -44.249  -6.874 -15.768  0.00  0.00    -0.082 HD
ATOM     26  C   UNL     1     -43.177  -6.511 -13.950  0.00  0.00    -0.064 C 
ATOM     27  C   UNL     1     -42.395  -5.287 -14.502  0.00  0.00    +0.066 C 
ENDBRANCH  19  20
ENDBRANCH  18  19
ENDBRANCH  14  15
ENDBRANCH  12  13
TORSDOF 6
ENDMDL
MODEL 2
REMARK VINA RESULT:      -7.6      6.886     11.931
REMARK  Name = C:\Users\Docking\Desktop\test protocol\1iep_ligandH.pdb
REMARK  8 active torsions:
REMARK  status: ('A' for Active; 'I' for Inactive)
REMARK    1  A    between atoms: _5  and  _11
REMARK    2  A    between atoms: _19  and  _21
REMARK    3  A    between atoms: _22  and  _66
REMARK    4  A    between atoms: _27  and  _30
REMARK    5  A    between atoms: _32  and  _33
REMARK    6  A    between atoms: _38  and  _43
REMARK    7  A    between atoms: _43  and  _46
REMARK    8  A    between atoms: _53  and  _55
REMARK                            x       y       z     vdW  Elec       q    Type
REMARK                         _______ _______ _______ _____ _____    ______ ____
ROOT
ATOM     10  C   UNL     1     -41.756  -4.961 -15.081  0.00  0.00    +0.038 A 
ATOM     11  C   UNL     1     -41.930  -5.955 -14.084  0.00  0.00    +0.047 A 
ATOM     12  C   UNL     1     -43.257  -6.338 -13.627  0.00  0.00    +0.035 A 
ATOM     32  C   UNL     1     -44.385  -5.689 -14.209  0.00  0.00    +0.024 A 
ATOM     33  C   UNL     1     -44.226  -4.677 -15.223  0.00  0.00    +0.007 A 
ATOM     34  C   UNL     1     -42.920  -4.293 -15.676  0.00  0.00    -0.029 A 
ATOM     35  C   UNL     1     -42.808  -3.197 -16.761  0.00  0.00    +0.045 C 
ENDROOT
BRANCH  10   9
ATOM      4  C   UNL     1     -37.984  -5.436 -18.011  0.00  0.00    +0.077 A 
ATOM      5  C   UNL     1     -38.643  -6.443 -18.792  0.00  0.00    +0.048 A 
ATOM      6  C   UNL     1     -39.949  -6.816 -18.402  0.00  0.00    +0.116 A 
ATOM      7  N   UNL     1     -40.542  -6.219 -17.311  0.00  0.00    -0.223 NA
ATOM      8  C   UNL     1     -39.878  -5.252 -16.578  0.00  0.00    +0.220 A 
ATOM      9  N   UNL     1     -40.459  -4.633 -15.482  0.00  0.00    -0.283 N 
ATOM     36  H   UNL     1     -39.934  -3.930 -14.963  0.00  0.00    +0.155 HD
ATOM     37  N   UNL     1     -38.630  -4.880 -16.929  0.00  0.00    -0.214 NA
BRANCH   4   3
ATOM      1  C   UNL     1     -34.188  -4.554 -17.679  0.00  0.00    +0.020 A 
ATOM      2  C   UNL     1     -35.502  -5.055 -17.351  0.00  0.00    +0.013 A 
ATOM      3  C   UNL     1     -36.603  -4.934 -18.299  0.00  0.00    +0.019 A 
ATOM     38  C   UNL     1     -36.338  -4.296 -19.579  0.00  0.00    +0.120 A 
ATOM     39  N   UNL     1     -35.062  -3.821 -19.866  0.00  0.00    -0.263 NA
ATOM     40  C   UNL     1     -33.995  -3.931 -18.962  0.00  0.00    +0.111 A 
ENDBRANCH   4   3
ENDBRANCH  10   9
BRANCH  12  13
ATOM     13  N   UNL     1     -43.496  -7.334 -12.612  0.00  0.00    -0.281 N 
ATOM     14  C   UNL     1     -44.213  -7.196 -11.435  0.00  0.00    +0.248 C 
ATOM     30  O   UNL     1     -44.582  -6.127 -10.972  0.00  0.00    -0.270 OA
ATOM     31  H   UNL     1     -43.086  -8.252 -12.782  0.00  0.00    +0.155 HD
BRANCH  14  15
ATOM     15  C   UNL     1     -44.559  -8.421 -10.653  0.00  0.00    +0.037 A 
ATOM     16  C   UNL     1     -44.865  -9.688 -11.321  0.00  0.00    +0.013 A 
ATOM     17  C   UNL     1     -45.213 -10.851 -10.543  0.00  0.00    +0.005 A 
ATOM     18  C   UNL     1     -45.255 -10.751  -9.086  0.00  0.00    -0.033 A 
ATOM     28  C   UNL     1     -44.942  -9.483  -8.449  0.00  0.00    +0.005 A 
ATOM     29  C   UNL     1     -44.602  -8.341  -9.208  0.00  0.00    +0.013 A 
BRANCH  18  19
ATOM     19  C   UNL     1     -45.636 -11.935  -8.177  0.00  0.00    +0.119 C 
BRANCH  19  20
ATOM     20  N   UNL     1     -45.074 -11.944  -6.794  0.00  0.00    -0.302 NA
ATOM     21  C   UNL     1     -44.539 -13.323  -6.399  0.00  0.00    +0.066 C 
ATOM     22  C   UNL     1     -43.935 -13.309  -4.958  0.00  0.00    -0.064 C 
ATOM     23  N   UNL     1     -44.999 -12.837  -3.966  0.00  0.00    +0.379 N 
ATOM     24  C   UNL     1     -44.451 -12.877  -2.602  0.00  0.00    -0.096 C 
ATOM     25  H   UNL     1     -45.847 -13.559  -4.012  0.00  0.00    -0.082 HD
ATOM     26  C   UNL     1     -45.538 -11.467  -4.352  0.00  0.00    -0.064 C 
ATOM     27  C   UNL     1     -46.110 -11.485  -5.797  0.00  0.00    +0.066 C 
ENDBRANCH  19  20
ENDBRANCH  18  19
ENDBRANCH  14  15
ENDBRANCH  12  13
TORSDOF 6
ENDMDL
MODEL 3
REMARK VINA RESULT:      -7.6     14.277     16.294
REMARK  Name = C:\Users\Docking\Desktop\test protocol\1iep_ligandH.pdb
REMARK  8 active torsions:
REMARK  status: ('A' for Active; 'I' for Inactive)
REMARK    1  A    between atoms: _5  and  _11
REMARK    2  A    between atoms: _19  and  _21
REMARK    3  A    between atoms: _22  and  _66
REMARK    4  A    between atoms: _27  and  _30
REMARK    5  A    between atoms: _32  and  _33
REMARK    6  A    between atoms: _38  and  _43
REMARK    7  A    between atoms: _43  and  _46
REMARK    8  A    between atoms: _53  and  _55
REMARK                            x       y       z     vdW  Elec       q    Type
REMARK                         _______ _______ _______ _____ _____    ______ ____
ROOT
ATOM     10  C   UNL     1     -44.857  -7.525  -9.229  0.00  0.00    +0.038 A 
ATOM     11  C   UNL     1     -45.190  -6.154  -9.082  0.00  0.00    +0.047 A 
ATOM     12  C   UNL     1     -46.251  -5.548  -9.871  0.00  0.00    +0.035 A 
ATOM     32  C   UNL     1     -46.955  -6.370 -10.800  0.00  0.00    +0.024 A 
ATOM     33  C   UNL     1     -46.629  -7.765 -10.963  0.00  0.00    +0.007 A 
ATOM     34  C   UNL     1     -45.582  -8.367 -10.189  0.00  0.00    -0.029 A 
ATOM     35  C   UNL     1     -45.271  -9.866 -10.410  0.00  0.00    +0.045 C 
ENDROOT
BRANCH  10   9
ATOM      4  C   UNL     1     -43.270  -9.905  -5.375  0.00  0.00    +0.077 A 
ATOM      5  C   UNL     1     -44.599 -10.085  -4.866  0.00  0.00    +0.048 A 
ATOM      6  C   UNL     1     -45.663  -9.544  -5.622  0.00  0.00    +0.116 A 
ATOM      7  N   UNL     1     -45.405  -8.875  -6.799  0.00  0.00    -0.223 NA
ATOM      8  C   UNL     1     -44.111  -8.717  -7.261  0.00  0.00    +0.220 A 
ATOM      9  N   UNL     1     -43.829  -8.054  -8.445  0.00  0.00    -0.283 N 
ATOM     36  H   UNL     1     -42.861  -7.952  -8.748  0.00  0.00    +0.155 HD
ATOM     37  N   UNL     1     -43.078  -9.223  -6.556  0.00  0.00    -0.214 NA
BRANCH   4   3
ATOM      1  C   UNL     1     -39.543 -10.712  -4.502  0.00  0.00    +0.020 A 
ATOM      2  C   UNL     1     -40.696 -10.192  -5.201  0.00  0.00    +0.013 A 
ATOM      3  C   UNL     1     -42.042 -10.421  -4.691  0.00  0.00    +0.019 A 
ATOM     38  C   UNL     1     -42.189 -11.187  -3.462  0.00  0.00    +0.120 A 
ATOM     39  N   UNL     1     -41.060 -11.677  -2.812  0.00  0.00    -0.263 NA
ATOM     40  C   UNL     1     -39.760 -11.464  -3.293  0.00  0.00    +0.111 A 
ENDBRANCH   4   3
ENDBRANCH  10   9
BRANCH  12  13
ATOM     13  N   UNL     1     -46.628  -4.160  -9.771  0.00  0.00    -0.281 N 
ATOM     14  C   UNL     1     -47.448  -3.566  -8.825  0.00  0.00    +0.248 C 
ATOM     30  O   UNL     1     -48.157  -4.180  -8.042  0.00  0.00    -0.270 OA
ATOM     31  H   UNL     1     -46.244  -3.540 -10.484  0.00  0.00    +0.155 HD
BRANCH  14  15
ATOM     15  C   UNL     1     -47.498  -2.075  -8.748  0.00  0.00    +0.037 A 
ATOM     16  C   UNL     1     -47.996  -1.272  -9.868  0.00  0.00    +0.013 A 
ATOM     17  C   UNL     1     -48.018   0.166  -9.773  0.00  0.00    +0.005 A 
ATOM     18  C   UNL     1     -47.540   0.811  -8.553  0.00  0.00    -0.033 A 
ATOM     28  C   UNL     1     -47.056  -0.009  -7.455  0.00  0.00    +0.005 A 
ATOM     29  C   UNL     1     -47.032  -1.419  -7.544  0.00  0.00    +0.013 A 
BRANCH  18  19
ATOM     19  C   UNL     1     -47.508   2.340  -8.373  0.00  0.00    +0.119 C 
BRANCH  19  20
ATOM     20  N   UNL     1     -46.714   3.129  -9.362  0.00  0.00    -0.302 NA
ATOM     21  C   UNL     1     -45.319   2.535  -9.583  0.00  0.00    +0.066 C 
ATOM     22  C   UNL     1     -44.511   3.359 -10.638  0.00  0.00    -0.064 C 
ATOM     23  N   UNL     1     -44.414   4.814 -10.178  0.00  0.00    +0.379 N 
ATOM     24  C   UNL     1     -43.605   5.579 -11.139  0.00  0.00    -0.096 C 
ATOM     25  H   UNL     1     -43.878   4.825  -9.201  0.00  0.00    -0.082 HD
ATOM     26  C   UNL     1     -45.796   5.411  -9.953  0.00  0.00    -0.064 C 
ATOM     27  C   UNL     1     -46.601   4.569  -8.926  0.00  0.00    +0.066 C 
ENDBRANCH  19  20
ENDBRANCH  18  19
ENDBRANCH  14  15
ENDBRANCH  12  13
TORSDOF 6
ENDMDL
MODEL 4
REMARK VINA RESULT:      -7.5     17.255     23.008
REMARK  Name = C:\Users\Docking\Desktop\test protocol\1iep_ligandH.pdb
REMARK  8 active torsions:
REMARK  status: ('A' for Active; 'I' for Inactive)
REMARK    1  A    between atoms: _5  and  _11
REMARK    2  A    between atoms: _19  and  _21
REMARK    3  A    between atoms: _22  and  _66
REMARK    4  A    between atoms: _27  and  _30
REMARK    5  A    between atoms: _32  and  _33
REMARK    6  A    between atoms: _38  and  _43
REMARK    7  A    between atoms: _43  and  _46
REMARK    8  A    between atoms: _53  and  _55
REMARK                            x       y       z     vdW  Elec       q    Type
REMARK                         _______ _______ _______ _____ _____    ______ ____
ROOT
ATOM     10  C   UNL     1     -29.116 -20.107  -3.669  0.00  0.00    +0.038 A 
ATOM     11  C   UNL     1     -28.151 -19.881  -2.655  0.00  0.00    +0.047 A 
ATOM     12  C   UNL     1     -28.128 -20.688  -1.444  0.00  0.00    +0.035 A 
ATOM     32  C   UNL     1     -29.102 -21.719  -1.301  0.00  0.00    +0.024 A 
ATOM     33  C   UNL     1     -30.091 -21.961  -2.322  0.00  0.00    +0.007 A 
ATOM     34  C   UNL     1     -30.120 -21.167  -3.517  0.00  0.00    -0.029 A 
ATOM     35  C   UNL     1     -31.207 -21.467  -4.575  0.00  0.00    +0.045 C 
ENDROOT
BRANCH  10   9
ATOM      4  C   UNL     1     -27.768 -19.209  -8.187  0.00  0.00    +0.077 A 
ATOM      5  C   UNL     1     -27.027 -20.435  -8.272  0.00  0.00    +0.048 A 
ATOM      6  C   UNL     1     -27.012 -21.264  -7.128  0.00  0.00    +0.116 A 
ATOM      7  N   UNL     1     -27.691 -20.887  -5.990  0.00  0.00    -0.223 NA
ATOM      8  C   UNL     1     -28.395 -19.698  -5.941  0.00  0.00    +0.220 A 
ATOM      9  N   UNL     1     -29.092 -19.302  -4.810  0.00  0.00    -0.283 N 
ATOM     36  H   UNL     1     -29.593 -18.414  -4.812  0.00  0.00    +0.155 HD
ATOM     37  N   UNL     1     -28.424 -18.887  -7.020  0.00  0.00    -0.214 NA
BRANCH   4   3
ATOM      1  C   UNL     1     -27.530 -17.526 -11.710  0.00  0.00    +0.020 A 
ATOM      2  C   UNL     1     -27.396 -18.508 -10.658  0.00  0.00    +0.013 A 
ATOM      3  C   UNL     1     -27.881 -18.229  -9.313  0.00  0.00    +0.019 A 
ATOM     38  C   UNL     1     -28.503 -16.937  -9.062  0.00  0.00    +0.120 A 
ATOM     39  N   UNL     1     -28.617 -16.011 -10.095  0.00  0.00    -0.263 NA
ATOM     40  C   UNL     1     -28.152 -16.268 -11.393  0.00  0.00    +0.111 A 
ENDBRANCH   4   3
ENDBRANCH  10   9
BRANCH  12  13
ATOM     13  N   UNL     1     -27.178 -20.499  -0.377  0.00  0.00    -0.281 N 
ATOM     14  C   UNL     1     -25.795 -20.515  -0.456  0.00  0.00    +0.248 C 
ATOM     30  O   UNL     1     -25.162 -20.907  -1.425  0.00  0.00    -0.270 OA
ATOM     31  H   UNL     1     -27.572 -20.335   0.549  0.00  0.00    +0.155 HD
BRANCH  14  15
ATOM     15  C   UNL     1     -24.999 -20.039   0.717  0.00  0.00    +0.037 A 
ATOM     16  C   UNL     1     -24.396 -18.704   0.734  0.00  0.00    +0.013 A 
ATOM     17  C   UNL     1     -23.619 -18.276   1.871  0.00  0.00    +0.005 A 
ATOM     18  C   UNL     1     -23.443 -19.185   3.001  0.00  0.00    -0.033 A 
ATOM     28  C   UNL     1     -24.057 -20.502   2.959  0.00  0.00    +0.005 A 
ATOM     29  C   UNL     1     -24.818 -20.925   1.847  0.00  0.00    +0.013 A 
BRANCH  18  19
ATOM     19  C   UNL     1     -22.613 -18.820   4.246  0.00  0.00    +0.119 C 
BRANCH  19  20
ATOM     20  N   UNL     1     -21.480 -17.866   4.057  0.00  0.00    -0.302 NA
ATOM     21  C   UNL     1     -20.242 -18.553   3.473  0.00  0.00    +0.066 C 
ATOM     22  C   UNL     1     -19.074 -17.536   3.261  0.00  0.00    -0.064 C 
ATOM     23  N   UNL     1     -18.741 -16.860   4.592  0.00  0.00    +0.379 N 
ATOM     24  C   UNL     1     -17.605 -15.946   4.408  0.00  0.00    -0.096 C 
ATOM     25  H   UNL     1     -18.423 -17.656   5.305  0.00  0.00    -0.082 HD
ATOM     26  C   UNL     1     -19.967 -16.177   5.181  0.00  0.00    -0.064 C 
ATOM     27  C   UNL     1     -21.132 -17.191   5.360  0.00  0.00    +0.066 C 
ENDBRANCH  19  20
ENDBRANCH  18  19
ENDBRANCH  14  15
ENDBRANCH  12  13
TORSDOF 6
ENDMDL
MODEL 5
REMARK VINA RESULT:      -7.5      5.219      8.599
REMARK  Name = C:\Users\Docking\Desktop\test protocol\1iep_ligandH.pdb
REMARK  8 active torsions:
REMARK  status: ('A' for Active; 'I' for Inactive)
REMARK    1  A    between atoms: _5  and  _11
REMARK    2  A    between atoms: _19  and  _21
REMARK    3  A    between atoms: _22  and  _66
REMARK    4  A    between atoms: _27  and  _30
REMARK    5  A    between atoms: _32  and  _33
REMARK    6  A    between atoms: _38  and  _43
REMARK    7  A    between atoms: _43  and  _46
REMARK    8  A    between atoms: _53  and  _55
REMARK                            x       y       z     vdW  Elec       q    Type
REMARK                         _______ _______ _______ _____ _____    ______ ____
ROOT
ATOM     10  C   UNL     1     -33.126  -4.765 -18.643  0.00  0.00    +0.038 A 
ATOM     11  C   UNL     1     -34.387  -4.520 -18.043  0.00  0.00    +0.047 A 
ATOM     12  C   UNL     1     -35.362  -5.587 -17.878  0.00  0.00    +0.035 A 
ATOM     32  C   UNL     1     -35.018  -6.892 -18.334  0.00  0.00    +0.024 A 
ATOM     33  C   UNL     1     -33.741  -7.159 -18.947  0.00  0.00    +0.007 A 
ATOM     34  C   UNL     1     -32.776  -6.110 -19.115  0.00  0.00    -0.029 A 
ATOM     35  C   UNL     1     -31.425  -6.452 -19.785  0.00  0.00    +0.045 C 
ENDROOT
BRANCH  10   9
ATOM      4  C   UNL     1     -31.218  -1.119 -21.114  0.00  0.00    +0.077 A 
ATOM      5  C   UNL     1     -32.063  -1.366 -22.247  0.00  0.00    +0.048 A 
ATOM      6  C   UNL     1     -32.970  -2.446 -22.155  0.00  0.00    +0.116 A 
ATOM      7  N   UNL     1     -33.020  -3.214 -21.012  0.00  0.00    -0.223 NA
ATOM      8  C   UNL     1     -32.189  -2.949 -19.939  0.00  0.00    +0.220 A 
ATOM      9  N   UNL     1     -32.228  -3.703 -18.776  0.00  0.00    -0.283 N 
ATOM     36  H   UNL     1     -31.593  -3.481 -18.010  0.00  0.00    +0.155 HD
ATOM     37  N   UNL     1     -31.313  -1.925 -20.002  0.00  0.00    -0.214 NA
BRANCH   4   3
ATOM      1  C   UNL     1     -28.111   1.054 -20.153  0.00  0.00    +0.020 A 
ATOM      2  C   UNL     1     -29.055  -0.039 -20.169  0.00  0.00    +0.013 A 
ATOM      3  C   UNL     1     -30.210  -0.013 -21.057  0.00  0.00    +0.019 A 
ATOM     38  C   UNL     1     -30.382   1.143 -21.924  0.00  0.00    +0.120 A 
ATOM     39  N   UNL     1     -29.458   2.182 -21.885  0.00  0.00    -0.263 NA
ATOM     40  C   UNL     1     -28.343   2.169 -21.034  0.00  0.00    +0.111 A 
ENDBRANCH   4   3
ENDBRANCH  10   9
BRANCH  12  13
ATOM     13  N   UNL     1     -36.662  -5.396 -17.283  0.00  0.00    -0.281 N 
ATOM     14  C   UNL     1     -37.839  -5.024 -17.911  0.00  0.00    +0.248 C 
ATOM     30  O   UNL     1     -37.907  -4.590 -19.051  0.00  0.00    -0.270 OA
ATOM     31  H   UNL     1     -36.721  -5.554 -16.277  0.00  0.00    +0.155 HD
BRANCH  14  15
ATOM     15  C   UNL     1     -39.126  -5.138 -17.159  0.00  0.00    +0.037 A 
ATOM     16  C   UNL     1     -39.193  -4.859 -15.722  0.00  0.00    +0.013 A 
ATOM     17  C   UNL     1     -40.444  -4.993 -15.017  0.00  0.00    +0.005 A 
ATOM     18  C   UNL     1     -41.638  -5.408 -15.750  0.00  0.00    -0.033 A 
ATOM     28  C   UNL     1     -41.543  -5.674 -17.176  0.00  0.00    +0.005 A 
ATOM     29  C   UNL     1     -40.320  -5.544 -17.870  0.00  0.00    +0.013 A 
BRANCH  18  19
ATOM     19  C   UNL     1     -43.009  -5.597 -15.075  0.00  0.00    +0.119 C 
BRANCH  19  20
ATOM     20  N   UNL     1     -43.729  -4.366 -14.632  0.00  0.00    -0.302 NA
ATOM     21  C   UNL     1     -43.089  -3.093 -15.193  0.00  0.00    +0.066 C 
ATOM     22  C   UNL     1     -43.868  -1.816 -14.738  0.00  0.00    -0.064 C 
ATOM     23  N   UNL     1     -43.918  -1.770 -13.210  0.00  0.00    +0.379 N 
ATOM     24  C   UNL     1     -44.600  -0.541 -12.778  0.00  0.00    -0.096 C 
ATOM     25  H   UNL     1     -42.868  -1.723 -12.839  0.00  0.00    -0.082 HD
ATOM     26  C   UNL     1     -44.551  -3.033 -12.644  0.00  0.00    -0.064 C 
ATOM     27  C   UNL     1     -43.787  -4.298 -13.126  0.00  0.00    +0.066 C 
ENDBRANCH  19  20
ENDBRANCH  18  19
ENDBRANCH  14  15
ENDBRANCH  12  13
TORSDOF 6
ENDMDL
