MODEL 1
REMARK VINA RESULT:      -8.2      0.000      0.000
REMARK  Name = C:\Users\Docking\Desktop\test protocol\1iep_ligandH.pdb
REMARK  8 active torsions:
REMARK  status: ('A' for Active; 'I' for Inactive)
REMARK    1  A    between atoms: _5  and  _11
REMARK    2  A    between atoms: _19  and  _21
REMARK    3  A    between atoms: _22  and  _66
REMARK    4  A    between atoms: _27  and  _30
REMARK    5  A    between atoms: _32  and  _33
REMARK    6  A    between atoms: _38  and  _43
REMARK    7  A    between atoms: _43  and  _46
REMARK    8  A    between atoms: _53  and  _55
REMARK                            x       y       z     vdW  Elec       q    Type
REMARK                         _______ _______ _______ _____ _____    ______ ____
ROOT
ATOM     10  C   UNL     1      19.903  29.899  22.073  0.00  0.00    +0.038 A 
ATOM     11  C   UNL     1      20.082  29.811  20.669  0.00  0.00    +0.047 A 
ATOM     12  C   UNL     1      19.390  30.715  19.764  0.00  0.00    +0.035 A 
ATOM     32  C   UNL     1      18.525  31.700  20.324  0.00  0.00    +0.024 A 
ATOM     33  C   UNL     1      18.330  31.803  21.749  0.00  0.00    +0.007 A 
ATOM     34  C   UNL     1      19.009  30.912  22.646  0.00  0.00    -0.029 A 
ATOM     35  C   UNL     1      18.758  31.064  24.165  0.00  0.00    +0.045 C 
ENDROOT
BRANCH  10   9
ATOM      4  C   UNL     1      20.183  25.831  24.605  0.00  0.00    +0.077 A 
ATOM      5  C   UNL     1      18.833  25.469  24.284  0.00  0.00    +0.048 A 
ATOM      6  C   UNL     1      18.097  26.360  23.471  0.00  0.00    +0.116 A 
ATOM      7  N   UNL     1      18.680  27.524  23.018  0.00  0.00    -0.223 NA
ATOM      8  C   UNL     1      19.984  27.844  23.347  0.00  0.00    +0.220 A 
ATOM      9  N   UNL     1      20.593  29.005  22.895  0.00  0.00    -0.283 N 
ATOM     36  H   UNL     1      21.554  29.208  23.166  0.00  0.00    +0.155 HD
ATOM     37  N   UNL     1      20.707  27.010  24.123  0.00  0.00    -0.214 NA
BRANCH   4   3
ATOM      1  C   UNL     1      21.548  23.489  27.425  0.00  0.00    +0.020 A 
ATOM      2  C   UNL     1      20.633  24.288  26.643  0.00  0.00    +0.013 A 
ATOM      3  C   UNL     1      21.089  24.991  25.451  0.00  0.00    +0.019 A 
ATOM     38  C   UNL     1      22.488  24.863  25.073  0.00  0.00    +0.120 A 
ATOM     39  N   UNL     1      23.347  24.088  25.847  0.00  0.00    -0.263 NA
ATOM     40  C   UNL     1      22.920  23.408  26.997  0.00  0.00    +0.111 A 
ENDBRANCH   4   3
ENDBRANCH  10   9
BRANCH  12  13
ATOM     13  N   UNL     1      19.525  30.668  18.329  0.00  0.00    -0.281 N 
ATOM     14  C   UNL     1      20.330  31.457  17.524  0.00  0.00    +0.248 C 
ATOM     30  O   UNL     1      20.899  32.472  17.897  0.00  0.00    -0.270 OA
ATOM     31  H   UNL     1      18.959  29.968  17.849  0.00  0.00    +0.155 HD
BRANCH  14  15
ATOM     15  C   UNL     1      20.519  31.071  16.092  0.00  0.00    +0.037 A 
ATOM     16  C   UNL     1      19.596  30.148  15.426  0.00  0.00    +0.013 A 
ATOM     17  C   UNL     1      19.811  29.778  14.049  0.00  0.00    +0.005 A 
ATOM     18  C   UNL     1      20.954  30.334  13.329  0.00  0.00    -0.033 A 
ATOM     28  C   UNL     1      21.851  31.251  14.012  0.00  0.00    +0.005 A 
ATOM     29  C   UNL     1      21.644  31.615  15.362  0.00  0.00    +0.013 A 
BRANCH  18  19
ATOM     19  C   UNL     1      21.273  29.978  11.864  0.00  0.00    +0.119 C 
BRANCH  19  20
ATOM     20  N   UNL     1      22.315  28.936  11.625  0.00  0.00    -0.302 NA
ATOM     21  C   UNL     1      23.133  29.222  10.362  0.00  0.00    +0.066 C 
ATOM     22  C   UNL     1      24.234  28.134  10.139  0.00  0.00    -0.064 C 
ATOM     23  N   UNL     1      23.575  26.755  10.058  0.00  0.00    +0.379 N 
ATOM     24  C   UNL     1      24.601  25.737   9.790  0.00  0.00    -0.096 C 
ATOM     25  H   UNL     1      22.875  26.766   9.191  0.00  0.00    -0.082 HD
ATOM     26  C   UNL     1      22.758  26.465  11.308  0.00  0.00    -0.064 C 
ATOM     27  C   UNL     1      21.686  27.567  11.537  0.00  0.00    +0.066 C 
ENDBRANCH  19  20
ENDBRANCH  18  19
ENDBRANCH  14  15
ENDBRANCH  12  13
TORSDOF 6
ENDMDL
MODEL 2
REMARK VINA RESULT:      -8.2      3.392     12.373
REMARK  Name = C:\Users\Docking\Desktop\test protocol\1iep_ligandH.pdb
REMARK  8 active torsions:
REMARK  status: ('A' for Active; 'I' for Inactive)
REMARK    1  A    between atoms: _5  and  _11
REMARK    2  A    between atoms: _19  and  _21
REMARK    3  A    between atoms: _22  and  _66
REMARK    4  A    between atoms: _27  and  _30
REMARK    5  A    between atoms: _32  and  _33
REMARK    6  A    between atoms: _38  and  _43
REMARK    7  A    between atoms: _43  and  _46
REMARK    8  A    between atoms: _53  and  _55
REMARK                            x       y       z     vdW  Elec       q    Type
REMARK                         _______ _______ _______ _____ _____    ______ ____
ROOT
ATOM     10  C   UNL     1      21.839  30.886  13.485  0.00  0.00    +0.038 A 
ATOM     11  C   UNL     1      21.545  30.660  14.855  0.00  0.00    +0.047 A 
ATOM     12  C   UNL     1      21.669  31.727  15.836  0.00  0.00    +0.035 A 
ATOM     32  C   UNL     1      22.092  33.012  15.388  0.00  0.00    +0.024 A 
ATOM     33  C   UNL     1      22.395  33.258  14.000  0.00  0.00    +0.007 A 
ATOM     34  C   UNL     1      22.277  32.210  13.028  0.00  0.00    -0.029 A 
ATOM     35  C   UNL     1      22.622  32.529  11.554  0.00  0.00    +0.045 C 
ENDROOT
BRANCH  10   9
ATOM      4  C   UNL     1      23.513  26.967  11.278  0.00  0.00    +0.077 A 
ATOM      5  C   UNL     1      24.775  27.053  11.954  0.00  0.00    +0.048 A 
ATOM      6  C   UNL     1      24.956  28.125  12.856  0.00  0.00    +0.116 A 
ATOM      7  N   UNL     1      23.943  29.037  13.060  0.00  0.00    -0.223 NA
ATOM      8  C   UNL     1      22.738  28.925  12.390  0.00  0.00    +0.220 A 
ATOM      9  N   UNL     1      21.703  29.826  12.586  0.00  0.00    -0.283 N 
ATOM     36  H   UNL     1      20.832  29.714  12.067  0.00  0.00    +0.155 HD
ATOM     37  N   UNL     1      22.541  27.911  11.522  0.00  0.00    -0.214 NA
BRANCH   4   3
ATOM      1  C   UNL     1      23.698  24.412   8.322  0.00  0.00    +0.020 A 
ATOM      2  C   UNL     1      24.079  25.457   9.243  0.00  0.00    +0.013 A 
ATOM      3  C   UNL     1      23.169  25.889  10.297  0.00  0.00    +0.019 A 
ATOM     38  C   UNL     1      21.872  25.237  10.392  0.00  0.00    +0.120 A 
ATOM     39  N   UNL     1      21.532  24.234   9.490  0.00  0.00    -0.263 NA
ATOM     40  C   UNL     1      22.398  23.811   8.471  0.00  0.00    +0.111 A 
ENDBRANCH   4   3
ENDBRANCH  10   9
BRANCH  12  13
ATOM     13  N   UNL     1      21.393  31.555  17.241  0.00  0.00    -0.281 N 
ATOM     14  C   UNL     1      20.261  31.942  17.940  0.00  0.00    +0.248 C 
ATOM     30  O   UNL     1      19.400  32.690  17.501  0.00  0.00    -0.270 OA
ATOM     31  H   UNL     1      22.120  31.092  17.786  0.00  0.00    +0.155 HD
BRANCH  14  15
ATOM     15  C   UNL     1      20.065  31.436  19.333  0.00  0.00    +0.037 A 
ATOM     16  C   UNL     1      20.083  30.002  19.630  0.00  0.00    +0.013 A 
ATOM     17  C   UNL     1      19.874  29.540  20.979  0.00  0.00    +0.005 A 
ATOM     18  C   UNL     1      19.645  30.516  22.043  0.00  0.00    -0.033 A 
ATOM     28  C   UNL     1      19.637  31.933  21.721  0.00  0.00    +0.005 A 
ATOM     29  C   UNL     1      19.840  32.389  20.399  0.00  0.00    +0.013 A 
BRANCH  18  19
ATOM     19  C   UNL     1      19.392  30.112  23.507  0.00  0.00    +0.119 C 
BRANCH  19  20
ATOM     20  N   UNL     1      18.000  30.263  24.027  0.00  0.00    -0.302 NA
ATOM     21  C   UNL     1      17.858  31.481  24.944  0.00  0.00    +0.066 C 
ATOM     22  C   UNL     1      16.391  31.637  25.461  0.00  0.00    -0.064 C 
ATOM     23  N   UNL     1      15.971  30.359  26.189  0.00  0.00    +0.379 N 
ATOM     24  C   UNL     1      14.612  30.525  26.726  0.00  0.00    -0.096 C 
ATOM     25  H   UNL     1      16.662  30.220  27.053  0.00  0.00    -0.082 HD
ATOM     26  C   UNL     1      16.111  29.143  25.285  0.00  0.00    -0.064 C 
ATOM     27  C   UNL     1      17.566  29.014  24.753  0.00  0.00    +0.066 C 
ENDBRANCH  19  20
ENDBRANCH  18  19
ENDBRANCH  14  15
ENDBRANCH  12  13
TORSDOF 6
ENDMDL
MODEL 3
REMARK VINA RESULT:      -8.2      9.870     12.822
REMARK  Name = C:\Users\Docking\Desktop\test protocol\1iep_ligandH.pdb
REMARK  8 active torsions:
REMARK  status: ('A' for Active; 'I' for Inactive)
REMARK    1  A    between atoms: _5  and  _11
REMARK    2  A    between atoms: _19  and  _21
REMARK    3  A    between atoms: _22  and  _66
REMARK    4  A    between atoms: _27  and  _30
REMARK    5  A    between atoms: _32  and  _33
REMARK    6  A    between atoms: _38  and  _43
REMARK    7  A    between atoms: _43  and  _46
REMARK    8  A    between atoms: _53  and  _55
REMARK                            x       y       z     vdW  Elec       q    Type
REMARK                         _______ _______ _______ _____ _____    ______ ____
ROOT
ATOM     10  C   UNL     1      21.587  35.294   9.440  0.00  0.00    +0.038 A 
ATOM     11  C   UNL     1      21.967  33.954   9.706  0.00  0.00    +0.047 A 
ATOM     12  C   UNL     1      23.347  33.520   9.559  0.00  0.00    +0.035 A 
ATOM     32  C   UNL     1      24.316  34.479   9.143  0.00  0.00    +0.024 A 
ATOM     33  C   UNL     1      23.947  35.845   8.868  0.00  0.00    +0.007 A 
ATOM     34  C   UNL     1      22.587  36.278   9.008  0.00  0.00    -0.029 A 
ATOM     35  C   UNL     1      22.247  37.754   8.694  0.00  0.00    +0.045 C 
ENDROOT
BRANCH  10   9
ATOM      4  C   UNL     1      17.811  36.470  12.161  0.00  0.00    +0.077 A 
ATOM      5  C   UNL     1      18.564  36.324  13.373  0.00  0.00    +0.048 A 
ATOM      6  C   UNL     1      19.918  35.939  13.253  0.00  0.00    +0.116 A 
ATOM      7  N   UNL     1      20.468  35.718  12.009  0.00  0.00    -0.223 NA
ATOM      8  C   UNL     1      19.713  35.865  10.860  0.00  0.00    +0.220 A 
ATOM      9  N   UNL     1      20.247  35.656   9.598  0.00  0.00    -0.283 N 
ATOM     36  H   UNL     1      19.655  35.768   8.775  0.00  0.00    +0.155 HD
ATOM     37  N   UNL     1      18.417  36.232  10.947  0.00  0.00    -0.214 NA
BRANCH   4   3
ATOM      1  C   UNL     1      13.986  36.735  12.935  0.00  0.00    +0.020 A 
ATOM      2  C   UNL     1      15.364  36.309  13.012  0.00  0.00    +0.013 A 
ATOM      3  C   UNL     1      16.370  36.875  12.122  0.00  0.00    +0.019 A 
ATOM     38  C   UNL     1      15.945  37.879  11.158  0.00  0.00    +0.120 A 
ATOM     39  N   UNL     1      14.611  38.268  11.106  0.00  0.00    -0.263 NA
ATOM     40  C   UNL     1      13.634  37.729  11.956  0.00  0.00    +0.111 A 
ENDBRANCH   4   3
ENDBRANCH  10   9
BRANCH  12  13
ATOM     13  N   UNL     1      23.791  32.170   9.806  0.00  0.00    -0.281 N 
ATOM     14  C   UNL     1      23.934  31.531  11.027  0.00  0.00    +0.248 C 
ATOM     30  O   UNL     1      23.905  32.096  12.110  0.00  0.00    -0.270 OA
ATOM     31  H   UNL     1      24.028  31.619   8.981  0.00  0.00    +0.155 HD
BRANCH  14  15
ATOM     15  C   UNL     1      24.155  30.053  11.046  0.00  0.00    +0.037 A 
ATOM     16  C   UNL     1      24.459  29.347  12.293  0.00  0.00    +0.013 A 
ATOM     17  C   UNL     1      24.685  27.923  12.281  0.00  0.00    +0.005 A 
ATOM     18  C   UNL     1      24.605  27.196  11.017  0.00  0.00    -0.033 A 
ATOM     28  C   UNL     1      24.296  27.921   9.796  0.00  0.00    +0.005 A 
ATOM     29  C   UNL     1      24.075  29.316   9.803  0.00  0.00    +0.013 A 
BRANCH  18  19
ATOM     19  C   UNL     1      24.852  25.679  10.907  0.00  0.00    +0.119 C 
BRANCH  19  20
ATOM     20  N   UNL     1      23.749  24.846  10.341  0.00  0.00    -0.302 NA
ATOM     21  C   UNL     1      23.783  24.810   8.811  0.00  0.00    +0.066 C 
ATOM     22  C   UNL     1      22.637  23.916   8.236  0.00  0.00    -0.064 C 
ATOM     23  N   UNL     1      21.288  24.438   8.735  0.00  0.00    +0.379 N 
ATOM     24  C   UNL     1      20.204  23.635   8.151  0.00  0.00    -0.096 C 
ATOM     25  H   UNL     1      21.173  25.483   8.365  0.00  0.00    -0.082 HD
ATOM     26  C   UNL     1      21.246  24.480  10.256  0.00  0.00    -0.064 C 
ATOM     27  C   UNL     1      22.408  25.347  10.818  0.00  0.00    +0.066 C 
ENDBRANCH  19  20
ENDBRANCH  18  19
ENDBRANCH  14  15
ENDBRANCH  12  13
TORSDOF 6
ENDMDL
MODEL 4
REMARK VINA RESULT:      -8.1      9.716     14.603
REMARK  Name = C:\Users\Docking\Desktop\test protocol\1iep_ligandH.pdb
REMARK  8 active torsions:
REMARK  status: ('A' for Active; 'I' for Inactive)
REMARK    1  A    between atoms: _5  and  _11
REMARK    2  A    between atoms: _19  and  _21
REMARK    3  A    between atoms: _22  and  _66
REMARK    4  A    between atoms: _27  and  _30
REMARK    5  A    between atoms: _32  and  _33
REMARK    6  A    between atoms: _38  and  _43
REMARK    7  A    between atoms: _43  and  _46
REMARK    8  A    between atoms: _53  and  _55
REMARK                            x       y       z     vdW  Elec       q    Type
REMARK                         _______ _______ _______ _____ _____    ______ ____
ROOT
ATOM     10  C   UNL     1      23.503  27.882  10.515  0.00  0.00    +0.038 A 
ATOM     11  C   UNL     1      23.767  27.070   9.382  0.00  0.00    +0.047 A 
ATOM     12  C   UNL     1      24.393  25.765   9.521  0.00  0.00    +0.035 A 
ATOM     32  C   UNL     1      24.734  25.315  10.830  0.00  0.00    +0.024 A 
ATOM     33  C   UNL     1      24.473  26.128  11.993  0.00  0.00    +0.007 A 
ATOM     34  C   UNL     1      23.858  27.418  11.861  0.00  0.00    -0.029 A 
ATOM     35  C   UNL     1      23.608  28.248  13.141  0.00  0.00    +0.045 C 
ENDROOT
BRANCH  10   9
ATOM      4  C   UNL     1      23.702  32.656  10.060  0.00  0.00    +0.077 A 
ATOM      5  C   UNL     1      25.124  32.674  10.247  0.00  0.00    +0.048 A 
ATOM      6  C   UNL     1      25.766  31.433  10.465  0.00  0.00    +0.116 A 
ATOM      7  N   UNL     1      25.029  30.269  10.491  0.00  0.00    -0.223 NA
ATOM      8  C   UNL     1      23.659  30.287  10.308  0.00  0.00    +0.220 A 
ATOM      9  N   UNL     1      22.900  29.127  10.323  0.00  0.00    -0.283 N 
ATOM     36  H   UNL     1      21.890  29.184  10.191  0.00  0.00    +0.155 HD
ATOM     37  N   UNL     1      23.023  31.459  10.100  0.00  0.00    -0.214 NA
BRANCH   4   3
ATOM      1  C   UNL     1      22.448  36.094   8.678  0.00  0.00    +0.020 A 
ATOM      2  C   UNL     1      23.277  34.927   8.877  0.00  0.00    +0.013 A 
ATOM      3  C   UNL     1      22.882  33.885   9.816  0.00  0.00    +0.019 A 
ATOM     38  C   UNL     1      21.633  34.054  10.543  0.00  0.00    +0.120 A 
ATOM     39  N   UNL     1      20.856  35.189  10.332  0.00  0.00    -0.263 NA
ATOM     40  C   UNL     1      21.227  36.200   9.432  0.00  0.00    +0.111 A 
ENDBRANCH   4   3
ENDBRANCH  10   9
BRANCH  12  13
ATOM     13  N   UNL     1      24.693  24.900   8.407  0.00  0.00    -0.281 N 
ATOM     14  C   UNL     1      23.815  24.385   7.468  0.00  0.00    +0.248 C 
ATOM     30  O   UNL     1      22.598  24.417   7.570  0.00  0.00    -0.270 OA
ATOM     31  H   UNL     1      25.673  24.636   8.298  0.00  0.00    +0.155 HD
BRANCH  14  15
ATOM     15  C   UNL     1      24.369  23.725   6.247  0.00  0.00    +0.037 A 
ATOM     16  C   UNL     1      25.469  22.761   6.336  0.00  0.00    +0.013 A 
ATOM     17  C   UNL     1      25.996  22.152   5.141  0.00  0.00    +0.005 A 
ATOM     18  C   UNL     1      25.422  22.505   3.844  0.00  0.00    -0.033 A 
ATOM     28  C   UNL     1      24.328  23.461   3.785  0.00  0.00    +0.005 A 
ATOM     29  C   UNL     1      23.810  24.060   4.955  0.00  0.00    +0.013 A 
BRANCH  18  19
ATOM     19  C   UNL     1      25.936  21.921   2.515  0.00  0.00    +0.119 C 
BRANCH  19  20
ATOM     20  N   UNL     1      27.363  22.182   2.160  0.00  0.00    -0.302 NA
ATOM     21  C   UNL     1      27.493  23.168   0.995  0.00  0.00    +0.066 C 
ATOM     22  C   UNL     1      28.992  23.447   0.651  0.00  0.00    -0.064 C 
ATOM     23  N   UNL     1      29.692  22.127   0.324  0.00  0.00    +0.379 N 
ATOM     24  C   UNL     1      31.087  22.393  -0.057  0.00  0.00    -0.096 C 
ATOM     25  H   UNL     1      29.179  21.683  -0.560  0.00  0.00    -0.082 HD
ATOM     26  C   UNL     1      29.565  21.140   1.475  0.00  0.00    -0.064 C 
ATOM     27  C   UNL     1      28.072  20.892   1.829  0.00  0.00    +0.066 C 
ENDBRANCH  19  20
ENDBRANCH  18  19
ENDBRANCH  14  15
ENDBRANCH  12  13
TORSDOF 6
ENDMDL
MODEL 5
REMARK VINA RESULT:      -8.0     10.176     16.024
REMARK  Name = C:\Users\Docking\Desktop\test protocol\1iep_ligandH.pdb
REMARK  8 active torsions:
REMARK  status: ('A' for Active; 'I' for Inactive)
REMARK    1  A    between atoms: _5  and  _11
REMARK    2  A    between atoms: _19  and  _21
REMARK    3  A    between atoms: _22  and  _66
REMARK    4  A    between atoms: _27  and  _30
REMARK    5  A    between atoms: _32  and  _33
REMARK    6  A    between atoms: _38  and  _43
REMARK    7  A    between atoms: _43  and  _46
REMARK    8  A    between atoms: _53  and  _55
REMARK                            x       y       z     vdW  Elec       q    Type
REMARK                         _______ _______ _______ _____ _____    ______ ____
ROOT
ATOM     10  C   UNL     1      22.983  35.792   9.034  0.00  0.00    +0.038 A 
ATOM     11  C   UNL     1      23.514  34.478   9.089  0.00  0.00    +0.047 A 
ATOM     12  C   UNL     1      22.878  33.443   9.889  0.00  0.00    +0.035 A 
ATOM     32  C   UNL     1      21.701  33.780  10.620  0.00  0.00    +0.024 A 
ATOM     33  C   UNL     1      21.150  35.112  10.576  0.00  0.00    +0.007 A 
ATOM     34  C   UNL     1      21.774  36.138   9.791  0.00  0.00    -0.029 A 
ATOM     35  C   UNL     1      21.142  37.549   9.786  0.00  0.00    +0.045 C 
ENDROOT
BRANCH  10   9
ATOM      4  C   UNL     1      23.778  38.002   4.848  0.00  0.00    +0.077 A 
ATOM      5  C   UNL     1      22.836  37.167   4.161  0.00  0.00    +0.048 A 
ATOM      6  C   UNL     1      22.174  36.175   4.919  0.00  0.00    +0.116 A 
ATOM      7  N   UNL     1      22.441  36.039   6.264  0.00  0.00    -0.223 NA
ATOM      8  C   UNL     1      23.356  36.861   6.896  0.00  0.00    +0.220 A 
ATOM      9  N   UNL     1      23.634  36.747   8.250  0.00  0.00    -0.283 N 
ATOM     36  H   UNL     1      24.322  37.367   8.677  0.00  0.00    +0.155 HD
ATOM     37  N   UNL     1      24.003  37.814   6.194  0.00  0.00    -0.214 NA
BRANCH   4   3
ATOM      1  C   UNL     1      25.539  40.227   2.156  0.00  0.00    +0.020 A 
ATOM      2  C   UNL     1      24.781  39.148   2.746  0.00  0.00    +0.013 A 
ATOM      3  C   UNL     1      24.555  39.097   4.185  0.00  0.00    +0.019 A 
ATOM     38  C   UNL     1      25.112  40.162   5.005  0.00  0.00    +0.120 A 
ATOM     39  N   UNL     1      25.838  41.188   4.408  0.00  0.00    -0.263 NA
ATOM     40  C   UNL     1      26.064  41.247   3.025  0.00  0.00    +0.111 A 
ENDBRANCH   4   3
ENDBRANCH  10   9
BRANCH  12  13
ATOM     13  N   UNL     1      23.375  32.093   9.990  0.00  0.00    -0.281 N 
ATOM     14  C   UNL     1      23.958  31.479  11.087  0.00  0.00    +0.248 C 
ATOM     30  O   UNL     1      24.336  32.069  12.088  0.00  0.00    -0.270 OA
ATOM     31  H   UNL     1      23.287  31.520   9.150  0.00  0.00    +0.155 HD
BRANCH  14  15
ATOM     15  C   UNL     1      24.163  29.999  11.062  0.00  0.00    +0.037 A 
ATOM     16  C   UNL     1      24.491  29.257  12.281  0.00  0.00    +0.013 A 
ATOM     17  C   UNL     1      24.701  27.832  12.226  0.00  0.00    +0.005 A 
ATOM     18  C   UNL     1      24.582  27.139  10.945  0.00  0.00    -0.033 A 
ATOM     28  C   UNL     1      24.250  27.900   9.752  0.00  0.00    +0.005 A 
ATOM     29  C   UNL     1      24.045  29.297   9.802  0.00  0.00    +0.013 A 
BRANCH  18  19
ATOM     19  C   UNL     1      24.809  25.624  10.789  0.00  0.00    +0.119 C 
BRANCH  19  20
ATOM     20  N   UNL     1      23.668  24.810  10.275  0.00  0.00    -0.302 NA
ATOM     21  C   UNL     1      23.610  24.803   8.745  0.00  0.00    +0.066 C 
ATOM     22  C   UNL     1      22.424  23.929   8.224  0.00  0.00    -0.064 C 
ATOM     23  N   UNL     1      21.112  24.452   8.812  0.00  0.00    +0.379 N 
ATOM     24  C   UNL     1      19.988  23.668   8.279  0.00  0.00    -0.096 C 
ATOM     25  H   UNL     1      20.983  25.505   8.470  0.00  0.00    -0.082 HD
ATOM     26  C   UNL     1      21.161  24.464  10.334  0.00  0.00    -0.064 C 
ATOM     27  C   UNL     1      22.362  25.312  10.841  0.00  0.00    +0.066 C 
ENDBRANCH  19  20
ENDBRANCH  18  19
ENDBRANCH  14  15
ENDBRANCH  12  13
TORSDOF 6
ENDMDL
