MODEL 1
REMARK VINA RESULT:      -8.4      0.000      0.000
REMARK  Name = C:\Users\Docking\Desktop\test protocol\1iep_ligandH.pdb
REMARK  8 active torsions:
REMARK  status: ('A' for Active; 'I' for Inactive)
REMARK    1  A    between atoms: _5  and  _11
REMARK    2  A    between atoms: _19  and  _21
REMARK    3  A    between atoms: _22  and  _66
REMARK    4  A    between atoms: _27  and  _30
REMARK    5  A    between atoms: _32  and  _33
REMARK    6  A    between atoms: _38  and  _43
REMARK    7  A    between atoms: _43  and  _46
REMARK    8  A    between atoms: _53  and  _55
REMARK                            x       y       z     vdW  Elec       q    Type
REMARK                         _______ _______ _______ _____ _____    ______ ____
ROOT
ATOM     10  C   UNL     1      20.240  30.125  22.134  0.00  0.00    +0.038 A 
ATOM     11  C   UNL     1      20.700  30.168  20.793  0.00  0.00    +0.047 A 
ATOM     12  C   UNL     1      20.118  31.087  19.828  0.00  0.00    +0.035 A 
ATOM     32  C   UNL     1      19.072  31.951  20.263  0.00  0.00    +0.024 A 
ATOM     33  C   UNL     1      18.592  31.921  21.622  0.00  0.00    +0.007 A 
ATOM     34  C   UNL     1      19.160  31.014  22.579  0.00  0.00    -0.029 A 
ATOM     35  C   UNL     1      18.602  31.020  24.021  0.00  0.00    +0.045 C 
ENDROOT
BRANCH  10   9
ATOM      4  C   UNL     1      20.227  26.046  24.664  0.00  0.00    +0.077 A 
ATOM      5  C   UNL     1      18.914  25.696  24.204  0.00  0.00    +0.048 A 
ATOM      6  C   UNL     1      18.274  26.596  23.323  0.00  0.00    +0.116 A 
ATOM      7  N   UNL     1      18.908  27.756  22.937  0.00  0.00    -0.223 NA
ATOM      8  C   UNL     1      20.174  28.065  23.401  0.00  0.00    +0.220 A 
ATOM      9  N   UNL     1      20.835  29.223  23.020  0.00  0.00    -0.283 N 
ATOM     36  H   UNL     1      21.765  29.418  23.389  0.00  0.00    +0.155 HD
ATOM     37  N   UNL     1      20.806  27.222  24.244  0.00  0.00    -0.214 NA
BRANCH   4   3
ATOM      1  C   UNL     1      21.299  23.773  27.662  0.00  0.00    +0.020 A 
ATOM      2  C   UNL     1      20.476  24.586  26.796  0.00  0.00    +0.013 A 
ATOM      3  C   UNL     1      21.034  25.196  25.595  0.00  0.00    +0.019 A 
ATOM     38  C   UNL     1      22.439  24.960  25.297  0.00  0.00    +0.120 A 
ATOM     39  N   UNL     1      23.207  24.174  26.150  0.00  0.00    -0.263 NA
ATOM     40  C   UNL     1      22.681  23.584  27.309  0.00  0.00    +0.111 A 
ENDBRANCH   4   3
ENDBRANCH  10   9
BRANCH  12  13
ATOM     13  N   UNL     1      20.538  31.170  18.451  0.00  0.00    -0.281 N 
ATOM     14  C   UNL     1      21.140  32.238  17.807  0.00  0.00    +0.248 C 
ATOM     30  O   UNL     1      21.216  33.368  18.265  0.00  0.00    -0.270 OA
ATOM     31  H   UNL     1      20.372  30.340  17.882  0.00  0.00    +0.155 HD
BRANCH  14  15
ATOM     15  C   UNL     1      21.731  32.024  16.451  0.00  0.00    +0.037 A 
ATOM     16  C   UNL     1      22.963  32.704  16.043  0.00  0.00    +0.013 A 
ATOM     17  C   UNL     1      23.503  32.493  14.723  0.00  0.00    +0.005 A 
ATOM     18  C   UNL     1      22.811  31.595  13.801  0.00  0.00    -0.033 A 
ATOM     28  C   UNL     1      21.593  30.929  14.234  0.00  0.00    +0.005 A 
ATOM     29  C   UNL     1      21.061  31.135  15.526  0.00  0.00    +0.013 A 
BRANCH  18  19
ATOM     19  C   UNL     1      23.303  31.327  12.367  0.00  0.00    +0.119 C 
BRANCH  19  20
ATOM     20  N   UNL     1      23.175  32.441  11.380  0.00  0.00    -0.302 NA
ATOM     21  C   UNL     1      21.754  33.012  11.340  0.00  0.00    +0.066 C 
ATOM     22  C   UNL     1      21.643  34.191  10.319  0.00  0.00    -0.064 C 
ATOM     23  N   UNL     1      22.072  33.704   8.933  0.00  0.00    +0.379 N 
ATOM     24  C   UNL     1      21.913  34.795   7.960  0.00  0.00    -0.096 C 
ATOM     25  H   UNL     1      21.380  32.882   8.636  0.00  0.00    -0.082 HD
ATOM     26  C   UNL     1      23.482  33.133   8.965  0.00  0.00    -0.064 C 
ATOM     27  C   UNL     1      23.588  31.981  10.004  0.00  0.00    +0.066 C 
ENDBRANCH  19  20
ENDBRANCH  18  19
ENDBRANCH  14  15
ENDBRANCH  12  13
TORSDOF 6
ENDMDL
MODEL 2
REMARK VINA RESULT:      -8.2      1.866      2.828
REMARK  Name = C:\Users\Docking\Desktop\test protocol\1iep_ligandH.pdb
REMARK  8 active torsions:
REMARK  status: ('A' for Active; 'I' for Inactive)
REMARK    1  A    between atoms: _5  and  _11
REMARK    2  A    between atoms: _19  and  _21
REMARK    3  A    between atoms: _22  and  _66
REMARK    4  A    between atoms: _27  and  _30
REMARK    5  A    between atoms: _32  and  _33
REMARK    6  A    between atoms: _38  and  _43
REMARK    7  A    between atoms: _43  and  _46
REMARK    8  A    between atoms: _53  and  _55
REMARK                            x       y       z     vdW  Elec       q    Type
REMARK                         _______ _______ _______ _____ _____    ______ ____
ROOT
ATOM     10  C   UNL     1      20.229  30.343  22.222  0.00  0.00    +0.038 A 
ATOM     11  C   UNL     1      20.536  30.329  20.837  0.00  0.00    +0.047 A 
ATOM     12  C   UNL     1      19.941  31.292  19.924  0.00  0.00    +0.035 A 
ATOM     32  C   UNL     1      19.039  32.259  20.456  0.00  0.00    +0.024 A 
ATOM     33  C   UNL     1      18.715  32.288  21.860  0.00  0.00    +0.007 A 
ATOM     34  C   UNL     1      19.296  31.338  22.765  0.00  0.00    -0.029 A 
ATOM     35  C   UNL     1      18.907  31.412  24.260  0.00  0.00    +0.045 C 
ENDROOT
BRANCH  10   9
ATOM      4  C   UNL     1      20.184  26.191  24.628  0.00  0.00    +0.077 A 
ATOM      5  C   UNL     1      18.842  25.898  24.215  0.00  0.00    +0.048 A 
ATOM      6  C   UNL     1      18.195  26.845  23.390  0.00  0.00    +0.116 A 
ATOM      7  N   UNL     1      18.852  27.996  23.011  0.00  0.00    -0.223 NA
ATOM      8  C   UNL     1      20.146  28.248  23.428  0.00  0.00    +0.220 A 
ATOM      9  N   UNL     1      20.829  29.395  23.053  0.00  0.00    -0.283 N 
ATOM     36  H   UNL     1      21.780  29.548  23.388  0.00  0.00    +0.155 HD
ATOM     37  N   UNL     1      20.785  27.360  24.218  0.00  0.00    -0.214 NA
BRANCH   4   3
ATOM      1  C   UNL     1      21.294  23.766  27.489  0.00  0.00    +0.020 A 
ATOM      2  C   UNL     1      20.463  24.630  26.683  0.00  0.00    +0.013 A 
ATOM      3  C   UNL     1      21.000  25.286  25.498  0.00  0.00    +0.019 A 
ATOM     38  C   UNL     1      22.393  25.044  25.152  0.00  0.00    +0.120 A 
ATOM     39  N   UNL     1      23.169  24.207  25.948  0.00  0.00    -0.263 NA
ATOM     40  C   UNL     1      22.664  23.572  27.092  0.00  0.00    +0.111 A 
ENDBRANCH   4   3
ENDBRANCH  10   9
BRANCH  12  13
ATOM     13  N   UNL     1      20.209  31.320  18.507  0.00  0.00    -0.281 N 
ATOM     14  C   UNL     1      20.931  32.264  17.796  0.00  0.00    +0.248 C 
ATOM     30  O   UNL     1      21.278  33.348  18.241  0.00  0.00    -0.270 OA
ATOM     31  H   UNL     1      19.820  30.551  17.963  0.00  0.00    +0.155 HD
BRANCH  14  15
ATOM     15  C   UNL     1      21.311  31.968  16.381  0.00  0.00    +0.037 A 
ATOM     16  C   UNL     1      20.302  31.597  15.386  0.00  0.00    +0.013 A 
ATOM     17  C   UNL     1      20.696  31.299  14.032  0.00  0.00    +0.005 A 
ATOM     18  C   UNL     1      22.109  31.373  13.665  0.00  0.00    -0.033 A 
ATOM     28  C   UNL     1      23.088  31.749  14.671  0.00  0.00    +0.005 A 
ATOM     29  C   UNL     1      22.705  32.040  15.999  0.00  0.00    +0.013 A 
BRANCH  18  19
ATOM     19  C   UNL     1      22.623  31.052  12.249  0.00  0.00    +0.119 C 
BRANCH  19  20
ATOM     20  N   UNL     1      23.061  29.649  11.983  0.00  0.00    -0.302 NA
ATOM     21  C   UNL     1      23.767  29.514  10.631  0.00  0.00    +0.066 C 
ATOM     22  C   UNL     1      24.238  28.045  10.378  0.00  0.00    -0.064 C 
ATOM     23  N   UNL     1      23.034  27.106  10.456  0.00  0.00    +0.379 N 
ATOM     24  C   UNL     1      23.464  25.731  10.162  0.00  0.00    -0.096 C 
ATOM     25  H   UNL     1      22.314  27.412   9.662  0.00  0.00    -0.082 HD
ATOM     26  C   UNL     1      22.324  27.235  11.797  0.00  0.00    -0.064 C 
ATOM     27  C   UNL     1      21.886  28.704  12.051  0.00  0.00    +0.066 C 
ENDBRANCH  19  20
ENDBRANCH  18  19
ENDBRANCH  14  15
ENDBRANCH  12  13
TORSDOF 6
ENDMDL
MODEL 3
REMARK VINA RESULT:      -7.7     12.416     15.673
REMARK  Name = C:\Users\Docking\Desktop\test protocol\1iep_ligandH.pdb
REMARK  8 active torsions:
REMARK  status: ('A' for Active; 'I' for Inactive)
REMARK    1  A    between atoms: _5  and  _11
REMARK    2  A    between atoms: _19  and  _21
REMARK    3  A    between atoms: _22  and  _66
REMARK    4  A    between atoms: _27  and  _30
REMARK    5  A    between atoms: _32  and  _33
REMARK    6  A    between atoms: _38  and  _43
REMARK    7  A    between atoms: _43  and  _46
REMARK    8  A    between atoms: _53  and  _55
REMARK                            x       y       z     vdW  Elec       q    Type
REMARK                         _______ _______ _______ _____ _____    ______ ____
ROOT
ATOM     10  C   UNL     1      16.126  22.869  29.172  0.00  0.00    +0.038 A 
ATOM     11  C   UNL     1      17.506  22.583  29.006  0.00  0.00    +0.047 A 
ATOM     12  C   UNL     1      18.520  23.309  29.755  0.00  0.00    +0.035 A 
ATOM     32  C   UNL     1      18.093  24.319  30.667  0.00  0.00    +0.024 A 
ATOM     33  C   UNL     1      16.695  24.623  30.846  0.00  0.00    +0.007 A 
ATOM     34  C   UNL     1      15.691  23.912  30.108  0.00  0.00    -0.029 A 
ATOM     35  C   UNL     1      14.207  24.285  30.336  0.00  0.00    +0.045 C 
ENDROOT
BRANCH  10   9
ATOM      4  C   UNL     1      13.723  21.970  25.115  0.00  0.00    +0.077 A 
ATOM      5  C   UNL     1      14.356  23.060  24.429  0.00  0.00    +0.048 A 
ATOM      6  C   UNL     1      15.288  23.832  25.158  0.00  0.00    +0.116 A 
ATOM      7  N   UNL     1      15.560  23.527  26.474  0.00  0.00    -0.223 NA
ATOM      8  C   UNL     1      14.931  22.470  27.106  0.00  0.00    +0.220 A 
ATOM      9  N   UNL     1      15.195  22.141  28.427  0.00  0.00    -0.283 N 
ATOM     36  H   UNL     1      14.705  21.359  28.859  0.00  0.00    +0.155 HD
ATOM     37  N   UNL     1      14.036  21.719  26.433  0.00  0.00    -0.214 NA
BRANCH   4   3
ATOM      1  C   UNL     1      12.076  19.145  22.969  0.00  0.00    +0.020 A 
ATOM      2  C   UNL     1      13.086  19.996  23.556  0.00  0.00    +0.013 A 
ATOM      3  C   UNL     1      12.718  21.061  24.479  0.00  0.00    +0.019 A 
ATOM     38  C   UNL     1      11.308  21.241  24.791  0.00  0.00    +0.120 A 
ATOM     39  N   UNL     1      10.357  20.407  24.210  0.00  0.00    -0.263 NA
ATOM     40  C   UNL     1      10.700  19.380  23.319  0.00  0.00    +0.111 A 
ENDBRANCH   4   3
ENDBRANCH  10   9
BRANCH  12  13
ATOM     13  N   UNL     1      19.935  23.068  29.623  0.00  0.00    -0.281 N 
ATOM     14  C   UNL     1      20.799  23.571  28.664  0.00  0.00    +0.248 C 
ATOM     30  O   UNL     1      20.442  24.137  27.641  0.00  0.00    -0.270 OA
ATOM     31  H   UNL     1      20.351  22.452  30.322  0.00  0.00    +0.155 HD
BRANCH  14  15
ATOM     15  C   UNL     1      22.271  23.408  28.861  0.00  0.00    +0.037 A 
ATOM     16  C   UNL     1      23.233  23.998  27.927  0.00  0.00    +0.013 A 
ATOM     17  C   UNL     1      24.648  23.811  28.131  0.00  0.00    +0.005 A 
ATOM     18  C   UNL     1      25.109  23.031  29.277  0.00  0.00    -0.033 A 
ATOM     28  C   UNL     1      24.133  22.462  30.191  0.00  0.00    +0.005 A 
ATOM     29  C   UNL     1      22.746  22.642  29.994  0.00  0.00    +0.013 A 
BRANCH  18  19
ATOM     19  C   UNL     1      26.599  22.763  29.561  0.00  0.00    +0.119 C 
BRANCH  19  20
ATOM     20  N   UNL     1      27.095  21.371  29.349  0.00  0.00    -0.302 NA
ATOM     21  C   UNL     1      26.225  20.335  30.067  0.00  0.00    +0.066 C 
ATOM     22  C   UNL     1      26.746  18.882  29.816  0.00  0.00    -0.064 C 
ATOM     23  N   UNL     1      28.201  18.779  30.276  0.00  0.00    +0.379 N 
ATOM     24  C   UNL     1      28.676  17.399  30.095  0.00  0.00    -0.096 C 
ATOM     25  H   UNL     1      28.227  19.006  31.367  0.00  0.00    -0.082 HD
ATOM     26  C   UNL     1      29.073  19.807  29.570  0.00  0.00    -0.064 C 
ATOM     27  C   UNL     1      28.530  21.245  29.801  0.00  0.00    +0.066 C 
ENDBRANCH  19  20
ENDBRANCH  18  19
ENDBRANCH  14  15
ENDBRANCH  12  13
TORSDOF 6
ENDMDL
MODEL 4
REMARK VINA RESULT:      -7.7      3.698      4.427
REMARK  Name = C:\Users\Docking\Desktop\test protocol\1iep_ligandH.pdb
REMARK  8 active torsions:
REMARK  status: ('A' for Active; 'I' for Inactive)
REMARK    1  A    between atoms: _5  and  _11
REMARK    2  A    between atoms: _19  and  _21
REMARK    3  A    between atoms: _22  and  _66
REMARK    4  A    between atoms: _27  and  _30
REMARK    5  A    between atoms: _32  and  _33
REMARK    6  A    between atoms: _38  and  _43
REMARK    7  A    between atoms: _43  and  _46
REMARK    8  A    between atoms: _53  and  _55
REMARK                            x       y       z     vdW  Elec       q    Type
REMARK                         _______ _______ _______ _____ _____    ______ ____
ROOT
ATOM     10  C   UNL     1      19.893  29.540  22.218  0.00  0.00    +0.038 A 
ATOM     11  C   UNL     1      19.998  29.179  20.850  0.00  0.00    +0.047 A 
ATOM     12  C   UNL     1      19.284  29.916  19.820  0.00  0.00    +0.035 A 
ATOM     32  C   UNL     1      18.472  31.019  20.218  0.00  0.00    +0.024 A 
ATOM     33  C   UNL     1      18.352  31.399  21.604  0.00  0.00    +0.007 A 
ATOM     34  C   UNL     1      19.053  30.674  22.625  0.00  0.00    -0.029 A 
ATOM     35  C   UNL     1      18.883  31.122  24.095  0.00  0.00    +0.045 C 
ENDROOT
BRANCH  10   9
ATOM      4  C   UNL     1      20.358  25.775  25.157  0.00  0.00    +0.077 A 
ATOM      5  C   UNL     1      19.071  25.257  24.794  0.00  0.00    +0.048 A 
ATOM      6  C   UNL     1      18.317  25.994  23.854  0.00  0.00    +0.116 A 
ATOM      7  N   UNL     1      18.823  27.160  23.321  0.00  0.00    -0.223 NA
ATOM      8  C   UNL     1      20.068  27.632  23.694  0.00  0.00    +0.220 A 
ATOM      9  N   UNL     1      20.601  28.798  23.165  0.00  0.00    -0.283 N 
ATOM     36  H   UNL     1      21.520  29.116  23.472  0.00  0.00    +0.155 HD
ATOM     37  N   UNL     1      20.807  26.947  24.592  0.00  0.00    -0.214 NA
BRANCH   4   3
ATOM      1  C   UNL     1      23.566  24.564  27.041  0.00  0.00    +0.020 A 
ATOM      2  C   UNL     1      22.726  25.227  26.070  0.00  0.00    +0.013 A 
ATOM      3  C   UNL     1      21.275  25.108  26.136  0.00  0.00    +0.019 A 
ATOM     38  C   UNL     1      20.701  24.305  27.205  0.00  0.00    +0.120 A 
ATOM     39  N   UNL     1      21.535  23.676  28.124  0.00  0.00    -0.263 NA
ATOM     40  C   UNL     1      22.933  23.782  28.070  0.00  0.00    +0.111 A 
ENDBRANCH   4   3
ENDBRANCH  10   9
BRANCH  12  13
ATOM     13  N   UNL     1      19.346  29.591  18.417  0.00  0.00    -0.281 N 
ATOM     14  C   UNL     1      18.472  28.804  17.685  0.00  0.00    +0.248 C 
ATOM     30  O   UNL     1      17.616  28.082  18.176  0.00  0.00    -0.270 OA
ATOM     31  H   UNL     1      20.130  29.989  17.900  0.00  0.00    +0.155 HD
BRANCH  14  15
ATOM     15  C   UNL     1      18.571  28.809  16.194  0.00  0.00    +0.037 A 
ATOM     16  C   UNL     1      17.376  28.700  15.352  0.00  0.00    +0.013 A 
ATOM     17  C   UNL     1      17.502  28.690  13.917  0.00  0.00    +0.005 A 
ATOM     18  C   UNL     1      18.828  28.790  13.313  0.00  0.00    -0.033 A 
ATOM     28  C   UNL     1      19.996  28.901  14.171  0.00  0.00    +0.005 A 
ATOM     29  C   UNL     1      19.877  28.911  15.579  0.00  0.00    +0.013 A 
BRANCH  18  19
ATOM     19  C   UNL     1      19.058  28.765  11.790  0.00  0.00    +0.119 C 
BRANCH  19  20
ATOM     20  N   UNL     1      19.286  27.433  11.154  0.00  0.00    -0.302 NA
ATOM     21  C   UNL     1      20.766  27.041  11.156  0.00  0.00    +0.066 C 
ATOM     22  C   UNL     1      20.983  25.635  10.507  0.00  0.00    -0.064 C 
ATOM     23  N   UNL     1      20.427  25.643   9.083  0.00  0.00    +0.379 N 
ATOM     24  C   UNL     1      20.681  24.340   8.450  0.00  0.00    -0.096 C 
ATOM     25  H   UNL     1      20.986  26.415   8.505  0.00  0.00    -0.082 HD
ATOM     26  C   UNL     1      18.956  26.034   9.071  0.00  0.00    -0.064 C 
ATOM     27  C   UNL     1      18.748  27.420   9.745  0.00  0.00    +0.066 C 
ENDBRANCH  19  20
ENDBRANCH  18  19
ENDBRANCH  14  15
ENDBRANCH  12  13
TORSDOF 6
ENDMDL
MODEL 5
REMARK VINA RESULT:      -7.6      9.598     12.696
REMARK  Name = C:\Users\Docking\Desktop\test protocol\1iep_ligandH.pdb
REMARK  8 active torsions:
REMARK  status: ('A' for Active; 'I' for Inactive)
REMARK    1  A    between atoms: _5  and  _11
REMARK    2  A    between atoms: _19  and  _21
REMARK    3  A    between atoms: _22  and  _66
REMARK    4  A    between atoms: _27  and  _30
REMARK    5  A    between atoms: _32  and  _33
REMARK    6  A    between atoms: _38  and  _43
REMARK    7  A    between atoms: _43  and  _46
REMARK    8  A    between atoms: _53  and  _55
REMARK                            x       y       z     vdW  Elec       q    Type
REMARK                         _______ _______ _______ _____ _____    ______ ____
ROOT
ATOM     10  C   UNL     1      21.562  34.508  10.906  0.00  0.00    +0.038 A 
ATOM     11  C   UNL     1      22.116  35.131   9.759  0.00  0.00    +0.047 A 
ATOM     12  C   UNL     1      22.064  36.574   9.587  0.00  0.00    +0.035 A 
ATOM     32  C   UNL     1      21.442  37.354  10.605  0.00  0.00    +0.024 A 
ATOM     33  C   UNL     1      20.873  36.738  11.778  0.00  0.00    +0.007 A 
ATOM     34  C   UNL     1      20.919  35.314  11.952  0.00  0.00    -0.029 A 
ATOM     35  C   UNL     1      20.287  34.707  13.226  0.00  0.00    +0.045 C 
ENDROOT
BRANCH  10   9
ATOM      4  C   UNL     1      24.057  30.426  11.288  0.00  0.00    +0.077 A 
ATOM      5  C   UNL     1      25.312  31.118  11.229  0.00  0.00    +0.048 A 
ATOM      6  C   UNL     1      25.272  32.524  11.093  0.00  0.00    +0.116 A 
ATOM      7  N   UNL     1      24.061  33.178  11.022  0.00  0.00    -0.223 NA
ATOM      8  C   UNL     1      22.869  32.480  11.081  0.00  0.00    +0.220 A 
ATOM      9  N   UNL     1      21.640  33.118  11.020  0.00  0.00    -0.283 N 
ATOM     36  H   UNL     1      20.783  32.567  11.059  0.00  0.00    +0.155 HD
ATOM     37  N   UNL     1      22.880  31.137  11.209  0.00  0.00    -0.214 NA
BRANCH   4   3
ATOM      1  C   UNL     1      24.912  26.638  11.756  0.00  0.00    +0.020 A 
ATOM      2  C   UNL     1      25.085  28.066  11.619  0.00  0.00    +0.013 A 
ATOM      3  C   UNL     1      23.935  28.941  11.434  0.00  0.00    +0.019 A 
ATOM     38  C   UNL     1      22.612  28.335  11.392  0.00  0.00    +0.120 A 
ATOM     39  N   UNL     1      22.477  26.957  11.525  0.00  0.00    -0.263 NA
ATOM     40  C   UNL     1      23.577  26.104  11.701  0.00  0.00    +0.111 A 
ENDBRANCH   4   3
ENDBRANCH  10   9
BRANCH  12  13
ATOM     13  N   UNL     1      22.602  37.262   8.439  0.00  0.00    -0.281 N 
ATOM     14  C   UNL     1      23.848  37.852   8.307  0.00  0.00    +0.248 C 
ATOM     30  O   UNL     1      24.613  38.066   9.236  0.00  0.00    -0.270 OA
ATOM     31  H   UNL     1      21.990  37.320   7.625  0.00  0.00    +0.155 HD
BRANCH  14  15
ATOM     15  C   UNL     1      24.305  38.280   6.950  0.00  0.00    +0.037 A 
ATOM     16  C   UNL     1      23.419  38.189   5.787  0.00  0.00    +0.013 A 
ATOM     17  C   UNL     1      23.890  38.592   4.485  0.00  0.00    +0.005 A 
ATOM     18  C   UNL     1      25.255  39.093   4.342  0.00  0.00    -0.033 A 
ATOM     28  C   UNL     1      26.110  39.179   5.513  0.00  0.00    +0.005 A 
ATOM     29  C   UNL     1      25.653  38.783   6.790  0.00  0.00    +0.013 A 
BRANCH  18  19
ATOM     19  C   UNL     1      25.848  39.526   2.988  0.00  0.00    +0.119 C 
BRANCH  19  20
ATOM     20  N   UNL     1      26.245  38.445   2.038  0.00  0.00    -0.302 NA
ATOM     21  C   UNL     1      25.039  37.860   1.297  0.00  0.00    +0.066 C 
ATOM     22  C   UNL     1      25.474  36.745   0.291  0.00  0.00    -0.064 C 
ATOM     23  N   UNL     1      26.231  35.650   1.044  0.00  0.00    +0.379 N 
ATOM     24  C   UNL     1      26.591  34.572   0.111  0.00  0.00    -0.096 C 
ATOM     25  H   UNL     1      25.537  35.221   1.804  0.00  0.00    -0.082 HD
ATOM     26  C   UNL     1      27.430  36.223   1.785  0.00  0.00    -0.064 C 
ATOM     27  C   UNL     1      26.990  37.350   2.761  0.00  0.00    +0.066 C 
ENDBRANCH  19  20
ENDBRANCH  18  19
ENDBRANCH  14  15
ENDBRANCH  12  13
TORSDOF 6
ENDMDL
