MODEL 1
REMARK VINA RESULT:      -8.7      0.000      0.000
REMARK  Name = C:\Users\Docking\Desktop\test protocol\1iep_ligandH.pdb
REMARK  8 active torsions:
REMARK  status: ('A' for Active; 'I' for Inactive)
REMARK    1  A    between atoms: _5  and  _11
REMARK    2  A    between atoms: _19  and  _21
REMARK    3  A    between atoms: _22  and  _66
REMARK    4  A    between atoms: _27  and  _30
REMARK    5  A    between atoms: _32  and  _33
REMARK    6  A    between atoms: _38  and  _43
REMARK    7  A    between atoms: _43  and  _46
REMARK    8  A    between atoms: _53  and  _55
REMARK                            x       y       z     vdW  Elec       q    Type
REMARK                         _______ _______ _______ _____ _____    ______ ____
ROOT
ATOM     10  C   UNL     1      21.208  33.172  15.755  0.00  0.00    +0.038 A 
ATOM     11  C   UNL     1      22.026  33.818  16.716  0.00  0.00    +0.047 A 
ATOM     12  C   UNL     1      21.677  35.129  17.242  0.00  0.00    +0.035 A 
ATOM     32  C   UNL     1      20.485  35.751  16.768  0.00  0.00    +0.024 A 
ATOM     33  C   UNL     1      19.643  35.109  15.790  0.00  0.00    +0.007 A 
ATOM     34  C   UNL     1      19.984  33.818  15.266  0.00  0.00    -0.029 A 
ATOM     35  C   UNL     1      19.047  33.179  14.214  0.00  0.00    +0.045 C 
ENDROOT
BRANCH  10   9
ATOM      4  C   UNL     1      23.140  30.307  12.423  0.00  0.00    +0.077 A 
ATOM      5  C   UNL     1      23.383  31.407  11.534  0.00  0.00    +0.048 A 
ATOM      6  C   UNL     1      22.989  32.692  11.969  0.00  0.00    +0.116 A 
ATOM      7  N   UNL     1      22.398  32.854  13.203  0.00  0.00    -0.223 NA
ATOM      8  C   UNL     1      22.177  31.773  14.035  0.00  0.00    +0.220 A 
ATOM      9  N   UNL     1      21.591  31.914  15.284  0.00  0.00    -0.283 N 
ATOM     36  H   UNL     1      21.438  31.090  15.865  0.00  0.00    +0.155 HD
ATOM     37  N   UNL     1      22.542  30.535  13.642  0.00  0.00    -0.214 NA
BRANCH   4   3
ATOM      1  C   UNL     1      25.135  27.106  11.388  0.00  0.00    +0.020 A 
ATOM      2  C   UNL     1      24.837  28.489  11.680  0.00  0.00    +0.013 A 
ATOM      3  C   UNL     1      23.503  28.889  12.107  0.00  0.00    +0.019 A 
ATOM     38  C   UNL     1      22.485  27.857  12.232  0.00  0.00    +0.120 A 
ATOM     39  N   UNL     1      22.801  26.533  11.942  0.00  0.00    -0.263 NA
ATOM     40  C   UNL     1      24.081  26.137  11.528  0.00  0.00    +0.111 A 
ENDBRANCH   4   3
ENDBRANCH  10   9
BRANCH  12  13
ATOM     13  N   UNL     1      22.472  35.837  18.214  0.00  0.00    -0.281 N 
ATOM     14  C   UNL     1      22.191  36.047  19.554  0.00  0.00    +0.248 C 
ATOM     30  O   UNL     1      21.105  35.840  20.073  0.00  0.00    -0.270 OA
ATOM     31  H   UNL     1      23.349  36.231  17.873  0.00  0.00    +0.155 HD
BRANCH  14  15
ATOM     15  C   UNL     1      23.269  36.578  20.443  0.00  0.00    +0.037 A 
ATOM     16  C   UNL     1      23.814  35.775  21.540  0.00  0.00    +0.013 A 
ATOM     17  C   UNL     1      24.842  36.318  22.393  0.00  0.00    +0.005 A 
ATOM     18  C   UNL     1      25.332  37.672  22.151  0.00  0.00    -0.033 A 
ATOM     28  C   UNL     1      24.778  38.445  21.052  0.00  0.00    +0.005 A 
ATOM     29  C   UNL     1      23.770  37.917  20.214  0.00  0.00    +0.013 A 
BRANCH  18  19
ATOM     19  C   UNL     1      26.411  38.340  23.024  0.00  0.00    +0.119 C 
BRANCH  19  20
ATOM     20  N   UNL     1      27.803  38.376  22.483  0.00  0.00    -0.302 NA
ATOM     21  C   UNL     1      28.567  37.083  22.777  0.00  0.00    +0.066 C 
ATOM     22  C   UNL     1      30.013  37.129  22.185  0.00  0.00    -0.064 C 
ATOM     23  N   UNL     1      30.756  38.339  22.753  0.00  0.00    +0.379 N 
ATOM     24  C   UNL     1      32.135  38.353  22.243  0.00  0.00    -0.096 C 
ATOM     25  H   UNL     1      30.806  38.215  23.860  0.00  0.00    -0.082 HD
ATOM     26  C   UNL     1      30.001  39.629  22.467  0.00  0.00    -0.064 C 
ATOM     27  C   UNL     1      28.556  39.561  23.035  0.00  0.00    +0.066 C 
ENDBRANCH  19  20
ENDBRANCH  18  19
ENDBRANCH  14  15
ENDBRANCH  12  13
TORSDOF 6
ENDMDL
MODEL 2
REMARK VINA RESULT:      -8.1      7.369     12.052
REMARK  Name = C:\Users\Docking\Desktop\test protocol\1iep_ligandH.pdb
REMARK  8 active torsions:
REMARK  status: ('A' for Active; 'I' for Inactive)
REMARK    1  A    between atoms: _5  and  _11
REMARK    2  A    between atoms: _19  and  _21
REMARK    3  A    between atoms: _22  and  _66
REMARK    4  A    between atoms: _27  and  _30
REMARK    5  A    between atoms: _32  and  _33
REMARK    6  A    between atoms: _38  and  _43
REMARK    7  A    between atoms: _43  and  _46
REMARK    8  A    between atoms: _53  and  _55
REMARK                            x       y       z     vdW  Elec       q    Type
REMARK                         _______ _______ _______ _____ _____    ______ ____
ROOT
ATOM     10  C   UNL     1      20.041  30.256  22.358  0.00  0.00    +0.038 A 
ATOM     11  C   UNL     1      20.389  30.313  20.984  0.00  0.00    +0.047 A 
ATOM     12  C   UNL     1      19.743  31.255  20.083  0.00  0.00    +0.035 A 
ATOM     32  C   UNL     1      18.748  32.126  20.616  0.00  0.00    +0.024 A 
ATOM     33  C   UNL     1      18.381  32.080  22.009  0.00  0.00    +0.007 A 
ATOM     34  C   UNL     1      19.014  31.151  22.902  0.00  0.00    -0.029 A 
ATOM     35  C   UNL     1      18.576  31.142  24.386  0.00  0.00    +0.045 C 
ENDROOT
BRANCH  10   9
ATOM      4  C   UNL     1      20.242  26.064  24.687  0.00  0.00    +0.077 A 
ATOM      5  C   UNL     1      18.925  25.694  24.256  0.00  0.00    +0.048 A 
ATOM      6  C   UNL     1      18.226  26.613  23.442  0.00  0.00    +0.116 A 
ATOM      7  N   UNL     1      18.811  27.811  23.091  0.00  0.00    -0.223 NA
ATOM      8  C   UNL     1      20.083  28.137  23.525  0.00  0.00    +0.220 A 
ATOM      9  N   UNL     1      20.694  29.332  23.178  0.00  0.00    -0.283 N 
ATOM     36  H   UNL     1      21.630  29.539  23.525  0.00  0.00    +0.155 HD
ATOM     37  N   UNL     1      20.770  27.277  24.305  0.00  0.00    -0.214 NA
BRANCH   4   3
ATOM      1  C   UNL     1      23.334  24.211  26.206  0.00  0.00    +0.020 A 
ATOM      2  C   UNL     1      22.544  25.060  25.345  0.00  0.00    +0.013 A 
ATOM      3  C   UNL     1      21.107  25.197  25.549  0.00  0.00    +0.019 A 
ATOM     38  C   UNL     1      20.496  24.456  26.641  0.00  0.00    +0.120 A 
ATOM     39  N   UNL     1      21.282  23.644  27.453  0.00  0.00    -0.263 NA
ATOM     40  C   UNL     1      22.665  23.503  27.266  0.00  0.00    +0.111 A 
ENDBRANCH   4   3
ENDBRANCH  10   9
BRANCH  12  13
ATOM     13  N   UNL     1      20.049  31.354  18.678  0.00  0.00    -0.281 N 
ATOM     14  C   UNL     1      20.805  32.322  18.036  0.00  0.00    +0.248 C 
ATOM     30  O   UNL     1      21.157  33.374  18.547  0.00  0.00    -0.270 OA
ATOM     31  H   UNL     1      19.662  30.621  18.083  0.00  0.00    +0.155 HD
BRANCH  14  15
ATOM     15  C   UNL     1      21.217  32.094  16.618  0.00  0.00    +0.037 A 
ATOM     16  C   UNL     1      20.233  31.762  15.585  0.00  0.00    +0.013 A 
ATOM     17  C   UNL     1      20.659  31.530  14.227  0.00  0.00    +0.005 A 
ATOM     18  C   UNL     1      22.078  31.632  13.895  0.00  0.00    -0.033 A 
ATOM     28  C   UNL     1      23.033  31.968  14.939  0.00  0.00    +0.005 A 
ATOM     29  C   UNL     1      22.618  32.194  16.271  0.00  0.00    +0.013 A 
BRANCH  18  19
ATOM     19  C   UNL     1      22.626  31.380  12.478  0.00  0.00    +0.119 C 
BRANCH  19  20
ATOM     20  N   UNL     1      23.086  29.996  12.158  0.00  0.00    -0.302 NA
ATOM     21  C   UNL     1      24.041  29.970  10.961  0.00  0.00    +0.066 C 
ATOM     22  C   UNL     1      24.531  28.518  10.655  0.00  0.00    -0.064 C 
ATOM     23  N   UNL     1      23.320  27.617  10.402  0.00  0.00    +0.379 N 
ATOM     24  C   UNL     1      23.780  26.264  10.057  0.00  0.00    -0.096 C 
ATOM     25  H   UNL     1      22.774  28.024   9.520  0.00  0.00    -0.082 HD
ATOM     26  C   UNL     1      22.365  27.639  11.587  0.00  0.00    -0.064 C 
ATOM     27  C   UNL     1      21.907  29.090  11.901  0.00  0.00    +0.066 C 
ENDBRANCH  19  20
ENDBRANCH  18  19
ENDBRANCH  14  15
ENDBRANCH  12  13
TORSDOF 6
ENDMDL
MODEL 3
REMARK VINA RESULT:      -7.7     16.005     18.825
REMARK  Name = C:\Users\Docking\Desktop\test protocol\1iep_ligandH.pdb
REMARK  8 active torsions:
REMARK  status: ('A' for Active; 'I' for Inactive)
REMARK    1  A    between atoms: _5  and  _11
REMARK    2  A    between atoms: _19  and  _21
REMARK    3  A    between atoms: _22  and  _66
REMARK    4  A    between atoms: _27  and  _30
REMARK    5  A    between atoms: _32  and  _33
REMARK    6  A    between atoms: _38  and  _43
REMARK    7  A    between atoms: _43  and  _46
REMARK    8  A    between atoms: _53  and  _55
REMARK                            x       y       z     vdW  Elec       q    Type
REMARK                         _______ _______ _______ _____ _____    ______ ____
ROOT
ATOM     10  C   UNL     1      20.788  21.517  30.577  0.00  0.00    +0.038 A 
ATOM     11  C   UNL     1      20.371  22.431  29.576  0.00  0.00    +0.047 A 
ATOM     12  C   UNL     1      21.339  23.181  28.790  0.00  0.00    +0.035 A 
ATOM     32  C   UNL     1      22.725  22.972  29.049  0.00  0.00    +0.024 A 
ATOM     33  C   UNL     1      23.167  22.048  30.063  0.00  0.00    +0.007 A 
ATOM     34  C   UNL     1      22.217  21.307  30.843  0.00  0.00    -0.029 A 
ATOM     35  C   UNL     1      22.747  20.334  31.921  0.00  0.00    +0.045 C 
ENDROOT
BRANCH  10   9
ATOM      4  C   UNL     1      17.356  21.301  33.925  0.00  0.00    +0.077 A 
ATOM      5  C   UNL     1      17.533  22.680  34.280  0.00  0.00    +0.048 A 
ATOM      6  C   UNL     1      18.523  23.408  33.582  0.00  0.00    +0.116 A 
ATOM      7  N   UNL     1      19.274  22.792  32.603  0.00  0.00    -0.223 NA
ATOM      8  C   UNL     1      19.078  21.460  32.287  0.00  0.00    +0.220 A 
ATOM      9  N   UNL     1      19.816  20.823  31.301  0.00  0.00    -0.283 N 
ATOM     36  H   UNL     1      19.647  19.838  31.102  0.00  0.00    +0.155 HD
ATOM     37  N   UNL     1      18.140  20.744  32.940  0.00  0.00    -0.214 NA
BRANCH   4   3
ATOM      1  C   UNL     1      15.061  18.238  34.730  0.00  0.00    +0.020 A 
ATOM      2  C   UNL     1      16.043  19.067  34.070  0.00  0.00    +0.013 A 
ATOM      3  C   UNL     1      16.348  20.402  34.570  0.00  0.00    +0.019 A 
ATOM     38  C   UNL     1      15.636  20.871  35.749  0.00  0.00    +0.120 A 
ATOM     39  N   UNL     1      14.695  20.051  36.363  0.00  0.00    -0.263 NA
ATOM     40  C   UNL     1      14.392  18.766  35.890  0.00  0.00    +0.111 A 
ENDBRANCH   4   3
ENDBRANCH  10   9
BRANCH  12  13
ATOM     13  N   UNL     1      20.974  24.128  27.767  0.00  0.00    -0.281 N 
ATOM     14  C   UNL     1      21.229  24.054  26.407  0.00  0.00    +0.248 C 
ATOM     30  O   UNL     1      22.002  23.259  25.892  0.00  0.00    -0.270 OA
ATOM     31  H   UNL     1      20.466  24.955  28.083  0.00  0.00    +0.155 HD
BRANCH  14  15
ATOM     15  C   UNL     1      20.538  25.010  25.489  0.00  0.00    +0.037 A 
ATOM     16  C   UNL     1      19.121  24.850  25.153  0.00  0.00    +0.013 A 
ATOM     17  C   UNL     1      18.483  25.776  24.251  0.00  0.00    +0.005 A 
ATOM     18  C   UNL     1      19.262  26.872  23.681  0.00  0.00    -0.033 A 
ATOM     28  C   UNL     1      20.665  27.011  24.036  0.00  0.00    +0.005 A 
ATOM     29  C   UNL     1      21.294  26.104  24.919  0.00  0.00    +0.013 A 
BRANCH  18  19
ATOM     19  C   UNL     1      18.669  27.895  22.694  0.00  0.00    +0.119 C 
BRANCH  19  20
ATOM     20  N   UNL     1      19.349  29.221  22.592  0.00  0.00    -0.302 NA
ATOM     21  C   UNL     1      18.819  30.220  23.624  0.00  0.00    +0.066 C 
ATOM     22  C   UNL     1      19.558  31.594  23.517  0.00  0.00    -0.064 C 
ATOM     23  N   UNL     1      19.401  32.145  22.099  0.00  0.00    +0.379 N 
ATOM     24  C   UNL     1      20.045  33.464  22.012  0.00  0.00    -0.096 C 
ATOM     25  H   UNL     1      18.311  32.287  21.910  0.00  0.00    -0.082 HD
ATOM     26  C   UNL     1      19.923  31.157  21.066  0.00  0.00    -0.064 C 
ATOM     27  C   UNL     1      19.203  29.786  21.200  0.00  0.00    +0.066 C 
ENDBRANCH  19  20
ENDBRANCH  18  19
ENDBRANCH  14  15
ENDBRANCH  12  13
TORSDOF 6
ENDMDL
MODEL 4
REMARK VINA RESULT:      -7.7     12.493     14.287
REMARK  Name = C:\Users\Docking\Desktop\test protocol\1iep_ligandH.pdb
REMARK  8 active torsions:
REMARK  status: ('A' for Active; 'I' for Inactive)
REMARK    1  A    between atoms: _5  and  _11
REMARK    2  A    between atoms: _19  and  _21
REMARK    3  A    between atoms: _22  and  _66
REMARK    4  A    between atoms: _27  and  _30
REMARK    5  A    between atoms: _32  and  _33
REMARK    6  A    between atoms: _38  and  _43
REMARK    7  A    between atoms: _43  and  _46
REMARK    8  A    between atoms: _53  and  _55
REMARK                            x       y       z     vdW  Elec       q    Type
REMARK                         _______ _______ _______ _____ _____    ______ ____
ROOT
ATOM     10  C   UNL     1      31.802  38.565   5.410  0.00  0.00    +0.038 A 
ATOM     11  C   UNL     1      32.405  38.846   6.662  0.00  0.00    +0.047 A 
ATOM     12  C   UNL     1      32.076  40.054   7.402  0.00  0.00    +0.035 A 
ATOM     32  C   UNL     1      31.125  40.953   6.839  0.00  0.00    +0.024 A 
ATOM     33  C   UNL     1      30.502  40.684   5.566  0.00  0.00    +0.007 A 
ATOM     34  C   UNL     1      30.825  39.496   4.830  0.00  0.00    -0.029 A 
ATOM     35  C   UNL     1      30.132  39.262   3.468  0.00  0.00    +0.045 C 
ENDROOT
BRANCH  10   9
ATOM      4  C   UNL     1      34.679  36.048   2.507  0.00  0.00    +0.077 A 
ATOM      5  C   UNL     1      35.536  37.176   2.281  0.00  0.00    +0.048 A 
ATOM      6  C   UNL     1      35.197  38.388   2.924  0.00  0.00    +0.116 A 
ATOM      7  N   UNL     1      34.082  38.455   3.732  0.00  0.00    -0.223 NA
ATOM      8  C   UNL     1      33.276  37.348   3.928  0.00  0.00    +0.220 A 
ATOM      9  N   UNL     1      32.155  37.391   4.742  0.00  0.00    -0.283 N 
ATOM     36  H   UNL     1      31.582  36.555   4.854  0.00  0.00    +0.155 HD
ATOM     37  N   UNL     1      33.577  36.180   3.323  0.00  0.00    -0.214 NA
BRANCH   4   3
ATOM      1  C   UNL     1      34.819  32.178   1.957  0.00  0.00    +0.020 A 
ATOM      2  C   UNL     1      34.580  33.456   2.588  0.00  0.00    +0.013 A 
ATOM      3  C   UNL     1      34.906  34.699   1.900  0.00  0.00    +0.019 A 
ATOM     38  C   UNL     1      35.476  34.614   0.564  0.00  0.00    +0.120 A 
ATOM     39  N   UNL     1      35.696  33.369  -0.018  0.00  0.00    -0.263 NA
ATOM     40  C   UNL     1      35.388  32.166   0.635  0.00  0.00    +0.111 A 
ENDBRANCH   4   3
ENDBRANCH  10   9
BRANCH  12  13
ATOM     13  N   UNL     1      32.662  40.396   8.674  0.00  0.00    -0.281 N 
ATOM     14  C   UNL     1      32.084  40.308   9.930  0.00  0.00    +0.248 C 
ATOM     30  O   UNL     1      30.893  40.123  10.131  0.00  0.00    -0.270 OA
ATOM     31  H   UNL     1      33.621  40.744   8.646  0.00  0.00    +0.155 HD
BRANCH  14  15
ATOM     15  C   UNL     1      32.952  40.464  11.137  0.00  0.00    +0.037 A 
ATOM     16  C   UNL     1      34.160  41.290  11.103  0.00  0.00    +0.013 A 
ATOM     17  C   UNL     1      34.989  41.409  12.277  0.00  0.00    +0.005 A 
ATOM     18  C   UNL     1      34.609  40.700  13.496  0.00  0.00    -0.033 A 
ATOM     28  C   UNL     1      33.402  39.891  13.504  0.00  0.00    +0.005 A 
ATOM     29  C   UNL     1      32.588  39.771  12.355  0.00  0.00    +0.013 A 
BRANCH  18  19
ATOM     19  C   UNL     1      35.445  40.752  14.789  0.00  0.00    +0.119 C 
BRANCH  19  20
ATOM     20  N   UNL     1      34.871  40.096  16.001  0.00  0.00    -0.302 NA
ATOM     21  C   UNL     1      34.767  41.064  17.183  0.00  0.00    +0.066 C 
ATOM     22  C   UNL     1      34.144  40.367  18.436  0.00  0.00    -0.064 C 
ATOM     23  N   UNL     1      34.986  39.146  18.809  0.00  0.00    +0.379 N 
ATOM     24  C   UNL     1      34.436  38.522  20.021  0.00  0.00    -0.096 C 
ATOM     25  H   UNL     1      36.014  39.504  19.049  0.00  0.00    -0.082 HD
ATOM     26  C   UNL     1      35.097  38.179  17.638  0.00  0.00    -0.064 C 
ATOM     27  C   UNL     1      35.690  38.890  16.389  0.00  0.00    +0.066 C 
ENDBRANCH  19  20
ENDBRANCH  18  19
ENDBRANCH  14  15
ENDBRANCH  12  13
TORSDOF 6
ENDMDL
MODEL 5
REMARK VINA RESULT:      -7.7      8.391     15.359
REMARK  Name = C:\Users\Docking\Desktop\test protocol\1iep_ligandH.pdb
REMARK  8 active torsions:
REMARK  status: ('A' for Active; 'I' for Inactive)
REMARK    1  A    between atoms: _5  and  _11
REMARK    2  A    between atoms: _19  and  _21
REMARK    3  A    between atoms: _22  and  _66
REMARK    4  A    between atoms: _27  and  _30
REMARK    5  A    between atoms: _32  and  _33
REMARK    6  A    between atoms: _38  and  _43
REMARK    7  A    between atoms: _43  and  _46
REMARK    8  A    between atoms: _53  and  _55
REMARK                            x       y       z     vdW  Elec       q    Type
REMARK                         _______ _______ _______ _____ _____    ______ ____
ROOT
ATOM     10  C   UNL     1      34.125  40.137  12.978  0.00  0.00    +0.038 A 
ATOM     11  C   UNL     1      32.785  39.805  12.653  0.00  0.00    +0.047 A 
ATOM     12  C   UNL     1      32.137  40.361  11.475  0.00  0.00    +0.035 A 
ATOM     32  C   UNL     1      32.885  41.249  10.649  0.00  0.00    +0.024 A 
ATOM     33  C   UNL     1      34.247  41.598  10.965  0.00  0.00    +0.007 A 
ATOM     34  C   UNL     1      34.891  41.056  12.127  0.00  0.00    -0.029 A 
ATOM     35  C   UNL     1      36.352  41.470  12.421  0.00  0.00    +0.045 C 
ENDROOT
BRANCH  10   9
ATOM      4  C   UNL     1      34.742  39.918  17.733  0.00  0.00    +0.077 A 
ATOM      5  C   UNL     1      33.870  41.035  17.957  0.00  0.00    +0.048 A 
ATOM      6  C   UNL     1      33.289  41.642  16.822  0.00  0.00    +0.116 A 
ATOM      7  N   UNL     1      33.566  41.160  15.561  0.00  0.00    -0.223 NA
ATOM      8  C   UNL     1      34.412  40.082  15.380  0.00  0.00    +0.220 A 
ATOM      9  N   UNL     1      34.698  39.575  14.121  0.00  0.00    -0.283 N 
ATOM     36  H   UNL     1      35.334  38.783  14.029  0.00  0.00    +0.155 HD
ATOM     37  N   UNL     1      34.981  39.485  16.448  0.00  0.00    -0.214 NA
BRANCH   4   3
ATOM      1  C   UNL     1      35.451  37.516  20.738  0.00  0.00    +0.020 A 
ATOM      2  C   UNL     1      34.741  38.214  19.692  0.00  0.00    +0.013 A 
ATOM      3  C   UNL     1      35.430  39.168  18.832  0.00  0.00    +0.019 A 
ATOM     38  C   UNL     1      36.849  39.394  19.059  0.00  0.00    +0.120 A 
ATOM     39  N   UNL     1      37.507  38.708  20.075  0.00  0.00    -0.263 NA
ATOM     40  C   UNL     1      36.854  37.789  20.910  0.00  0.00    +0.111 A 
ENDBRANCH   4   3
ENDBRANCH  10   9
BRANCH  12  13
ATOM     13  N   UNL     1      30.777  40.066  11.099  0.00  0.00    -0.281 N 
ATOM     14  C   UNL     1      29.612  40.485  11.721  0.00  0.00    +0.248 C 
ATOM     30  O   UNL     1      29.566  41.003  12.827  0.00  0.00    -0.270 OA
ATOM     31  H   UNL     1      30.658  39.478  10.274  0.00  0.00    +0.155 HD
BRANCH  14  15
ATOM     15  C   UNL     1      28.307  40.285  11.020  0.00  0.00    +0.037 A 
ATOM     16  C   UNL     1      28.177  40.512   9.578  0.00  0.00    +0.013 A 
ATOM     17  C   UNL     1      26.903  40.329   8.929  0.00  0.00    +0.005 A 
ATOM     18  C   UNL     1      25.748  39.915   9.722  0.00  0.00    -0.033 A 
ATOM     28  C   UNL     1      25.907  39.691  11.150  0.00  0.00    +0.005 A 
ATOM     29  C   UNL     1      27.154  39.871  11.789  0.00  0.00    +0.013 A 
BRANCH  18  19
ATOM     19  C   UNL     1      24.346  39.716   9.117  0.00  0.00    +0.119 C 
BRANCH  19  20
ATOM     20  N   UNL     1      24.058  38.397   8.478  0.00  0.00    -0.302 NA
ATOM     21  C   UNL     1      22.961  38.502   7.414  0.00  0.00    +0.066 C 
ATOM     22  C   UNL     1      22.688  37.119   6.739  0.00  0.00    -0.064 C 
ATOM     23  N   UNL     1      22.307  36.097   7.812  0.00  0.00    +0.379 N 
ATOM     24  C   UNL     1      21.994  34.810   7.175  0.00  0.00    -0.096 C 
ATOM     25  H   UNL     1      21.380  36.462   8.312  0.00  0.00    -0.082 HD
ATOM     26  C   UNL     1      23.392  35.988   8.875  0.00  0.00    -0.064 C 
ATOM     27  C   UNL     1      23.675  37.374   9.519  0.00  0.00    +0.066 C 
ENDBRANCH  19  20
ENDBRANCH  18  19
ENDBRANCH  14  15
ENDBRANCH  12  13
TORSDOF 6
ENDMDL
