MODEL 1
REMARK VINA RESULT:      -8.3      0.000      0.000
REMARK  Name = C:\Users\Docking\Desktop\test protocol\1iep_ligandH.pdb
REMARK  8 active torsions:
REMARK  status: ('A' for Active; 'I' for Inactive)
REMARK    1  A    between atoms: _5  and  _11
REMARK    2  A    between atoms: _19  and  _21
REMARK    3  A    between atoms: _22  and  _66
REMARK    4  A    between atoms: _27  and  _30
REMARK    5  A    between atoms: _32  and  _33
REMARK    6  A    between atoms: _38  and  _43
REMARK    7  A    between atoms: _43  and  _46
REMARK    8  A    between atoms: _53  and  _55
REMARK                            x       y       z     vdW  Elec       q    Type
REMARK                         _______ _______ _______ _____ _____    ______ ____
ROOT
ATOM     10  C   UNL     1      -5.249  -1.105 -22.149  0.00  0.00    +0.038 A 
ATOM     11  C   UNL     1      -4.767  -1.135 -20.816  0.00  0.00    +0.047 A 
ATOM     12  C   UNL     1      -5.348  -2.028 -19.825  0.00  0.00    +0.035 A 
ATOM     32  C   UNL     1      -6.418  -2.879 -20.228  0.00  0.00    +0.024 A 
ATOM     33  C   UNL     1      -6.922  -2.860 -21.579  0.00  0.00    +0.007 A 
ATOM     34  C   UNL     1      -6.354  -1.980 -22.560  0.00  0.00    -0.029 A 
ATOM     35  C   UNL     1      -6.938  -1.997 -23.992  0.00  0.00    +0.045 C 
ENDROOT
BRANCH  10   9
ATOM      4  C   UNL     1      -5.212   2.953 -24.712  0.00  0.00    +0.077 A 
ATOM      5  C   UNL     1      -6.500   3.347 -24.217  0.00  0.00    +0.048 A 
ATOM      6  C   UNL     1      -7.141   2.474 -23.310  0.00  0.00    +0.116 A 
ATOM      7  N   UNL     1      -6.531   1.298 -22.933  0.00  0.00    -0.223 NA
ATOM      8  C   UNL     1      -5.290   0.947 -23.431  0.00  0.00    +0.220 A 
ATOM      9  N   UNL     1      -4.654  -0.228 -23.059  0.00  0.00    -0.283 N 
ATOM     36  H   UNL     1      -3.742  -0.454 -23.454  0.00  0.00    +0.155 HD
ATOM     37  N   UNL     1      -4.657   1.763 -24.299  0.00  0.00    -0.214 NA
BRANCH   4   3
ATOM      1  C   UNL     1      -4.173   5.226 -27.721  0.00  0.00    +0.020 A 
ATOM      2  C   UNL     1      -4.995   4.448 -26.823  0.00  0.00    +0.013 A 
ATOM      3  C   UNL     1      -4.407   3.771 -25.674  0.00  0.00    +0.019 A 
ATOM     38  C   UNL     1      -2.974   3.902 -25.461  0.00  0.00    +0.120 A 
ATOM     39  N   UNL     1      -2.207   4.656 -26.343  0.00  0.00    -0.263 NA
ATOM     40  C   UNL     1      -2.761   5.311 -27.453  0.00  0.00    +0.111 A 
ENDBRANCH   4   3
ENDBRANCH  10   9
BRANCH  12  13
ATOM     13  N   UNL     1      -4.905  -2.097 -18.455  0.00  0.00    -0.281 N 
ATOM     14  C   UNL     1      -4.383  -3.189 -17.783  0.00  0.00    +0.248 C 
ATOM     30  O   UNL     1      -4.415  -4.338 -18.200  0.00  0.00    -0.270 OA
ATOM     31  H   UNL     1      -4.987  -1.235 -17.915  0.00  0.00    +0.155 HD
BRANCH  14  15
ATOM     15  C   UNL     1      -3.745  -2.978 -16.448  0.00  0.00    +0.037 A 
ATOM     16  C   UNL     1      -2.498  -3.657 -16.086  0.00  0.00    +0.013 A 
ATOM     17  C   UNL     1      -1.912  -3.449 -14.785  0.00  0.00    +0.005 A 
ATOM     18  C   UNL     1      -2.573  -2.556 -13.837  0.00  0.00    -0.033 A 
ATOM     28  C   UNL     1      -3.806  -1.891 -14.224  0.00  0.00    +0.005 A 
ATOM     29  C   UNL     1      -4.384  -2.093 -15.497  0.00  0.00    +0.013 A 
BRANCH  18  19
ATOM     19  C   UNL     1      -2.031  -2.291 -12.420  0.00  0.00    +0.119 C 
BRANCH  19  20
ATOM     20  N   UNL     1      -2.156  -3.396 -11.422  0.00  0.00    -0.302 NA
ATOM     21  C   UNL     1      -3.611  -3.836 -11.232  0.00  0.00    +0.066 C 
ATOM     22  C   UNL     1      -3.721  -5.007 -10.203  0.00  0.00    -0.064 C 
ATOM     23  N   UNL     1      -3.109  -4.571  -8.871  0.00  0.00    +0.379 N 
ATOM     24  C   UNL     1      -3.263  -5.649  -7.883  0.00  0.00    -0.096 C 
ATOM     25  H   UNL     1      -3.688  -3.691  -8.504  0.00  0.00    -0.082 HD
ATOM     26  C   UNL     1      -1.663  -4.129  -9.051  0.00  0.00    -0.064 C 
ATOM     27  C   UNL     1      -1.562  -2.985 -10.098  0.00  0.00    +0.066 C 
ENDBRANCH  19  20
ENDBRANCH  18  19
ENDBRANCH  14  15
ENDBRANCH  12  13
TORSDOF 6
ENDMDL
MODEL 2
REMARK VINA RESULT:      -8.2      1.939      2.732
REMARK  Name = C:\Users\Docking\Desktop\test protocol\1iep_ligandH.pdb
REMARK  8 active torsions:
REMARK  status: ('A' for Active; 'I' for Inactive)
REMARK    1  A    between atoms: _5  and  _11
REMARK    2  A    between atoms: _19  and  _21
REMARK    3  A    between atoms: _22  and  _66
REMARK    4  A    between atoms: _27  and  _30
REMARK    5  A    between atoms: _32  and  _33
REMARK    6  A    between atoms: _38  and  _43
REMARK    7  A    between atoms: _43  and  _46
REMARK    8  A    between atoms: _53  and  _55
REMARK                            x       y       z     vdW  Elec       q    Type
REMARK                         _______ _______ _______ _____ _____    ______ ____
ROOT
ATOM     10  C   UNL     1      -5.317  -1.028 -22.286  0.00  0.00    +0.038 A 
ATOM     11  C   UNL     1      -4.933  -1.004 -20.921  0.00  0.00    +0.047 A 
ATOM     12  C   UNL     1      -5.522  -1.921 -19.957  0.00  0.00    +0.035 A 
ATOM     32  C   UNL     1      -6.498  -2.851 -20.419  0.00  0.00    +0.024 A 
ATOM     33  C   UNL     1      -6.901  -2.888 -21.803  0.00  0.00    +0.007 A 
ATOM     34  C   UNL     1      -6.325  -1.985 -22.758  0.00  0.00    -0.029 A 
ATOM     35  C   UNL     1      -6.800  -2.065 -24.227  0.00  0.00    +0.045 C 
ENDROOT
BRANCH  10   9
ATOM      4  C   UNL     1      -5.311   3.063 -24.796  0.00  0.00    +0.077 A 
ATOM      5  C   UNL     1      -6.621   3.419 -24.332  0.00  0.00    +0.048 A 
ATOM      6  C   UNL     1      -7.265   2.519 -23.455  0.00  0.00    +0.116 A 
ATOM      7  N   UNL     1      -6.637   1.352 -23.075  0.00  0.00    -0.223 NA
ATOM      8  C   UNL     1      -5.373   1.039 -23.542  0.00  0.00    +0.220 A 
ATOM      9  N   UNL     1      -4.719  -0.125 -23.168  0.00  0.00    -0.283 N 
ATOM     36  H   UNL     1      -3.791  -0.323 -23.540  0.00  0.00    +0.155 HD
ATOM     37  N   UNL     1      -4.737   1.881 -24.382  0.00  0.00    -0.214 NA
BRANCH   4   3
ATOM      1  C   UNL     1      -4.211   5.286 -27.821  0.00  0.00    +0.020 A 
ATOM      2  C   UNL     1      -5.037   4.471 -26.959  0.00  0.00    +0.013 A 
ATOM      3  C   UNL     1      -4.500   3.913 -25.725  0.00  0.00    +0.019 A 
ATOM     38  C   UNL     1      -3.114   4.202 -25.388  0.00  0.00    +0.120 A 
ATOM     39  N   UNL     1      -2.343   4.988 -26.238  0.00  0.00    -0.263 NA
ATOM     40  C   UNL     1      -2.848   5.529 -27.429  0.00  0.00    +0.111 A 
ENDBRANCH   4   3
ENDBRANCH  10   9
BRANCH  12  13
ATOM     13  N   UNL     1      -5.178  -1.938 -18.557  0.00  0.00    -0.281 N 
ATOM     14  C   UNL     1      -4.568  -2.956 -17.842  0.00  0.00    +0.248 C 
ATOM     30  O   UNL     1      -4.419  -4.096 -18.255  0.00  0.00    -0.270 OA
ATOM     31  H   UNL     1      -5.412  -1.097 -18.029  0.00  0.00    +0.155 HD
BRANCH  14  15
ATOM     15  C   UNL     1      -4.064  -2.669 -16.465  0.00  0.00    +0.037 A 
ATOM     16  C   UNL     1      -2.833  -3.284 -15.963  0.00  0.00    +0.013 A 
ATOM     17  C   UNL     1      -2.378  -3.004 -14.624  0.00  0.00    +0.005 A 
ATOM     18  C   UNL     1      -3.156  -2.102 -13.777  0.00  0.00    -0.033 A 
ATOM     28  C   UNL     1      -4.372  -1.503 -14.302  0.00  0.00    +0.005 A 
ATOM     29  C   UNL     1      -4.821  -1.776 -15.614  0.00  0.00    +0.013 A 
BRANCH  18  19
ATOM     19  C   UNL     1      -2.758  -1.763 -12.329  0.00  0.00    +0.119 C 
BRANCH  19  20
ATOM     20  N   UNL     1      -2.443  -0.336 -12.022  0.00  0.00    -0.302 NA
ATOM     21  C   UNL     1      -1.361  -0.205 -10.946  0.00  0.00    +0.066 C 
ATOM     22  C   UNL     1      -1.028   1.295 -10.654  0.00  0.00    -0.064 C 
ATOM     23  N   UNL     1      -2.304   2.025 -10.232  0.00  0.00    +0.379 N 
ATOM     24  C   UNL     1      -1.984   3.421  -9.901  0.00  0.00    -0.096 C 
ATOM     25  H   UNL     1      -2.682   1.535  -9.304  0.00  0.00    -0.082 HD
ATOM     26  C   UNL     1      -3.386   1.897 -11.295  0.00  0.00    -0.064 C 
ATOM     27  C   UNL     1      -3.688   0.403 -11.599  0.00  0.00    +0.066 C 
ENDBRANCH  19  20
ENDBRANCH  18  19
ENDBRANCH  14  15
ENDBRANCH  12  13
TORSDOF 6
ENDMDL
MODEL 3
REMARK VINA RESULT:      -8.2      1.887     13.099
REMARK  Name = C:\Users\Docking\Desktop\test protocol\1iep_ligandH.pdb
REMARK  8 active torsions:
REMARK  status: ('A' for Active; 'I' for Inactive)
REMARK    1  A    between atoms: _5  and  _11
REMARK    2  A    between atoms: _19  and  _21
REMARK    3  A    between atoms: _22  and  _66
REMARK    4  A    between atoms: _27  and  _30
REMARK    5  A    between atoms: _32  and  _33
REMARK    6  A    between atoms: _38  and  _43
REMARK    7  A    between atoms: _43  and  _46
REMARK    8  A    between atoms: _53  and  _55
REMARK                            x       y       z     vdW  Elec       q    Type
REMARK                         _______ _______ _______ _____ _____    ______ ____
ROOT
ATOM     10  C   UNL     1      -5.834  -2.641 -16.659  0.00  0.00    +0.038 A 
ATOM     11  C   UNL     1      -5.551  -1.666 -17.649  0.00  0.00    +0.047 A 
ATOM     12  C   UNL     1      -6.181  -1.718 -18.959  0.00  0.00    +0.035 A 
ATOM     32  C   UNL     1      -7.097  -2.778 -19.226  0.00  0.00    +0.024 A 
ATOM     33  C   UNL     1      -7.395  -3.778 -18.232  0.00  0.00    +0.007 A 
ATOM     34  C   UNL     1      -6.774  -3.733 -16.939  0.00  0.00    -0.029 A 
ATOM     35  C   UNL     1      -7.126  -4.836 -15.914  0.00  0.00    +0.045 C 
ENDROOT
BRANCH  10   9
ATOM      4  C   UNL     1      -2.107  -3.417 -13.736  0.00  0.00    +0.077 A 
ATOM      5  C   UNL     1      -1.370  -4.100 -14.759  0.00  0.00    +0.048 A 
ATOM      6  C   UNL     1      -1.989  -4.238 -16.022  0.00  0.00    +0.116 A 
ATOM      7  N   UNL     1      -3.250  -3.725 -16.234  0.00  0.00    -0.223 NA
ATOM      8  C   UNL     1      -3.934  -3.073 -15.225  0.00  0.00    +0.220 A 
ATOM      9  N   UNL     1      -5.200  -2.542 -15.418  0.00  0.00    -0.283 N 
ATOM     36  H   UNL     1      -5.674  -2.075 -14.646  0.00  0.00    +0.155 HD
ATOM     37  N   UNL     1      -3.365  -2.930 -14.010  0.00  0.00    -0.214 NA
BRANCH   4   3
ATOM      1  C   UNL     1       0.170  -2.391 -10.725  0.00  0.00    +0.020 A 
ATOM      2  C   UNL     1      -0.286  -2.589 -12.081  0.00  0.00    +0.013 A 
ATOM      3  C   UNL     1      -1.586  -3.189 -12.350  0.00  0.00    +0.019 A 
ATOM     38  C   UNL     1      -2.409  -3.580 -11.215  0.00  0.00    +0.120 A 
ATOM     39  N   UNL     1      -1.943  -3.378  -9.920  0.00  0.00    -0.263 NA
ATOM     40  C   UNL     1      -0.693  -2.803  -9.649  0.00  0.00    +0.111 A 
ENDBRANCH   4   3
ENDBRANCH  10   9
BRANCH  12  13
ATOM     13  N   UNL     1      -5.927  -0.761 -20.006  0.00  0.00    -0.281 N 
ATOM     14  C   UNL     1      -5.508  -1.008 -21.303  0.00  0.00    +0.248 C 
ATOM     30  O   UNL     1      -5.080  -2.082 -21.698  0.00  0.00    -0.270 OA
ATOM     31  H   UNL     1      -6.074   0.219 -19.762  0.00  0.00    +0.155 HD
BRANCH  14  15
ATOM     15  C   UNL     1      -5.557   0.103 -22.303  0.00  0.00    +0.037 A 
ATOM     16  C   UNL     1      -5.907  -0.150 -23.703  0.00  0.00    +0.013 A 
ATOM     17  C   UNL     1      -5.930   0.936 -24.650  0.00  0.00    +0.005 A 
ATOM     18  C   UNL     1      -5.605   2.287 -24.198  0.00  0.00    -0.033 A 
ATOM     28  C   UNL     1      -5.267   2.510 -22.802  0.00  0.00    +0.005 A 
ATOM     29  C   UNL     1      -5.242   1.448 -21.871  0.00  0.00    +0.013 A 
BRANCH  18  19
ATOM     19  C   UNL     1      -5.585   3.503 -25.143  0.00  0.00    +0.119 C 
BRANCH  19  20
ATOM     20  N   UNL     1      -4.448   3.601 -26.107  0.00  0.00    -0.302 NA
ATOM     21  C   UNL     1      -3.153   4.048 -25.423  0.00  0.00    +0.066 C 
ATOM     22  C   UNL     1      -1.969   4.124 -26.441  0.00  0.00    -0.064 C 
ATOM     23  N   UNL     1      -2.338   5.078 -27.579  0.00  0.00    +0.379 N 
ATOM     24  C   UNL     1      -1.204   5.196 -28.508  0.00  0.00    -0.096 C 
ATOM     25  H   UNL     1      -2.516   6.083 -27.132  0.00  0.00    -0.082 HD
ATOM     26  C   UNL     1      -3.626   4.642 -28.262  0.00  0.00    -0.064 C 
ATOM     27  C   UNL     1      -4.790   4.541 -27.237  0.00  0.00    +0.066 C 
ENDBRANCH  19  20
ENDBRANCH  18  19
ENDBRANCH  14  15
ENDBRANCH  12  13
TORSDOF 6
ENDMDL
MODEL 4
REMARK VINA RESULT:      -7.9     13.315     17.569
REMARK  Name = C:\Users\Docking\Desktop\test protocol\1iep_ligandH.pdb
REMARK  8 active torsions:
REMARK  status: ('A' for Active; 'I' for Inactive)
REMARK    1  A    between atoms: _5  and  _11
REMARK    2  A    between atoms: _19  and  _21
REMARK    3  A    between atoms: _22  and  _66
REMARK    4  A    between atoms: _27  and  _30
REMARK    5  A    between atoms: _32  and  _33
REMARK    6  A    between atoms: _38  and  _43
REMARK    7  A    between atoms: _43  and  _46
REMARK    8  A    between atoms: _53  and  _55
REMARK                            x       y       z     vdW  Elec       q    Type
REMARK                         _______ _______ _______ _____ _____    ______ ____
ROOT
ATOM     10  C   UNL     1       2.640   8.645 -29.294  0.00  0.00    +0.038 A 
ATOM     11  C   UNL     1       1.241   8.434 -29.395  0.00  0.00    +0.047 A 
ATOM     12  C   UNL     1       0.689   7.094 -29.522  0.00  0.00    +0.035 A 
ATOM     32  C   UNL     1       1.591   5.990 -29.540  0.00  0.00    +0.024 A 
ATOM     33  C   UNL     1       3.016   6.187 -29.439  0.00  0.00    +0.007 A 
ATOM     34  C   UNL     1       3.566   7.506 -29.316  0.00  0.00    -0.029 A 
ATOM     35  C   UNL     1       5.102   7.658 -29.217  0.00  0.00    +0.045 C 
ENDROOT
BRANCH  10   9
ATOM      4  C   UNL     1       4.245  12.755 -31.182  0.00  0.00    +0.077 A 
ATOM      5  C   UNL     1       4.156  12.244 -32.520  0.00  0.00    +0.048 A 
ATOM      6  C   UNL     1       3.698  10.916 -32.678  0.00  0.00    +0.116 A 
ATOM      7  N   UNL     1       3.359  10.165 -31.574  0.00  0.00    -0.223 NA
ATOM      8  C   UNL     1       3.458  10.687 -30.298  0.00  0.00    +0.220 A 
ATOM      9  N   UNL     1       3.115   9.953 -29.174  0.00  0.00    -0.283 N 
ATOM     36  H   UNL     1       3.209  10.372 -28.249  0.00  0.00    +0.155 HD
ATOM     37  N   UNL     1       3.894  11.952 -30.120  0.00  0.00    -0.214 NA
BRANCH   4   3
ATOM      1  C   UNL     1       6.011  16.241 -31.354  0.00  0.00    +0.020 A 
ATOM      2  C   UNL     1       5.594  14.906 -31.718  0.00  0.00    +0.013 A 
ATOM      3  C   UNL     1       4.708  14.140 -30.852  0.00  0.00    +0.019 A 
ATOM     38  C   UNL     1       4.256  14.758 -29.615  0.00  0.00    +0.120 A 
ATOM     39  N   UNL     1       4.675  16.044 -29.289  0.00  0.00    -0.263 NA
ATOM     40  C   UNL     1       5.530  16.791 -30.114  0.00  0.00    +0.111 A 
ENDBRANCH   4   3
ENDBRANCH  10   9
BRANCH  12  13
ATOM     13  N   UNL     1      -0.722   6.818 -29.637  0.00  0.00    -0.281 N 
ATOM     14  C   UNL     1      -1.458   5.851 -28.972  0.00  0.00    +0.248 C 
ATOM     30  O   UNL     1      -0.971   4.931 -28.333  0.00  0.00    -0.270 OA
ATOM     31  H   UNL     1      -1.241   7.408 -30.287  0.00  0.00    +0.155 HD
BRANCH  14  15
ATOM     15  C   UNL     1      -2.950   5.906 -29.039  0.00  0.00    +0.037 A 
ATOM     16  C   UNL     1      -3.779   4.942 -28.312  0.00  0.00    +0.013 A 
ATOM     17  C   UNL     1      -5.216   5.007 -28.408  0.00  0.00    +0.005 A 
ATOM     18  C   UNL     1      -5.833   6.042 -29.233  0.00  0.00    -0.033 A 
ATOM     28  C   UNL     1      -4.986   6.989 -29.940  0.00  0.00    +0.005 A 
ATOM     29  C   UNL     1      -3.578   6.928 -29.850  0.00  0.00    +0.013 A 
BRANCH  18  19
ATOM     19  C   UNL     1      -7.357   6.173 -29.410  0.00  0.00    +0.119 C 
BRANCH  19  20
ATOM     20  N   UNL     1      -8.034   5.163 -30.276  0.00  0.00    -0.302 NA
ATOM     21  C   UNL     1      -7.769   5.410 -31.764  0.00  0.00    +0.066 C 
ATOM     22  C   UNL     1      -8.467   4.331 -32.654  0.00  0.00    -0.064 C 
ATOM     23  N   UNL     1      -9.969   4.328 -32.364  0.00  0.00    +0.379 N 
ATOM     24  C   UNL     1     -10.636   3.354 -33.241  0.00  0.00    -0.096 C 
ATOM     25  H   UNL     1     -10.364   5.339 -32.619  0.00  0.00    -0.082 HD
ATOM     26  C   UNL     1     -10.241   4.085 -30.887  0.00  0.00    -0.064 C 
ATOM     27  C   UNL     1      -9.520   5.146 -30.010  0.00  0.00    +0.066 C 
ENDBRANCH  19  20
ENDBRANCH  18  19
ENDBRANCH  14  15
ENDBRANCH  12  13
TORSDOF 6
ENDMDL
MODEL 5
REMARK VINA RESULT:      -7.6      2.348     14.273
REMARK  Name = C:\Users\Docking\Desktop\test protocol\1iep_ligandH.pdb
REMARK  8 active torsions:
REMARK  status: ('A' for Active; 'I' for Inactive)
REMARK    1  A    between atoms: _5  and  _11
REMARK    2  A    between atoms: _19  and  _21
REMARK    3  A    between atoms: _22  and  _66
REMARK    4  A    between atoms: _27  and  _30
REMARK    5  A    between atoms: _32  and  _33
REMARK    6  A    between atoms: _38  and  _43
REMARK    7  A    between atoms: _43  and  _46
REMARK    8  A    between atoms: _53  and  _55
REMARK                            x       y       z     vdW  Elec       q    Type
REMARK                         _______ _______ _______ _____ _____    ______ ____
ROOT
ATOM     10  C   UNL     1      -1.920  -2.930 -12.049  0.00  0.00    +0.038 A 
ATOM     11  C   UNL     1      -2.481  -3.105 -13.340  0.00  0.00    +0.047 A 
ATOM     12  C   UNL     1      -2.949  -1.968 -14.117  0.00  0.00    +0.035 A 
ATOM     32  C   UNL     1      -2.829  -0.666 -13.549  0.00  0.00    +0.024 A 
ATOM     33  C   UNL     1      -2.263  -0.470 -12.237  0.00  0.00    +0.007 A 
ATOM     34  C   UNL     1      -1.801  -1.588 -11.465  0.00  0.00    -0.029 A 
ATOM     35  C   UNL     1      -1.208  -1.320 -10.062  0.00  0.00    +0.045 C 
ENDROOT
BRANCH  10   9
ATOM      4  C   UNL     1      -2.751  -6.855  -9.414  0.00  0.00    +0.077 A 
ATOM      5  C   UNL     1      -4.167  -6.627  -9.413  0.00  0.00    +0.048 A 
ATOM      6  C   UNL     1      -4.641  -5.484 -10.096  0.00  0.00    +0.116 A 
ATOM      7  N   UNL     1      -3.755  -4.640 -10.730  0.00  0.00    -0.223 NA
ATOM      8  C   UNL     1      -2.395  -4.888 -10.710  0.00  0.00    +0.220 A 
ATOM      9  N   UNL     1      -1.486  -4.057 -11.347  0.00  0.00    -0.283 N 
ATOM     36  H   UNL     1      -0.490  -4.271 -11.302  0.00  0.00    +0.155 HD
ATOM     37  N   UNL     1      -1.917  -5.972 -10.063  0.00  0.00    -0.214 NA
BRANCH   4   3
ATOM      1  C   UNL     1      -1.593  -9.435  -6.712  0.00  0.00    +0.020 A 
ATOM      2  C   UNL     1      -2.244  -8.296  -7.315  0.00  0.00    +0.013 A 
ATOM      3  C   UNL     1      -2.098  -8.021  -8.739  0.00  0.00    +0.019 A 
ATOM     38  C   UNL     1      -1.280  -8.927  -9.531  0.00  0.00    +0.120 A 
ATOM     39  N   UNL     1      -0.664 -10.016  -8.922  0.00  0.00    -0.263 NA
ATOM     40  C   UNL     1      -0.796 -10.289  -7.553  0.00  0.00    +0.111 A 
ENDBRANCH   4   3
ENDBRANCH  10   9
BRANCH  12  13
ATOM     13  N   UNL     1      -3.535  -2.085 -15.429  0.00  0.00    -0.281 N 
ATOM     14  C   UNL     1      -4.836  -2.431 -15.753  0.00  0.00    +0.248 C 
ATOM     30  O   UNL     1      -5.642  -2.904 -14.966  0.00  0.00    -0.270 OA
ATOM     31  H   UNL     1      -2.915  -1.888 -16.215  0.00  0.00    +0.155 HD
BRANCH  14  15
ATOM     15  C   UNL     1      -5.306  -2.238 -17.159  0.00  0.00    +0.037 A 
ATOM     16  C   UNL     1      -6.504  -1.450 -17.458  0.00  0.00    +0.013 A 
ATOM     17  C   UNL     1      -6.945  -1.293 -18.822  0.00  0.00    +0.005 A 
ATOM     18  C   UNL     1      -6.186  -1.927 -19.897  0.00  0.00    -0.033 A 
ATOM     28  C   UNL     1      -4.998  -2.700 -19.572  0.00  0.00    +0.005 A 
ATOM     29  C   UNL     1      -4.563  -2.856 -18.237  0.00  0.00    +0.013 A 
BRANCH  18  19
ATOM     19  C   UNL     1      -6.595  -1.831 -21.379  0.00  0.00    +0.119 C 
BRANCH  19  20
ATOM     20  N   UNL     1      -6.482  -0.494 -22.034  0.00  0.00    -0.302 NA
ATOM     21  C   UNL     1      -6.241  -0.611 -23.542  0.00  0.00    +0.066 C 
ATOM     22  C   UNL     1      -6.148   0.797 -24.215  0.00  0.00    -0.064 C 
ATOM     23  N   UNL     1      -5.033   1.605 -23.549  0.00  0.00    +0.379 N 
ATOM     24  C   UNL     1      -4.904   2.907 -24.218  0.00  0.00    -0.096 C 
ATOM     25  H   UNL     1      -4.077   1.050 -23.701  0.00  0.00    -0.082 HD
ATOM     26  C   UNL     1      -5.263   1.724 -22.049  0.00  0.00    -0.064 C 
ATOM     27  C   UNL     1      -5.384   0.319 -21.395  0.00  0.00    +0.066 C 
ENDBRANCH  19  20
ENDBRANCH  18  19
ENDBRANCH  14  15
ENDBRANCH  12  13
TORSDOF 6
ENDMDL
