MODEL 1
REMARK VINA RESULT:      -8.3      0.000      0.000
REMARK  Name = C:\Users\Docking\Desktop\test protocol\1iep_ligandH.pdb
REMARK  8 active torsions:
REMARK  status: ('A' for Active; 'I' for Inactive)
REMARK    1  A    between atoms: _5  and  _11
REMARK    2  A    between atoms: _19  and  _21
REMARK    3  A    between atoms: _22  and  _66
REMARK    4  A    between atoms: _27  and  _30
REMARK    5  A    between atoms: _32  and  _33
REMARK    6  A    between atoms: _38  and  _43
REMARK    7  A    between atoms: _43  and  _46
REMARK    8  A    between atoms: _53  and  _55
REMARK                            x       y       z     vdW  Elec       q    Type
REMARK                         _______ _______ _______ _____ _____    ______ ____
ROOT
ATOM     10  C   UNL     1      21.766  34.062  13.671  0.00  0.00    +0.038 A 
ATOM     11  C   UNL     1      22.270  34.602  14.881  0.00  0.00    +0.047 A 
ATOM     12  C   UNL     1      22.060  36.000  15.227  0.00  0.00    +0.035 A 
ATOM     32  C   UNL     1      21.330  36.818  14.317  0.00  0.00    +0.024 A 
ATOM     33  C   UNL     1      20.811  36.286  13.082  0.00  0.00    +0.007 A 
ATOM     34  C   UNL     1      21.017  34.909  12.734  0.00  0.00    -0.029 A 
ATOM     35  C   UNL     1      20.444  34.394  11.393  0.00  0.00    +0.045 C 
ENDROOT
BRANCH  10   9
ATOM      4  C   UNL     1      24.285  30.542  11.598  0.00  0.00    +0.077 A 
ATOM      5  C   UNL     1      25.205  31.469  11.004  0.00  0.00    +0.048 A 
ATOM      6  C   UNL     1      24.990  32.844  11.250  0.00  0.00    +0.116 A 
ATOM      7  N   UNL     1      23.932  33.249  12.034  0.00  0.00    -0.223 NA
ATOM      8  C   UNL     1      23.063  32.329  12.591  0.00  0.00    +0.220 A 
ATOM      9  N   UNL     1      21.996  32.714  13.389  0.00  0.00    -0.283 N 
ATOM     36  H   UNL     1      21.374  32.005  13.775  0.00  0.00    +0.155 HD
ATOM     37  N   UNL     1      23.245  31.011  12.370  0.00  0.00    -0.214 NA
BRANCH   4   3
ATOM      1  C   UNL     1      24.912  26.742  12.285  0.00  0.00    +0.020 A 
ATOM      2  C   UNL     1      24.837  28.170  12.496  0.00  0.00    +0.013 A 
ATOM      3  C   UNL     1      24.382  29.057  11.433  0.00  0.00    +0.019 A 
ATOM     38  C   UNL     1      24.005  28.463  10.159  0.00  0.00    +0.120 A 
ATOM     39  N   UNL     1      24.089  27.085   9.985  0.00  0.00    -0.263 NA
ATOM     40  C   UNL     1      24.527  26.222  11.000  0.00  0.00    +0.111 A 
ENDBRANCH   4   3
ENDBRANCH  10   9
BRANCH  12  13
ATOM     13  N   UNL     1      22.556  36.606  16.438  0.00  0.00    -0.281 N 
ATOM     14  C   UNL     1      22.098  36.420  17.732  0.00  0.00    +0.248 C 
ATOM     30  O   UNL     1      21.048  35.865  18.021  0.00  0.00    -0.270 OA
ATOM     31  H   UNL     1      23.339  37.250  16.328  0.00  0.00    +0.155 HD
BRANCH  14  15
ATOM     15  C   UNL     1      22.917  36.939  18.869  0.00  0.00    +0.037 A 
ATOM     16  C   UNL     1      23.077  36.168  20.104  0.00  0.00    +0.013 A 
ATOM     17  C   UNL     1      23.859  36.700  21.193  0.00  0.00    +0.005 A 
ATOM     18  C   UNL     1      24.488  38.011  21.049  0.00  0.00    -0.033 A 
ATOM     28  C   UNL     1      24.316  38.752  19.811  0.00  0.00    +0.005 A 
ATOM     29  C   UNL     1      23.550  38.235  18.743  0.00  0.00    +0.013 A 
BRANCH  18  19
ATOM     19  C   UNL     1      25.322  38.665  22.167  0.00  0.00    +0.119 C 
BRANCH  19  20
ATOM     20  N   UNL     1      26.758  38.269  22.269  0.00  0.00    -0.302 NA
ATOM     21  C   UNL     1      27.365  38.652  23.622  0.00  0.00    +0.066 C 
ATOM     22  C   UNL     1      28.861  38.211  23.720  0.00  0.00    -0.064 C 
ATOM     23  N   UNL     1      29.653  38.841  22.573  0.00  0.00    +0.379 N 
ATOM     24  C   UNL     1      31.071  38.475  22.696  0.00  0.00    -0.096 C 
ATOM     25  H   UNL     1      29.579  39.948  22.680  0.00  0.00    -0.082 HD
ATOM     26  C   UNL     1      29.054  38.467  21.225  0.00  0.00    -0.064 C 
ATOM     27  C   UNL     1      27.559  38.884  21.148  0.00  0.00    +0.066 C 
ENDBRANCH  19  20
ENDBRANCH  18  19
ENDBRANCH  14  15
ENDBRANCH  12  13
TORSDOF 6
ENDMDL
MODEL 2
REMARK VINA RESULT:      -8.0      1.834      2.375
REMARK  Name = C:\Users\Docking\Desktop\test protocol\1iep_ligandH.pdb
REMARK  8 active torsions:
REMARK  status: ('A' for Active; 'I' for Inactive)
REMARK    1  A    between atoms: _5  and  _11
REMARK    2  A    between atoms: _19  and  _21
REMARK    3  A    between atoms: _22  and  _66
REMARK    4  A    between atoms: _27  and  _30
REMARK    5  A    between atoms: _32  and  _33
REMARK    6  A    between atoms: _38  and  _43
REMARK    7  A    between atoms: _43  and  _46
REMARK    8  A    between atoms: _53  and  _55
REMARK                            x       y       z     vdW  Elec       q    Type
REMARK                         _______ _______ _______ _____ _____    ______ ____
ROOT
ATOM     10  C   UNL     1      20.959  32.541  16.153  0.00  0.00    +0.038 A 
ATOM     11  C   UNL     1      21.779  33.360  16.970  0.00  0.00    +0.047 A 
ATOM     12  C   UNL     1      21.235  34.521  17.658  0.00  0.00    +0.035 A 
ATOM     32  C   UNL     1      19.851  34.817  17.492  0.00  0.00    +0.024 A 
ATOM     33  C   UNL     1      19.003  33.995  16.664  0.00  0.00    +0.007 A 
ATOM     34  C   UNL     1      19.535  32.851  15.982  0.00  0.00    -0.029 A 
ATOM     35  C   UNL     1      18.581  32.009  15.102  0.00  0.00    +0.045 C 
ENDROOT
BRANCH  10   9
ATOM      4  C   UNL     1      23.277  30.512  12.472  0.00  0.00    +0.077 A 
ATOM      5  C   UNL     1      23.324  31.748  11.744  0.00  0.00    +0.048 A 
ATOM      6  C   UNL     1      22.734  32.880  12.348  0.00  0.00    +0.116 A 
ATOM      7  N   UNL     1      22.144  32.773  13.589  0.00  0.00    -0.223 NA
ATOM      8  C   UNL     1      22.115  31.567  14.264  0.00  0.00    +0.220 A 
ATOM      9  N   UNL     1      21.534  31.438  15.516  0.00  0.00    -0.283 N 
ATOM     36  H   UNL     1      21.526  30.529  15.977  0.00  0.00    +0.155 HD
ATOM     37  N   UNL     1      22.670  30.470  13.707  0.00  0.00    -0.214 NA
BRANCH   4   3
ATOM      1  C   UNL     1      25.162  27.090  12.275  0.00  0.00    +0.020 A 
ATOM      2  C   UNL     1      24.621  28.317  12.812  0.00  0.00    +0.013 A 
ATOM      3  C   UNL     1      23.860  29.229  11.967  0.00  0.00    +0.019 A 
ATOM     38  C   UNL     1      23.663  28.866  10.571  0.00  0.00    +0.120 A 
ATOM     39  N   UNL     1      24.197  27.678  10.082  0.00  0.00    -0.263 NA
ATOM     40  C   UNL     1      24.932  26.794  10.885  0.00  0.00    +0.111 A 
ENDBRANCH   4   3
ENDBRANCH  10   9
BRANCH  12  13
ATOM     13  N   UNL     1      22.021  35.394  18.494  0.00  0.00    -0.281 N 
ATOM     14  C   UNL     1      22.027  35.469  19.877  0.00  0.00    +0.248 C 
ATOM     30  O   UNL     1      21.197  34.941  20.602  0.00  0.00    -0.270 OA
ATOM     31  H   UNL     1      22.648  36.034  18.008  0.00  0.00    +0.155 HD
BRANCH  14  15
ATOM     15  C   UNL     1      23.104  36.256  20.553  0.00  0.00    +0.037 A 
ATOM     16  C   UNL     1      23.411  37.629  20.144  0.00  0.00    +0.013 A 
ATOM     17  C   UNL     1      24.466  38.360  20.801  0.00  0.00    +0.005 A 
ATOM     18  C   UNL     1      25.220  37.719  21.875  0.00  0.00    -0.033 A 
ATOM     28  C   UNL     1      24.891  36.357  22.264  0.00  0.00    +0.005 A 
ATOM     29  C   UNL     1      23.858  35.638  21.622  0.00  0.00    +0.013 A 
BRANCH  18  19
ATOM     19  C   UNL     1      26.376  38.416  22.617  0.00  0.00    +0.119 C 
BRANCH  19  20
ATOM     20  N   UNL     1      27.733  38.333  21.999  0.00  0.00    -0.302 NA
ATOM     21  C   UNL     1      28.763  37.723  22.954  0.00  0.00    +0.066 C 
ATOM     22  C   UNL     1      30.172  37.623  22.284  0.00  0.00    -0.064 C 
ATOM     23  N   UNL     1      30.616  39.014  21.827  0.00  0.00    +0.379 N 
ATOM     24  C   UNL     1      31.965  38.933  21.249  0.00  0.00    -0.096 C 
ATOM     25  H   UNL     1      30.673  39.664  22.730  0.00  0.00    -0.082 HD
ATOM     26  C   UNL     1      29.596  39.629  20.879  0.00  0.00    -0.064 C 
ATOM     27  C   UNL     1      28.193  39.696  21.544  0.00  0.00    +0.066 C 
ENDBRANCH  19  20
ENDBRANCH  18  19
ENDBRANCH  14  15
ENDBRANCH  12  13
TORSDOF 6
ENDMDL
MODEL 3
REMARK VINA RESULT:      -7.9      1.249      1.725
REMARK  Name = C:\Users\Docking\Desktop\test protocol\1iep_ligandH.pdb
REMARK  8 active torsions:
REMARK  status: ('A' for Active; 'I' for Inactive)
REMARK    1  A    between atoms: _5  and  _11
REMARK    2  A    between atoms: _19  and  _21
REMARK    3  A    between atoms: _22  and  _66
REMARK    4  A    between atoms: _27  and  _30
REMARK    5  A    between atoms: _32  and  _33
REMARK    6  A    between atoms: _38  and  _43
REMARK    7  A    between atoms: _43  and  _46
REMARK    8  A    between atoms: _53  and  _55
REMARK                            x       y       z     vdW  Elec       q    Type
REMARK                         _______ _______ _______ _____ _____    ______ ____
ROOT
ATOM     10  C   UNL     1      22.169  34.185  13.478  0.00  0.00    +0.038 A 
ATOM     11  C   UNL     1      22.684  34.734  14.681  0.00  0.00    +0.047 A 
ATOM     12  C   UNL     1      22.148  35.968  15.235  0.00  0.00    +0.035 A 
ATOM     32  C   UNL     1      21.085  36.615  14.539  0.00  0.00    +0.024 A 
ATOM     33  C   UNL     1      20.551  36.072  13.315  0.00  0.00    +0.007 A 
ATOM     34  C   UNL     1      21.077  34.857  12.763  0.00  0.00    -0.029 A 
ATOM     35  C   UNL     1      20.470  34.323  11.444  0.00  0.00    +0.045 C 
ENDROOT
BRANCH  10   9
ATOM      4  C   UNL     1      22.439  29.396  13.320  0.00  0.00    +0.077 A 
ATOM      5  C   UNL     1      21.413  29.246  14.310  0.00  0.00    +0.048 A 
ATOM      6  C   UNL     1      20.845  30.426  14.841  0.00  0.00    +0.116 A 
ATOM      7  N   UNL     1      21.280  31.659  14.405  0.00  0.00    -0.223 NA
ATOM      8  C   UNL     1      22.274  31.769  13.450  0.00  0.00    +0.220 A 
ATOM      9  N   UNL     1      22.721  32.998  12.992  0.00  0.00    -0.283 N 
ATOM     36  H   UNL     1      23.461  33.037  12.291  0.00  0.00    +0.155 HD
ATOM     37  N   UNL     1      22.832  30.656  12.929  0.00  0.00    -0.214 NA
BRANCH   4   3
ATOM      1  C   UNL     1      25.203  27.015  11.907  0.00  0.00    +0.020 A 
ATOM      2  C   UNL     1      24.583  28.150  12.551  0.00  0.00    +0.013 A 
ATOM      3  C   UNL     1      23.133  28.243  12.663  0.00  0.00    +0.019 A 
ATOM     38  C   UNL     1      22.332  27.162  12.108  0.00  0.00    +0.120 A 
ATOM     39  N   UNL     1      22.957  26.082  11.493  0.00  0.00    -0.263 NA
ATOM     40  C   UNL     1      24.351  25.982  11.378  0.00  0.00    +0.111 A 
ENDBRANCH   4   3
ENDBRANCH  10   9
BRANCH  12  13
ATOM     13  N   UNL     1      22.635  36.576  16.448  0.00  0.00    -0.281 N 
ATOM     14  C   UNL     1      22.138  36.433  17.732  0.00  0.00    +0.248 C 
ATOM     30  O   UNL     1      21.061  35.924  18.003  0.00  0.00    -0.270 OA
ATOM     31  H   UNL     1      23.446  37.188  16.346  0.00  0.00    +0.155 HD
BRANCH  14  15
ATOM     15  C   UNL     1      22.948  36.941  18.881  0.00  0.00    +0.037 A 
ATOM     16  C   UNL     1      23.101  36.156  20.109  0.00  0.00    +0.013 A 
ATOM     17  C   UNL     1      23.873  36.677  21.209  0.00  0.00    +0.005 A 
ATOM     18  C   UNL     1      24.500  37.991  21.085  0.00  0.00    -0.033 A 
ATOM     28  C   UNL     1      24.337  38.746  19.853  0.00  0.00    +0.005 A 
ATOM     29  C   UNL     1      23.579  38.239  18.774  0.00  0.00    +0.013 A 
BRANCH  18  19
ATOM     19  C   UNL     1      25.325  38.634  22.215  0.00  0.00    +0.119 C 
BRANCH  19  20
ATOM     20  N   UNL     1      26.765  38.251  22.314  0.00  0.00    -0.302 NA
ATOM     21  C   UNL     1      27.365  38.620  23.674  0.00  0.00    +0.066 C 
ATOM     22  C   UNL     1      28.866  38.193  23.768  0.00  0.00    -0.064 C 
ATOM     23  N   UNL     1      29.653  38.849  22.633  0.00  0.00    +0.379 N 
ATOM     24  C   UNL     1      31.075  38.495  22.753  0.00  0.00    -0.096 C 
ATOM     25  H   UNL     1      29.567  39.954  22.757  0.00  0.00    -0.082 HD
ATOM     26  C   UNL     1      29.061  38.490  21.277  0.00  0.00    -0.064 C 
ATOM     27  C   UNL     1      27.562  38.892  21.205  0.00  0.00    +0.066 C 
ENDBRANCH  19  20
ENDBRANCH  18  19
ENDBRANCH  14  15
ENDBRANCH  12  13
TORSDOF 6
ENDMDL
MODEL 4
REMARK VINA RESULT:      -7.8     13.001     15.317
REMARK  Name = C:\Users\Docking\Desktop\test protocol\1iep_ligandH.pdb
REMARK  8 active torsions:
REMARK  status: ('A' for Active; 'I' for Inactive)
REMARK    1  A    between atoms: _5  and  _11
REMARK    2  A    between atoms: _19  and  _21
REMARK    3  A    between atoms: _22  and  _66
REMARK    4  A    between atoms: _27  and  _30
REMARK    5  A    between atoms: _32  and  _33
REMARK    6  A    between atoms: _38  and  _43
REMARK    7  A    between atoms: _43  and  _46
REMARK    8  A    between atoms: _53  and  _55
REMARK                            x       y       z     vdW  Elec       q    Type
REMARK                         _______ _______ _______ _____ _____    ______ ____
ROOT
ATOM     10  C   UNL     1      18.716  27.662  22.630  0.00  0.00    +0.038 A 
ATOM     11  C   UNL     1      19.577  26.996  23.538  0.00  0.00    +0.047 A 
ATOM     12  C   UNL     1      19.094  25.907  24.372  0.00  0.00    +0.035 A 
ATOM     32  C   UNL     1      17.728  25.520  24.254  0.00  0.00    +0.024 A 
ATOM     33  C   UNL     1      16.837  26.187  23.337  0.00  0.00    +0.007 A 
ATOM     34  C   UNL     1      17.308  27.264  22.513  0.00  0.00    -0.029 A 
ATOM     35  C   UNL     1      16.307  27.947  21.552  0.00  0.00    +0.045 C 
ENDROOT
BRANCH  10   9
ATOM      4  C   UNL     1      19.677  32.302  21.867  0.00  0.00    +0.077 A 
ATOM      5  C   UNL     1      19.075  32.692  23.110  0.00  0.00    +0.048 A 
ATOM      6  C   UNL     1      18.523  31.669  23.913  0.00  0.00    +0.116 A 
ATOM      7  N   UNL     1      18.575  30.357  23.494  0.00  0.00    -0.223 NA
ATOM      8  C   UNL     1      19.162  30.015  22.289  0.00  0.00    +0.220 A 
ATOM      9  N   UNL     1      19.232  28.701  21.853  0.00  0.00    -0.283 N 
ATOM     36  H   UNL     1      19.666  28.491  20.954  0.00  0.00    +0.155 HD
ATOM     37  N   UNL     1      19.695  30.974  21.504  0.00  0.00    -0.214 NA
BRANCH   4   3
ATOM      1  C   UNL     1      21.551  35.396  20.377  0.00  0.00    +0.020 A 
ATOM      2  C   UNL     1      20.959  34.498  21.341  0.00  0.00    +0.013 A 
ATOM      3  C   UNL     1      20.306  33.268  20.911  0.00  0.00    +0.019 A 
ATOM     38  C   UNL     1      20.270  32.973  19.486  0.00  0.00    +0.120 A 
ATOM     39  N   UNL     1      20.848  33.857  18.581  0.00  0.00    -0.263 NA
ATOM     40  C   UNL     1      21.477  35.045  18.983  0.00  0.00    +0.111 A 
ENDBRANCH   4   3
ENDBRANCH  10   9
BRANCH  12  13
ATOM     13  N   UNL     1      19.921  25.199  25.318  0.00  0.00    -0.281 N 
ATOM     14  C   UNL     1      21.303  25.199  25.409  0.00  0.00    +0.248 C 
ATOM     30  O   UNL     1      22.052  25.643  24.551  0.00  0.00    -0.270 OA
ATOM     31  H   UNL     1      19.427  24.628  26.004  0.00  0.00    +0.155 HD
BRANCH  14  15
ATOM     15  C   UNL     1      21.947  24.608  26.621  0.00  0.00    +0.037 A 
ATOM     16  C   UNL     1      23.350  24.881  26.946  0.00  0.00    +0.013 A 
ATOM     17  C   UNL     1      23.951  24.285  28.113  0.00  0.00    +0.005 A 
ATOM     18  C   UNL     1      23.149  23.410  28.964  0.00  0.00    -0.033 A 
ATOM     28  C   UNL     1      21.759  23.160  28.621  0.00  0.00    +0.005 A 
ATOM     29  C   UNL     1      21.166  23.742  27.478  0.00  0.00    +0.013 A 
BRANCH  18  19
ATOM     19  C   UNL     1      23.714  22.713  30.216  0.00  0.00    +0.119 C 
BRANCH  19  20
ATOM     20  N   UNL     1      23.420  21.259  30.381  0.00  0.00    -0.302 NA
ATOM     21  C   UNL     1      22.893  20.935  31.782  0.00  0.00    +0.066 C 
ATOM     22  C   UNL     1      22.569  19.412  31.930  0.00  0.00    -0.064 C 
ATOM     23  N   UNL     1      23.824  18.594  31.621  0.00  0.00    +0.379 N 
ATOM     24  C   UNL     1      23.539  17.165  31.816  0.00  0.00    -0.096 C 
ATOM     25  H   UNL     1      24.608  18.886  32.358  0.00  0.00    -0.082 HD
ATOM     26  C   UNL     1      24.357  18.912  30.231  0.00  0.00    -0.064 C 
ATOM     27  C   UNL     1      24.647  20.432  30.085  0.00  0.00    +0.066 C 
ENDBRANCH  19  20
ENDBRANCH  18  19
ENDBRANCH  14  15
ENDBRANCH  12  13
TORSDOF 6
ENDMDL
MODEL 5
REMARK VINA RESULT:      -7.8     19.393     21.768
REMARK  Name = C:\Users\Docking\Desktop\test protocol\1iep_ligandH.pdb
REMARK  8 active torsions:
REMARK  status: ('A' for Active; 'I' for Inactive)
REMARK    1  A    between atoms: _5  and  _11
REMARK    2  A    between atoms: _19  and  _21
REMARK    3  A    between atoms: _22  and  _66
REMARK    4  A    between atoms: _27  and  _30
REMARK    5  A    between atoms: _32  and  _33
REMARK    6  A    between atoms: _38  and  _43
REMARK    7  A    between atoms: _43  and  _46
REMARK    8  A    between atoms: _53  and  _55
REMARK                            x       y       z     vdW  Elec       q    Type
REMARK                         _______ _______ _______ _____ _____    ______ ____
ROOT
ATOM     10  C   UNL     1      27.766  20.268  29.401  0.00  0.00    +0.038 A 
ATOM     11  C   UNL     1      26.370  20.493  29.507  0.00  0.00    +0.047 A 
ATOM     12  C   UNL     1      25.833  21.838  29.646  0.00  0.00    +0.035 A 
ATOM     32  C   UNL     1      26.748  22.931  29.672  0.00  0.00    +0.024 A 
ATOM     33  C   UNL     1      28.170  22.720  29.567  0.00  0.00    +0.007 A 
ATOM     34  C   UNL     1      28.706  21.396  29.432  0.00  0.00    -0.029 A 
ATOM     35  C   UNL     1      30.239  21.228  29.329  0.00  0.00    +0.045 C 
ENDROOT
BRANCH  10   9
ATOM      4  C   UNL     1      29.090  16.040  31.249  0.00  0.00    +0.077 A 
ATOM      5  C   UNL     1      28.871  16.492  32.593  0.00  0.00    +0.048 A 
ATOM      6  C   UNL     1      28.425  17.822  32.766  0.00  0.00    +0.116 A 
ATOM      7  N   UNL     1      28.216  18.630  31.669  0.00  0.00    -0.223 NA
ATOM      8  C   UNL     1      28.438  18.163  30.387  0.00  0.00    +0.220 A 
ATOM      9  N   UNL     1      28.227  18.956  29.269  0.00  0.00    -0.283 N 
ATOM     36  H   UNL     1      28.410  18.577  28.340  0.00  0.00    +0.155 HD
ATOM     37  N   UNL     1      28.866  16.898  30.195  0.00  0.00    -0.214 NA
BRANCH   4   3
ATOM      1  C   UNL     1      29.580  12.609  29.437  0.00  0.00    +0.020 A 
ATOM      2  C   UNL     1      29.096  13.939  29.725  0.00  0.00    +0.013 A 
ATOM      3  C   UNL     1      29.559  14.661  30.904  0.00  0.00    +0.019 A 
ATOM     38  C   UNL     1      30.520  14.004  31.776  0.00  0.00    +0.120 A 
ATOM     39  N   UNL     1      30.967  12.722  31.474  0.00  0.00    -0.263 NA
ATOM     40  C   UNL     1      30.528  12.016  30.344  0.00  0.00    +0.111 A 
ENDBRANCH   4   3
ENDBRANCH  10   9
BRANCH  12  13
ATOM     13  N   UNL     1      24.426  22.127  29.766  0.00  0.00    -0.281 N 
ATOM     14  C   UNL     1      23.679  23.041  29.039  0.00  0.00    +0.248 C 
ATOM     30  O   UNL     1      24.156  23.905  28.318  0.00  0.00    -0.270 OA
ATOM     31  H   UNL     1      23.918  21.594  30.472  0.00  0.00    +0.155 HD
BRANCH  14  15
ATOM     15  C   UNL     1      22.189  22.998  29.140  0.00  0.00    +0.037 A 
ATOM     16  C   UNL     1      21.512  22.009  29.983  0.00  0.00    +0.013 A 
ATOM     17  C   UNL     1      20.073  21.979  30.049  0.00  0.00    +0.005 A 
ATOM     18  C   UNL     1      19.299  22.941  29.268  0.00  0.00    -0.033 A 
ATOM     28  C   UNL     1      19.996  23.914  28.443  0.00  0.00    +0.005 A 
ATOM     29  C   UNL     1      21.407  23.947  28.376  0.00  0.00    +0.013 A 
BRANCH  18  19
ATOM     19  C   UNL     1      17.760  22.968  29.260  0.00  0.00    +0.119 C 
BRANCH  19  20
ATOM     20  N   UNL     1      17.090  24.044  30.051  0.00  0.00    -0.302 NA
ATOM     21  C   UNL     1      17.362  23.907  31.552  0.00  0.00    +0.066 C 
ATOM     22  C   UNL     1      16.673  25.054  32.362  0.00  0.00    -0.064 C 
ATOM     23  N   UNL     1      15.169  25.041  32.079  0.00  0.00    +0.379 N 
ATOM     24  C   UNL     1      14.511  26.081  32.884  0.00  0.00    -0.096 C 
ATOM     25  H   UNL     1      14.772  24.054  32.411  0.00  0.00    -0.082 HD
ATOM     26  C   UNL     1      14.891  25.174  30.589  0.00  0.00    -0.064 C 
ATOM     27  C   UNL     1      15.604  24.047  29.791  0.00  0.00    +0.066 C 
ENDBRANCH  19  20
ENDBRANCH  18  19
ENDBRANCH  14  15
ENDBRANCH  12  13
TORSDOF 6
ENDMDL
