MODEL 1
REMARK VINA RESULT:      -8.8      0.000      0.000
REMARK  Name = C:\Users\Docking\Desktop\test protocol\1iep_ligandH.pdb
REMARK  8 active torsions:
REMARK  status: ('A' for Active; 'I' for Inactive)
REMARK    1  A    between atoms: _5  and  _11
REMARK    2  A    between atoms: _19  and  _21
REMARK    3  A    between atoms: _22  and  _66
REMARK    4  A    between atoms: _27  and  _30
REMARK    5  A    between atoms: _32  and  _33
REMARK    6  A    between atoms: _38  and  _43
REMARK    7  A    between atoms: _43  and  _46
REMARK    8  A    between atoms: _53  and  _55
REMARK                            x       y       z     vdW  Elec       q    Type
REMARK                         _______ _______ _______ _____ _____    ______ ____
ROOT
ATOM     10  C   UNL     1      20.125  30.161  21.860  0.00  0.00    +0.038 A 
ATOM     11  C   UNL     1      20.592  30.205  20.522  0.00  0.00    +0.047 A 
ATOM     12  C   UNL     1      20.008  31.116  19.550  0.00  0.00    +0.035 A 
ATOM     32  C   UNL     1      18.950  31.971  19.977  0.00  0.00    +0.024 A 
ATOM     33  C   UNL     1      18.462  31.938  21.333  0.00  0.00    +0.007 A 
ATOM     34  C   UNL     1      19.033  31.040  22.295  0.00  0.00    -0.029 A 
ATOM     35  C   UNL     1      18.465  31.043  23.734  0.00  0.00    +0.045 C 
ENDROOT
BRANCH  10   9
ATOM      4  C   UNL     1      20.129  26.094  24.410  0.00  0.00    +0.077 A 
ATOM      5  C   UNL     1      18.820  25.733  23.948  0.00  0.00    +0.048 A 
ATOM      6  C   UNL     1      18.176  26.625  23.061  0.00  0.00    +0.116 A 
ATOM      7  N   UNL     1      18.805  27.788  22.671  0.00  0.00    -0.223 NA
ATOM      8  C   UNL     1      20.068  28.106  23.137  0.00  0.00    +0.220 A 
ATOM      9  N   UNL     1      20.722  29.266  22.752  0.00  0.00    -0.283 N 
ATOM     36  H   UNL     1      21.650  29.469  23.123  0.00  0.00    +0.155 HD
ATOM     37  N   UNL     1      20.703  27.272  23.986  0.00  0.00    -0.214 NA
BRANCH   4   3
ATOM      1  C   UNL     1      21.180  23.732  27.345  0.00  0.00    +0.020 A 
ATOM      2  C   UNL     1      20.354  24.531  26.470  0.00  0.00    +0.013 A 
ATOM      3  C   UNL     1      20.939  25.253  25.348  0.00  0.00    +0.019 A 
ATOM     38  C   UNL     1      22.375  25.146  25.137  0.00  0.00    +0.120 A 
ATOM     39  N   UNL     1      23.146  24.371  25.998  0.00  0.00    -0.263 NA
ATOM     40  C   UNL     1      22.594  23.672  27.082  0.00  0.00    +0.111 A 
ENDBRANCH   4   3
ENDBRANCH  10   9
BRANCH  12  13
ATOM     13  N   UNL     1      20.436  31.199  18.176  0.00  0.00    -0.281 N 
ATOM     14  C   UNL     1      21.139  32.224  17.564  0.00  0.00    +0.248 C 
ATOM     30  O   UNL     1      21.322  33.328  18.056  0.00  0.00    -0.270 OA
ATOM     31  H   UNL     1      20.192  30.407  17.583  0.00  0.00    +0.155 HD
BRANCH  14  15
ATOM     15  C   UNL     1      21.709  31.995  16.201  0.00  0.00    +0.037 A 
ATOM     16  C   UNL     1      21.129  31.004  15.292  0.00  0.00    +0.013 A 
ATOM     17  C   UNL     1      21.709  30.791  13.989  0.00  0.00    +0.005 A 
ATOM     18  C   UNL     1      22.876  31.573  13.588  0.00  0.00    -0.033 A 
ATOM     28  C   UNL     1      23.428  32.554  14.508  0.00  0.00    +0.005 A 
ATOM     29  C   UNL     1      22.863  32.764  15.786  0.00  0.00    +0.013 A 
BRANCH  18  19
ATOM     19  C   UNL     1      23.572  31.397  12.226  0.00  0.00    +0.119 C 
BRANCH  19  20
ATOM     20  N   UNL     1      23.425  32.504  11.234  0.00  0.00    -0.302 NA
ATOM     21  C   UNL     1      21.973  32.972  11.108  0.00  0.00    +0.066 C 
ATOM     22  C   UNL     1      21.840  34.146  10.083  0.00  0.00    -0.064 C 
ATOM     23  N   UNL     1      22.385  33.698   8.726  0.00  0.00    +0.379 N 
ATOM     24  C   UNL     1      22.209  34.780   7.746  0.00  0.00    -0.096 C 
ATOM     25  H   UNL     1      21.774  32.830   8.386  0.00  0.00    -0.082 HD
ATOM     26  C   UNL     1      23.828  33.229   8.843  0.00  0.00    -0.064 C 
ATOM     27  C   UNL     1      23.954  32.082   9.885  0.00  0.00    +0.066 C 
ENDBRANCH  19  20
ENDBRANCH  18  19
ENDBRANCH  14  15
ENDBRANCH  12  13
TORSDOF 6
ENDMDL
MODEL 2
REMARK VINA RESULT:      -8.4      2.064      3.052
REMARK  Name = C:\Users\Docking\Desktop\test protocol\1iep_ligandH.pdb
REMARK  8 active torsions:
REMARK  status: ('A' for Active; 'I' for Inactive)
REMARK    1  A    between atoms: _5  and  _11
REMARK    2  A    between atoms: _19  and  _21
REMARK    3  A    between atoms: _22  and  _66
REMARK    4  A    between atoms: _27  and  _30
REMARK    5  A    between atoms: _32  and  _33
REMARK    6  A    between atoms: _38  and  _43
REMARK    7  A    between atoms: _43  and  _46
REMARK    8  A    between atoms: _53  and  _55
REMARK                            x       y       z     vdW  Elec       q    Type
REMARK                         _______ _______ _______ _____ _____    ______ ____
ROOT
ATOM     10  C   UNL     1      20.046  30.001  22.161  0.00  0.00    +0.038 A 
ATOM     11  C   UNL     1      20.427  29.987  20.795  0.00  0.00    +0.047 A 
ATOM     12  C   UNL     1      19.808  30.883  19.831  0.00  0.00    +0.035 A 
ATOM     32  C   UNL     1      18.805  31.784  20.294  0.00  0.00    +0.024 A 
ATOM     33  C   UNL     1      18.404  31.811  21.678  0.00  0.00    +0.007 A 
ATOM     34  C   UNL     1      19.009  30.928  22.633  0.00  0.00    -0.029 A 
ATOM     35  C   UNL     1      18.536  30.996  24.104  0.00  0.00    +0.045 C 
ENDROOT
BRANCH  10   9
ATOM      4  C   UNL     1      20.178  25.922  24.686  0.00  0.00    +0.077 A 
ATOM      5  C   UNL     1      18.876  25.528  24.231  0.00  0.00    +0.048 A 
ATOM      6  C   UNL     1      18.203  26.407  23.353  0.00  0.00    +0.116 A 
ATOM      7  N   UNL     1      18.797  27.589  22.966  0.00  0.00    -0.223 NA
ATOM      8  C   UNL     1      20.053  27.939  23.425  0.00  0.00    +0.220 A 
ATOM      9  N   UNL     1      20.673  29.119  23.043  0.00  0.00    -0.283 N 
ATOM     36  H   UNL     1      21.597  29.344  23.410  0.00  0.00    +0.155 HD
ATOM     37  N   UNL     1      20.716  27.118  24.265  0.00  0.00    -0.214 NA
BRANCH   4   3
ATOM      1  C   UNL     1      23.228  24.180  26.409  0.00  0.00    +0.020 A 
ATOM      2  C   UNL     1      22.464  24.988  25.486  0.00  0.00    +0.013 A 
ATOM      3  C   UNL     1      21.017  25.099  25.614  0.00  0.00    +0.019 A 
ATOM     38  C   UNL     1      20.367  24.374  26.696  0.00  0.00    +0.120 A 
ATOM     39  N   UNL     1      21.128  23.602  27.568  0.00  0.00    -0.263 NA
ATOM     40  C   UNL     1      22.521  23.487  27.454  0.00  0.00    +0.111 A 
ENDBRANCH   4   3
ENDBRANCH  10   9
BRANCH  12  13
ATOM     13  N   UNL     1      20.149  30.908  18.430  0.00  0.00    -0.281 N 
ATOM     14  C   UNL     1      20.820  31.901  17.734  0.00  0.00    +0.248 C 
ATOM     30  O   UNL     1      21.042  33.021  18.170  0.00  0.00    -0.270 OA
ATOM     31  H   UNL     1      19.861  30.096  17.885  0.00  0.00    +0.155 HD
BRANCH  14  15
ATOM     15  C   UNL     1      21.301  31.613  16.349  0.00  0.00    +0.037 A 
ATOM     16  C   UNL     1      22.545  32.195  15.840  0.00  0.00    +0.013 A 
ATOM     17  C   UNL     1      22.977  31.914  14.494  0.00  0.00    +0.005 A 
ATOM     18  C   UNL     1      22.164  31.045  13.647  0.00  0.00    -0.033 A 
ATOM     28  C   UNL     1      20.937  30.476  14.179  0.00  0.00    +0.005 A 
ATOM     29  C   UNL     1      20.509  30.750  15.498  0.00  0.00    +0.013 A 
BRANCH  18  19
ATOM     19  C   UNL     1      22.538  30.708  12.191  0.00  0.00    +0.119 C 
BRANCH  19  20
ATOM     20  N   UNL     1      22.902  29.291  11.889  0.00  0.00    -0.302 NA
ATOM     21  C   UNL     1      23.867  29.187  10.705  0.00  0.00    +0.066 C 
ATOM     22  C   UNL     1      24.255  27.700  10.417  0.00  0.00    -0.064 C 
ATOM     23  N   UNL     1      22.987  26.885  10.156  0.00  0.00    +0.379 N 
ATOM     24  C   UNL     1      23.353  25.500   9.828  0.00  0.00    -0.096 C 
ATOM     25  H   UNL     1      22.482  27.323   9.264  0.00  0.00    -0.082 HD
ATOM     26  C   UNL     1      22.021  26.986  11.328  0.00  0.00    -0.064 C 
ATOM     27  C   UNL     1      21.665  28.470  11.625  0.00  0.00    +0.066 C 
ENDBRANCH  19  20
ENDBRANCH  18  19
ENDBRANCH  14  15
ENDBRANCH  12  13
TORSDOF 6
ENDMDL
MODEL 3
REMARK VINA RESULT:      -7.8      4.076     12.377
REMARK  Name = C:\Users\Docking\Desktop\test protocol\1iep_ligandH.pdb
REMARK  8 active torsions:
REMARK  status: ('A' for Active; 'I' for Inactive)
REMARK    1  A    between atoms: _5  and  _11
REMARK    2  A    between atoms: _19  and  _21
REMARK    3  A    between atoms: _22  and  _66
REMARK    4  A    between atoms: _27  and  _30
REMARK    5  A    between atoms: _32  and  _33
REMARK    6  A    between atoms: _38  and  _43
REMARK    7  A    between atoms: _43  and  _46
REMARK    8  A    between atoms: _53  and  _55
REMARK                            x       y       z     vdW  Elec       q    Type
REMARK                         _______ _______ _______ _____ _____    ______ ____
ROOT
ATOM     10  C   UNL     1      22.602  30.550  12.751  0.00  0.00    +0.038 A 
ATOM     11  C   UNL     1      22.096  30.627  14.074  0.00  0.00    +0.047 A 
ATOM     12  C   UNL     1      22.591  31.622  15.012  0.00  0.00    +0.035 A 
ATOM     32  C   UNL     1      23.601  32.525  14.569  0.00  0.00    +0.024 A 
ATOM     33  C   UNL     1      24.127  32.461  13.228  0.00  0.00    +0.007 A 
ATOM     34  C   UNL     1      23.644  31.480  12.299  0.00  0.00    -0.029 A 
ATOM     35  C   UNL     1      24.249  31.453  10.876  0.00  0.00    +0.045 C 
ENDROOT
BRANCH  10   9
ATOM      4  C   UNL     1      22.865  26.300  10.537  0.00  0.00    +0.077 A 
ATOM      5  C   UNL     1      24.142  26.008  11.121  0.00  0.00    +0.048 A 
ATOM      6  C   UNL     1      24.700  26.981  11.980  0.00  0.00    +0.116 A 
ATOM      7  N   UNL     1      24.023  28.155  12.229  0.00  0.00    -0.223 NA
ATOM      8  C   UNL     1      22.793  28.406  11.648  0.00  0.00    +0.220 A 
ATOM      9  N   UNL     1      22.090  29.575  11.891  0.00  0.00    -0.283 N 
ATOM     36  H   UNL     1      21.189  29.726  11.438  0.00  0.00    +0.155 HD
ATOM     37  N   UNL     1      22.239  27.493  10.823  0.00  0.00    -0.214 NA
BRANCH   4   3
ATOM      1  C   UNL     1      20.118  24.041   8.908  0.00  0.00    +0.020 A 
ATOM      2  C   UNL     1      20.769  24.940   9.833  0.00  0.00    +0.013 A 
ATOM      3  C   UNL     1      22.144  25.370   9.611  0.00  0.00    +0.019 A 
ATOM     38  C   UNL     1      22.837  24.868   8.434  0.00  0.00    +0.120 A 
ATOM     39  N   UNL     1      22.186  24.002   7.562  0.00  0.00    -0.263 NA
ATOM     40  C   UNL     1      20.864  23.580   7.766  0.00  0.00    +0.111 A 
ENDBRANCH   4   3
ENDBRANCH  10   9
BRANCH  12  13
ATOM     13  N   UNL     1      22.121  31.742  16.370  0.00  0.00    -0.281 N 
ATOM     14  C   UNL     1      21.131  32.579  16.858  0.00  0.00    +0.248 C 
ATOM     30  O   UNL     1      20.643  33.509  16.233  0.00  0.00    -0.270 OA
ATOM     31  H   UNL     1      22.574  31.136  17.055  0.00  0.00    +0.155 HD
BRANCH  14  15
ATOM     15  C   UNL     1      20.619  32.360  18.244  0.00  0.00    +0.037 A 
ATOM     16  C   UNL     1      20.360  33.485  19.146  0.00  0.00    +0.013 A 
ATOM     17  C   UNL     1      19.882  33.245  20.484  0.00  0.00    +0.005 A 
ATOM     18  C   UNL     1      19.658  31.871  20.929  0.00  0.00    -0.033 A 
ATOM     28  C   UNL     1      19.918  30.774  20.012  0.00  0.00    +0.005 A 
ATOM     29  C   UNL     1      20.387  31.005  18.700  0.00  0.00    +0.013 A 
BRANCH  18  19
ATOM     19  C   UNL     1      19.169  31.521  22.347  0.00  0.00    +0.119 C 
BRANCH  19  20
ATOM     20  N   UNL     1      18.536  30.182  22.540  0.00  0.00    -0.302 NA
ATOM     21  C   UNL     1      17.020  30.228  22.330  0.00  0.00    +0.066 C 
ATOM     22  C   UNL     1      16.377  28.814  22.514  0.00  0.00    -0.064 C 
ATOM     23  N   UNL     1      16.715  28.281  23.907  0.00  0.00    +0.379 N 
ATOM     24  C   UNL     1      16.064  26.978  24.105  0.00  0.00    -0.096 C 
ATOM     25  H   UNL     1      16.287  28.990  24.654  0.00  0.00    -0.082 HD
ATOM     26  C   UNL     1      18.221  28.235  24.125  0.00  0.00    -0.064 C 
ATOM     27  C   UNL     1      18.854  29.638  23.911  0.00  0.00    +0.066 C 
ENDBRANCH  19  20
ENDBRANCH  18  19
ENDBRANCH  14  15
ENDBRANCH  12  13
TORSDOF 6
ENDMDL
MODEL 4
REMARK VINA RESULT:      -7.8     13.537     17.545
REMARK  Name = C:\Users\Docking\Desktop\test protocol\1iep_ligandH.pdb
REMARK  8 active torsions:
REMARK  status: ('A' for Active; 'I' for Inactive)
REMARK    1  A    between atoms: _5  and  _11
REMARK    2  A    between atoms: _19  and  _21
REMARK    3  A    between atoms: _22  and  _66
REMARK    4  A    between atoms: _27  and  _30
REMARK    5  A    between atoms: _32  and  _33
REMARK    6  A    between atoms: _38  and  _43
REMARK    7  A    between atoms: _43  and  _46
REMARK    8  A    between atoms: _53  and  _55
REMARK                            x       y       z     vdW  Elec       q    Type
REMARK                         _______ _______ _______ _____ _____    ______ ____
ROOT
ATOM     10  C   UNL     1      27.683  20.244  29.182  0.00  0.00    +0.038 A 
ATOM     11  C   UNL     1      26.282  20.431  29.307  0.00  0.00    +0.047 A 
ATOM     12  C   UNL     1      25.710  21.762  29.445  0.00  0.00    +0.035 A 
ATOM     32  C   UNL     1      26.594  22.880  29.449  0.00  0.00    +0.024 A 
ATOM     33  C   UNL     1      28.020  22.708  29.325  0.00  0.00    +0.007 A 
ATOM     34  C   UNL     1      28.590  21.398  29.191  0.00  0.00    -0.029 A 
ATOM     35  C   UNL     1      30.127  21.272  29.067  0.00  0.00    +0.045 C 
ENDROOT
BRANCH  10   9
ATOM      4  C   UNL     1      29.295  16.123  31.042  0.00  0.00    +0.077 A 
ATOM      5  C   UNL     1      29.166  16.610  32.385  0.00  0.00    +0.048 A 
ATOM      6  C   UNL     1      28.688  17.929  32.554  0.00  0.00    +0.116 A 
ATOM      7  N   UNL     1      28.365  18.695  31.454  0.00  0.00    -0.223 NA
ATOM      8  C   UNL     1      28.503  18.195  30.172  0.00  0.00    +0.220 A 
ATOM      9  N   UNL     1      28.178  18.944  29.052  0.00  0.00    -0.283 N 
ATOM     36  H   UNL     1      28.301  18.542  28.123  0.00  0.00    +0.155 HD
ATOM     37  N   UNL     1      28.959  16.939  29.984  0.00  0.00    -0.214 NA
BRANCH   4   3
ATOM      1  C   UNL     1      31.275  12.750  31.075  0.00  0.00    +0.020 A 
ATOM      2  C   UNL     1      30.840  14.077  31.446  0.00  0.00    +0.013 A 
ATOM      3  C   UNL     1      29.784  14.750  30.701  0.00  0.00    +0.019 A 
ATOM     38  C   UNL     1      29.182  14.047  29.578  0.00  0.00    +0.120 A 
ATOM     39  N   UNL     1      29.622  12.770  29.243  0.00  0.00    -0.263 NA
ATOM     40  C   UNL     1      30.640  12.113  29.952  0.00  0.00    +0.111 A 
ENDBRANCH   4   3
ENDBRANCH  10   9
BRANCH  12  13
ATOM     13  N   UNL     1      24.297  22.013  29.583  0.00  0.00    -0.281 N 
ATOM     14  C   UNL     1      23.525  22.934  28.896  0.00  0.00    +0.248 C 
ATOM     30  O   UNL     1      23.976  23.835  28.204  0.00  0.00    -0.270 OA
ATOM     31  H   UNL     1      23.807  21.442  30.272  0.00  0.00    +0.155 HD
BRANCH  14  15
ATOM     15  C   UNL     1      22.036  22.852  29.003  0.00  0.00    +0.037 A 
ATOM     16  C   UNL     1      21.390  21.852  29.857  0.00  0.00    +0.013 A 
ATOM     17  C   UNL     1      19.952  21.783  29.929  0.00  0.00    +0.005 A 
ATOM     18  C   UNL     1      19.150  22.719  29.145  0.00  0.00    -0.033 A 
ATOM     28  C   UNL     1      19.817  23.704  28.310  0.00  0.00    +0.005 A 
ATOM     29  C   UNL     1      21.226  23.774  28.236  0.00  0.00    +0.013 A 
BRANCH  18  19
ATOM     19  C   UNL     1      17.610  22.704  29.144  0.00  0.00    +0.119 C 
BRANCH  19  20
ATOM     20  N   UNL     1      16.915  23.867  29.773  0.00  0.00    -0.302 NA
ATOM     21  C   UNL     1      17.201  23.964  31.274  0.00  0.00    +0.066 C 
ATOM     22  C   UNL     1      16.484  25.199  31.912  0.00  0.00    -0.064 C 
ATOM     23  N   UNL     1      14.980  25.102  31.652  0.00  0.00    +0.379 N 
ATOM     24  C   UNL     1      14.296  26.231  32.300  0.00  0.00    -0.096 C 
ATOM     25  H   UNL     1      14.614  24.164  32.132  0.00  0.00    -0.082 HD
ATOM     26  C   UNL     1      14.686  25.002  30.162  0.00  0.00    -0.064 C 
ATOM     27  C   UNL     1      15.427  23.789  29.533  0.00  0.00    +0.066 C 
ENDBRANCH  19  20
ENDBRANCH  18  19
ENDBRANCH  14  15
ENDBRANCH  12  13
TORSDOF 6
ENDMDL
MODEL 5
REMARK VINA RESULT:      -7.7      2.269     14.158
REMARK  Name = C:\Users\Docking\Desktop\test protocol\1iep_ligandH.pdb
REMARK  8 active torsions:
REMARK  status: ('A' for Active; 'I' for Inactive)
REMARK    1  A    between atoms: _5  and  _11
REMARK    2  A    between atoms: _19  and  _21
REMARK    3  A    between atoms: _22  and  _66
REMARK    4  A    between atoms: _27  and  _30
REMARK    5  A    between atoms: _32  and  _33
REMARK    6  A    between atoms: _38  and  _43
REMARK    7  A    between atoms: _43  and  _46
REMARK    8  A    between atoms: _53  and  _55
REMARK                            x       y       z     vdW  Elec       q    Type
REMARK                         _______ _______ _______ _____ _____    ______ ____
ROOT
ATOM     10  C   UNL     1      23.500  31.798  11.829  0.00  0.00    +0.038 A 
ATOM     11  C   UNL     1      22.983  31.967  13.139  0.00  0.00    +0.047 A 
ATOM     12  C   UNL     1      22.503  30.832  13.912  0.00  0.00    +0.035 A 
ATOM     32  C   UNL     1      22.567  29.537  13.320  0.00  0.00    +0.024 A 
ATOM     33  C   UNL     1      23.088  29.346  11.989  0.00  0.00    +0.007 A 
ATOM     34  C   UNL     1      23.560  30.463  11.221  0.00  0.00    -0.029 A 
ATOM     35  C   UNL     1      24.102  30.200   9.797  0.00  0.00    +0.045 C 
ENDROOT
BRANCH  10   9
ATOM      4  C   UNL     1      22.710  35.818   9.330  0.00  0.00    +0.077 A 
ATOM      5  C   UNL     1      21.287  35.650   9.395  0.00  0.00    +0.048 A 
ATOM      6  C   UNL     1      20.799  34.511  10.074  0.00  0.00    +0.116 A 
ATOM      7  N   UNL     1      21.678  33.615  10.643  0.00  0.00    -0.223 NA
ATOM      8  C   UNL     1      23.045  33.807  10.561  0.00  0.00    +0.220 A 
ATOM      9  N   UNL     1      23.947  32.923  11.133  0.00  0.00    -0.283 N 
ATOM     36  H   UNL     1      24.948  33.095  11.044  0.00  0.00    +0.155 HD
ATOM     37  N   UNL     1      23.536  34.885   9.916  0.00  0.00    -0.214 NA
BRANCH   4   3
ATOM      1  C   UNL     1      23.994  38.309   6.600  0.00  0.00    +0.020 A 
ATOM      2  C   UNL     1      23.332  37.177   7.207  0.00  0.00    +0.013 A 
ATOM      3  C   UNL     1      23.379  36.973   8.650  0.00  0.00    +0.019 A 
ATOM     38  C   UNL     1      24.109  37.939   9.456  0.00  0.00    +0.120 A 
ATOM     39  N   UNL     1      24.739  39.018   8.843  0.00  0.00    -0.263 NA
ATOM     40  C   UNL     1      24.702  39.225   7.456  0.00  0.00    +0.111 A 
ENDBRANCH   4   3
ENDBRANCH  10   9
BRANCH  12  13
ATOM     13  N   UNL     1      21.961  30.944  15.243  0.00  0.00    -0.281 N 
ATOM     14  C   UNL     1      20.822  31.622  15.645  0.00  0.00    +0.248 C 
ATOM     30  O   UNL     1      20.209  32.417  14.948  0.00  0.00    -0.270 OA
ATOM     31  H   UNL     1      22.481  30.466  15.979  0.00  0.00    +0.155 HD
BRANCH  14  15
ATOM     15  C   UNL     1      20.295  31.395  17.025  0.00  0.00    +0.037 A 
ATOM     16  C   UNL     1      19.276  30.376  17.290  0.00  0.00    +0.013 A 
ATOM     17  C   UNL     1      18.772  30.189  18.628  0.00  0.00    +0.005 A 
ATOM     18  C   UNL     1      19.288  31.022  19.711  0.00  0.00    -0.033 A 
ATOM     28  C   UNL     1      20.302  32.022  19.420  0.00  0.00    +0.005 A 
ATOM     29  C   UNL     1      20.798  32.209  18.110  0.00  0.00    +0.013 A 
BRANCH  18  19
ATOM     19  C   UNL     1      18.793  30.906  21.165  0.00  0.00    +0.119 C 
BRANCH  19  20
ATOM     20  N   UNL     1      18.922  29.574  21.827  0.00  0.00    -0.302 NA
ATOM     21  C   UNL     1      18.991  29.694  23.352  0.00  0.00    +0.066 C 
ATOM     22  C   UNL     1      19.104  28.290  24.029  0.00  0.00    -0.064 C 
ATOM     23  N   UNL     1      20.336  27.563  23.488  0.00  0.00    +0.379 N 
ATOM     24  C   UNL     1      20.477  26.266  24.165  0.00  0.00    -0.096 C 
ATOM     25  H   UNL     1      21.230  28.177  23.743  0.00  0.00    -0.082 HD
ATOM     26  C   UNL     1      20.277  27.441  21.972  0.00  0.00    -0.064 C 
ATOM     27  C   UNL     1      20.135  28.840  21.310  0.00  0.00    +0.066 C 
ENDBRANCH  19  20
ENDBRANCH  18  19
ENDBRANCH  14  15
ENDBRANCH  12  13
TORSDOF 6
ENDMDL
