MODEL 1
REMARK VINA RESULT:      -6.7      0.000      0.000
REMARK  Name = C:\Users\Docking\Desktop\test protocol\1iep_ligandH.pdb
REMARK  8 active torsions:
REMARK  status: ('A' for Active; 'I' for Inactive)
REMARK    1  A    between atoms: _5  and  _11
REMARK    2  A    between atoms: _19  and  _21
REMARK    3  A    between atoms: _22  and  _66
REMARK    4  A    between atoms: _27  and  _30
REMARK    5  A    between atoms: _32  and  _33
REMARK    6  A    between atoms: _38  and  _43
REMARK    7  A    between atoms: _43  and  _46
REMARK    8  A    between atoms: _53  and  _55
REMARK                            x       y       z     vdW  Elec       q    Type
REMARK                         _______ _______ _______ _____ _____    ______ ____
ROOT
ATOM     10  C   UNL     1      65.938  22.050   5.994  0.00  0.00    +0.038 A 
ATOM     11  C   UNL     1      67.276  21.579   6.003  0.00  0.00    +0.047 A 
ATOM     12  C   UNL     1      67.665  20.435   6.812  0.00  0.00    +0.035 A 
ATOM     32  C   UNL     1      66.666  19.793   7.600  0.00  0.00    +0.024 A 
ATOM     33  C   UNL     1      65.301  20.259   7.604  0.00  0.00    +0.007 A 
ATOM     34  C   UNL     1      64.912  21.388   6.809  0.00  0.00    -0.029 A 
ATOM     35  C   UNL     1      63.436  21.848   6.857  0.00  0.00    +0.045 C 
ENDROOT
BRANCH  10   9
ATOM      4  C   UNL     1      65.919  26.767   5.108  0.00  0.00    +0.077 A 
ATOM      5  C   UNL     1      66.577  27.063   6.348  0.00  0.00    +0.048 A 
ATOM      6  C   UNL     1      66.896  25.973   7.189  0.00  0.00    +0.116 A 
ATOM      7  N   UNL     1      66.578  24.688   6.807  0.00  0.00    -0.223 NA
ATOM      8  C   UNL     1      65.942  24.438   5.605  0.00  0.00    +0.220 A 
ATOM      9  N   UNL     1      65.619  23.152   5.198  0.00  0.00    -0.283 N 
ATOM     36  H   UNL     1      65.143  23.010   4.307  0.00  0.00    +0.155 HD
ATOM     37  N   UNL     1      65.625  25.461   4.785  0.00  0.00    -0.214 NA
BRANCH   4   3
ATOM      1  C   UNL     1      64.092  28.659   2.212  0.00  0.00    +0.020 A 
ATOM      2  C   UNL     1      64.438  27.619   3.154  0.00  0.00    +0.013 A 
ATOM      3  C   UNL     1      65.520  27.811   4.111  0.00  0.00    +0.019 A 
ATOM     38  C   UNL     1      66.238  29.076   4.089  0.00  0.00    +0.120 A 
ATOM     39  N   UNL     1      65.884  30.059   3.170  0.00  0.00    -0.263 NA
ATOM     40  C   UNL     1      64.845  29.885   2.243  0.00  0.00    +0.111 A 
ENDBRANCH   4   3
ENDBRANCH  10   9
BRANCH  12  13
ATOM     13  N   UNL     1      69.010  19.917   6.868  0.00  0.00    -0.281 N 
ATOM     14  C   UNL     1      70.099  20.446   7.541  0.00  0.00    +0.248 C 
ATOM     30  O   UNL     1      70.134  21.567   8.026  0.00  0.00    -0.270 OA
ATOM     31  H   UNL     1      69.179  19.056   6.348  0.00  0.00    +0.155 HD
BRANCH  14  15
ATOM     15  C   UNL     1      71.333  19.615   7.683  0.00  0.00    +0.037 A 
ATOM     16  C   UNL     1      71.557  18.437   6.840  0.00  0.00    +0.013 A 
ATOM     17  C   UNL     1      72.748  17.643   7.010  0.00  0.00    +0.005 A 
ATOM     18  C   UNL     1      73.726  18.025   8.026  0.00  0.00    -0.033 A 
ATOM     28  C   UNL     1      73.481  19.201   8.845  0.00  0.00    +0.005 A 
ATOM     29  C   UNL     1      72.314  19.982   8.682  0.00  0.00    +0.013 A 
BRANCH  18  19
ATOM     19  C   UNL     1      75.014  17.224   8.291  0.00  0.00    +0.119 C 
BRANCH  19  20
ATOM     20  N   UNL     1      74.859  15.800   8.715  0.00  0.00    -0.302 NA
ATOM     21  C   UNL     1      73.947  15.661   9.937  0.00  0.00    +0.066 C 
ATOM     22  C   UNL     1      73.778  14.164  10.353  0.00  0.00    -0.064 C 
ATOM     23  N   UNL     1      75.153  13.556  10.632  0.00  0.00    +0.379 N 
ATOM     24  C   UNL     1      74.994  12.165  11.080  0.00  0.00    -0.096 C 
ATOM     25  H   UNL     1      75.612  14.131  11.470  0.00  0.00    -0.082 HD
ATOM     26  C   UNL     1      76.068  13.693   9.423  0.00  0.00    -0.064 C 
ATOM     27  C   UNL     1      76.206  15.182   9.000  0.00  0.00    +0.066 C 
ENDBRANCH  19  20
ENDBRANCH  18  19
ENDBRANCH  14  15
ENDBRANCH  12  13
TORSDOF 6
ENDMDL
MODEL 2
REMARK VINA RESULT:      -6.5     14.549     16.404
REMARK  Name = C:\Users\Docking\Desktop\test protocol\1iep_ligandH.pdb
REMARK  8 active torsions:
REMARK  status: ('A' for Active; 'I' for Inactive)
REMARK    1  A    between atoms: _5  and  _11
REMARK    2  A    between atoms: _19  and  _21
REMARK    3  A    between atoms: _22  and  _66
REMARK    4  A    between atoms: _27  and  _30
REMARK    5  A    between atoms: _32  and  _33
REMARK    6  A    between atoms: _38  and  _43
REMARK    7  A    between atoms: _43  and  _46
REMARK    8  A    between atoms: _53  and  _55
REMARK                            x       y       z     vdW  Elec       q    Type
REMARK                         _______ _______ _______ _____ _____    ______ ____
ROOT
ATOM     10  C   UNL     1      56.887  27.927   2.628  0.00  0.00    +0.038 A 
ATOM     11  C   UNL     1      55.920  27.080   3.226  0.00  0.00    +0.047 A 
ATOM     12  C   UNL     1      56.125  25.642   3.306  0.00  0.00    +0.035 A 
ATOM     32  C   UNL     1      57.329  25.101   2.769  0.00  0.00    +0.024 A 
ATOM     33  C   UNL     1      58.323  25.947   2.157  0.00  0.00    +0.007 A 
ATOM     34  C   UNL     1      58.125  27.366   2.073  0.00  0.00    -0.029 A 
ATOM     35  C   UNL     1      59.222  28.224   1.400  0.00  0.00    +0.045 C 
ENDROOT
BRANCH  10   9
ATOM      4  C   UNL     1      57.074  32.334   4.520  0.00  0.00    +0.077 A 
ATOM      5  C   UNL     1      57.696  31.856   5.722  0.00  0.00    +0.048 A 
ATOM      6  C   UNL     1      57.943  30.468   5.816  0.00  0.00    +0.116 A 
ATOM      7  N   UNL     1      57.592  29.630   4.780  0.00  0.00    -0.223 NA
ATOM      8  C   UNL     1      56.993  30.124   3.636  0.00  0.00    +0.220 A 
ATOM      9  N   UNL     1      56.639  29.301   2.578  0.00  0.00    -0.283 N 
ATOM     36  H   UNL     1      56.192  29.702   1.754  0.00  0.00    +0.155 HD
ATOM     37  N   UNL     1      56.744  31.445   3.522  0.00  0.00    -0.214 NA
BRANCH   4   3
ATOM      1  C   UNL     1      55.697  35.628   2.921  0.00  0.00    +0.020 A 
ATOM      2  C   UNL     1      55.982  34.225   3.116  0.00  0.00    +0.013 A 
ATOM      3  C   UNL     1      56.751  33.774   4.270  0.00  0.00    +0.019 A 
ATOM     38  C   UNL     1      57.219  34.777   5.216  0.00  0.00    +0.120 A 
ATOM     39  N   UNL     1      56.930  36.121   5.001  0.00  0.00    -0.263 NA
ATOM     40  C   UNL     1      56.193  36.566   3.893  0.00  0.00    +0.111 A 
ENDBRANCH   4   3
ENDBRANCH  10   9
BRANCH  12  13
ATOM     13  N   UNL     1      55.174  24.732   3.894  0.00  0.00    -0.281 N 
ATOM     14  C   UNL     1      54.383  23.794   3.251  0.00  0.00    +0.248 C 
ATOM     30  O   UNL     1      54.217  23.743   2.041  0.00  0.00    -0.270 OA
ATOM     31  H   UNL     1      55.072  24.785   4.908  0.00  0.00    +0.155 HD
BRANCH  14  15
ATOM     15  C   UNL     1      53.661  22.774   4.071  0.00  0.00    +0.037 A 
ATOM     16  C   UNL     1      54.390  21.753   4.829  0.00  0.00    +0.013 A 
ATOM     17  C   UNL     1      53.668  20.771   5.598  0.00  0.00    +0.005 A 
ATOM     18  C   UNL     1      52.208  20.806   5.615  0.00  0.00    -0.033 A 
ATOM     28  C   UNL     1      51.510  21.833   4.858  0.00  0.00    +0.005 A 
ATOM     29  C   UNL     1      52.214  22.796   4.102  0.00  0.00    +0.013 A 
BRANCH  18  19
ATOM     19  C   UNL     1      51.355  19.784   6.391  0.00  0.00    +0.119 C 
BRANCH  19  20
ATOM     20  N   UNL     1      51.996  19.103   7.555  0.00  0.00    -0.302 NA
ATOM     21  C   UNL     1      52.437  17.677   7.215  0.00  0.00    +0.066 C 
ATOM     22  C   UNL     1      53.126  16.987   8.437  0.00  0.00    -0.064 C 
ATOM     23  N   UNL     1      52.165  16.987   9.627  0.00  0.00    +0.379 N 
ATOM     24  C   UNL     1      52.788  16.288  10.761  0.00  0.00    -0.096 C 
ATOM     25  H   UNL     1      51.259  16.410   9.330  0.00  0.00    -0.082 HD
ATOM     26  C   UNL     1      51.720  18.402   9.971  0.00  0.00    -0.064 C 
ATOM     27  C   UNL     1      51.063  19.088   8.741  0.00  0.00    +0.066 C 
ENDBRANCH  19  20
ENDBRANCH  18  19
ENDBRANCH  14  15
ENDBRANCH  12  13
TORSDOF 6
ENDMDL
MODEL 3
REMARK VINA RESULT:      -6.5     14.729     17.349
REMARK  Name = C:\Users\Docking\Desktop\test protocol\1iep_ligandH.pdb
REMARK  8 active torsions:
REMARK  status: ('A' for Active; 'I' for Inactive)
REMARK    1  A    between atoms: _5  and  _11
REMARK    2  A    between atoms: _19  and  _21
REMARK    3  A    between atoms: _22  and  _66
REMARK    4  A    between atoms: _27  and  _30
REMARK    5  A    between atoms: _32  and  _33
REMARK    6  A    between atoms: _38  and  _43
REMARK    7  A    between atoms: _43  and  _46
REMARK    8  A    between atoms: _53  and  _55
REMARK                            x       y       z     vdW  Elec       q    Type
REMARK                         _______ _______ _______ _____ _____    ______ ____
ROOT
ATOM     10  C   UNL     1      56.825  28.078   2.635  0.00  0.00    +0.038 A 
ATOM     11  C   UNL     1      55.836  27.237   3.207  0.00  0.00    +0.047 A 
ATOM     12  C   UNL     1      56.018  25.795   3.266  0.00  0.00    +0.035 A 
ATOM     32  C   UNL     1      57.220  25.243   2.736  0.00  0.00    +0.024 A 
ATOM     33  C   UNL     1      58.235  26.083   2.150  0.00  0.00    +0.007 A 
ATOM     34  C   UNL     1      58.061  27.506   2.087  0.00  0.00    -0.029 A 
ATOM     35  C   UNL     1      59.179  28.357   1.442  0.00  0.00    +0.045 C 
ENDROOT
BRANCH  10   9
ATOM      4  C   UNL     1      57.062  32.451   4.599  0.00  0.00    +0.077 A 
ATOM      5  C   UNL     1      57.662  31.944   5.799  0.00  0.00    +0.048 A 
ATOM      6  C   UNL     1      57.887  30.551   5.874  0.00  0.00    +0.116 A 
ATOM      7  N   UNL     1      57.534  29.736   4.821  0.00  0.00    -0.223 NA
ATOM      8  C   UNL     1      56.955  30.257   3.679  0.00  0.00    +0.220 A 
ATOM      9  N   UNL     1      56.599  29.456   2.604  0.00  0.00    -0.283 N 
ATOM     36  H   UNL     1      56.167  29.878   1.782  0.00  0.00    +0.155 HD
ATOM     37  N   UNL     1      56.728  31.583   3.583  0.00  0.00    -0.214 NA
BRANCH   4   3
ATOM      1  C   UNL     1      55.729  35.789   3.055  0.00  0.00    +0.020 A 
ATOM      2  C   UNL     1      55.988  34.378   3.231  0.00  0.00    +0.013 A 
ATOM      3  C   UNL     1      56.764  33.900   4.369  0.00  0.00    +0.019 A 
ATOM     38  C   UNL     1      57.265  34.883   5.318  0.00  0.00    +0.120 A 
ATOM     39  N   UNL     1      57.000  36.234   5.121  0.00  0.00    -0.263 NA
ATOM     40  C   UNL     1      56.257  36.706   4.029  0.00  0.00    +0.111 A 
ENDBRANCH   4   3
ENDBRANCH  10   9
BRANCH  12  13
ATOM     13  N   UNL     1      55.046  24.890   3.827  0.00  0.00    -0.281 N 
ATOM     14  C   UNL     1      54.366  23.866   3.188  0.00  0.00    +0.248 C 
ATOM     30  O   UNL     1      54.334  23.709   1.976  0.00  0.00    -0.270 OA
ATOM     31  H   UNL     1      54.832  25.021   4.816  0.00  0.00    +0.155 HD
BRANCH  14  15
ATOM     15  C   UNL     1      53.600  22.883   4.012  0.00  0.00    +0.037 A 
ATOM     16  C   UNL     1      54.286  21.867   4.815  0.00  0.00    +0.013 A 
ATOM     17  C   UNL     1      53.522  20.919   5.588  0.00  0.00    +0.005 A 
ATOM     18  C   UNL     1      52.063  20.985   5.562  0.00  0.00    -0.033 A 
ATOM     28  C   UNL     1      51.409  22.006   4.762  0.00  0.00    +0.005 A 
ATOM     29  C   UNL     1      52.154  22.936   4.002  0.00  0.00    +0.013 A 
BRANCH  18  19
ATOM     19  C   UNL     1      51.168  20.001   6.339  0.00  0.00    +0.119 C 
BRANCH  19  20
ATOM     20  N   UNL     1      50.679  20.436   7.682  0.00  0.00    -0.302 NA
ATOM     21  C   UNL     1      50.634  19.276   8.680  0.00  0.00    +0.066 C 
ATOM     22  C   UNL     1      50.142  19.753  10.085  0.00  0.00    -0.064 C 
ATOM     23  N   UNL     1      48.763  20.401   9.947  0.00  0.00    +0.379 N 
ATOM     24  C   UNL     1      48.272  20.799  11.274  0.00  0.00    -0.096 C 
ATOM     25  H   UNL     1      48.066  19.630   9.545  0.00  0.00    -0.082 HD
ATOM     26  C   UNL     1      48.798  21.554   8.953  0.00  0.00    -0.064 C 
ATOM     27  C   UNL     1      49.316  21.075   7.569  0.00  0.00    +0.066 C 
ENDBRANCH  19  20
ENDBRANCH  18  19
ENDBRANCH  14  15
ENDBRANCH  12  13
TORSDOF 6
ENDMDL
MODEL 4
REMARK VINA RESULT:      -6.5     29.547     31.011
REMARK  Name = C:\Users\Docking\Desktop\test protocol\1iep_ligandH.pdb
REMARK  8 active torsions:
REMARK  status: ('A' for Active; 'I' for Inactive)
REMARK    1  A    between atoms: _5  and  _11
REMARK    2  A    between atoms: _19  and  _21
REMARK    3  A    between atoms: _22  and  _66
REMARK    4  A    between atoms: _27  and  _30
REMARK    5  A    between atoms: _32  and  _33
REMARK    6  A    between atoms: _38  and  _43
REMARK    7  A    between atoms: _43  and  _46
REMARK    8  A    between atoms: _53  and  _55
REMARK                            x       y       z     vdW  Elec       q    Type
REMARK                         _______ _______ _______ _____ _____    ______ ____
ROOT
ATOM     10  C   UNL     1      54.989  29.507  34.768  0.00  0.00    +0.038 A 
ATOM     11  C   UNL     1      55.693  28.317  35.085  0.00  0.00    +0.047 A 
ATOM     12  C   UNL     1      55.491  27.640  36.357  0.00  0.00    +0.035 A 
ATOM     32  C   UNL     1      54.562  28.201  37.281  0.00  0.00    +0.024 A 
ATOM     33  C   UNL     1      53.839  29.410  36.975  0.00  0.00    +0.007 A 
ATOM     34  C   UNL     1      54.036  30.084  35.724  0.00  0.00    -0.029 A 
ATOM     35  C   UNL     1      53.239  31.381  35.452  0.00  0.00    +0.045 C 
ENDROOT
BRANCH  10   9
ATOM      4  C   UNL     1      53.750  30.500  30.239  0.00  0.00    +0.077 A 
ATOM      5  C   UNL     1      52.550  29.719  30.333  0.00  0.00    +0.048 A 
ATOM      6  C   UNL     1      52.293  29.071  31.562  0.00  0.00    +0.116 A 
ATOM      7  N   UNL     1      53.176  29.203  32.612  0.00  0.00    -0.223 NA
ATOM      8  C   UNL     1      54.324  29.963  32.487  0.00  0.00    +0.220 A 
ATOM      9  N   UNL     1      55.222  30.116  33.532  0.00  0.00    -0.283 N 
ATOM     36  H   UNL     1      56.061  30.679  33.398  0.00  0.00    +0.155 HD
ATOM     37  N   UNL     1      54.593  30.590  31.323  0.00  0.00    -0.214 NA
BRANCH   4   3
ATOM      1  C   UNL     1      54.527  31.422  26.518  0.00  0.00    +0.020 A 
ATOM      2  C   UNL     1      54.121  30.658  27.675  0.00  0.00    +0.013 A 
ATOM      3  C   UNL     1      54.159  31.247  29.007  0.00  0.00    +0.019 A 
ATOM     38  C   UNL     1      54.614  32.623  29.136  0.00  0.00    +0.120 A 
ATOM     39  N   UNL     1      55.000  33.334  28.004  0.00  0.00    -0.263 NA
ATOM     40  C   UNL     1      54.969  32.777  26.716  0.00  0.00    +0.111 A 
ENDBRANCH   4   3
ENDBRANCH  10   9
BRANCH  12  13
ATOM     13  N   UNL     1      56.183  26.434  36.738  0.00  0.00    -0.281 N 
ATOM     14  C   UNL     1      55.681  25.348  37.436  0.00  0.00    +0.248 C 
ATOM     30  O   UNL     1      54.612  25.342  38.028  0.00  0.00    -0.270 OA
ATOM     31  H   UNL     1      57.162  26.373  36.459  0.00  0.00    +0.155 HD
BRANCH  14  15
ATOM     15  C   UNL     1      56.489  24.092  37.498  0.00  0.00    +0.037 A 
ATOM     16  C   UNL     1      57.247  23.619  36.337  0.00  0.00    +0.013 A 
ATOM     17  C   UNL     1      58.004  22.395  36.418  0.00  0.00    +0.005 A 
ATOM     18  C   UNL     1      58.009  21.637  37.667  0.00  0.00    -0.033 A 
ATOM     28  C   UNL     1      57.252  22.132  38.805  0.00  0.00    +0.005 A 
ATOM     29  C   UNL     1      56.508  23.331  38.728  0.00  0.00    +0.013 A 
BRANCH  18  19
ATOM     19  C   UNL     1      58.772  20.310  37.837  0.00  0.00    +0.119 C 
BRANCH  19  20
ATOM     20  N   UNL     1      60.151  20.236  37.268  0.00  0.00    -0.302 NA
ATOM     21  C   UNL     1      60.347  18.994  36.396  0.00  0.00    +0.066 C 
ATOM     22  C   UNL     1      61.788  18.944  35.791  0.00  0.00    -0.064 C 
ATOM     23  N   UNL     1      62.815  18.978  36.925  0.00  0.00    +0.379 N 
ATOM     24  C   UNL     1      64.170  18.874  36.363  0.00  0.00    -0.096 C 
ATOM     25  H   UNL     1      62.643  18.081  37.563  0.00  0.00    -0.082 HD
ATOM     26  C   UNL     1      62.625  20.210  37.799  0.00  0.00    -0.064 C 
ATOM     27  C   UNL     1      61.181  20.264  38.371  0.00  0.00    +0.066 C 
ENDBRANCH  19  20
ENDBRANCH  18  19
ENDBRANCH  14  15
ENDBRANCH  12  13
TORSDOF 6
ENDMDL
MODEL 5
REMARK VINA RESULT:      -6.4     19.070     24.182
REMARK  Name = C:\Users\Docking\Desktop\test protocol\1iep_ligandH.pdb
REMARK  8 active torsions:
REMARK  status: ('A' for Active; 'I' for Inactive)
REMARK    1  A    between atoms: _5  and  _11
REMARK    2  A    between atoms: _19  and  _21
REMARK    3  A    between atoms: _22  and  _66
REMARK    4  A    between atoms: _27  and  _30
REMARK    5  A    between atoms: _32  and  _33
REMARK    6  A    between atoms: _38  and  _43
REMARK    7  A    between atoms: _43  and  _46
REMARK    8  A    between atoms: _53  and  _55
REMARK                            x       y       z     vdW  Elec       q    Type
REMARK                         _______ _______ _______ _____ _____    ______ ____
ROOT
ATOM     10  C   UNL     1      48.658  13.571  16.930  0.00  0.00    +0.038 A 
ATOM     11  C   UNL     1      49.261  14.370  15.926  0.00  0.00    +0.047 A 
ATOM     12  C   UNL     1      50.462  13.929  15.233  0.00  0.00    +0.035 A 
ATOM     32  C   UNL     1      51.021  12.666  15.587  0.00  0.00    +0.024 A 
ATOM     33  C   UNL     1      50.421  11.841  16.606  0.00  0.00    +0.007 A 
ATOM     34  C   UNL     1      49.238  12.272  17.294  0.00  0.00    -0.029 A 
ATOM     35  C   UNL     1      48.641  11.350  18.383  0.00  0.00    +0.045 C 
ENDROOT
BRANCH  10   9
ATOM      4  C   UNL     1      46.427  15.793  20.552  0.00  0.00    +0.077 A 
ATOM      5  C   UNL     1      47.658  16.006  21.257  0.00  0.00    +0.048 A 
ATOM      6  C   UNL     1      48.842  15.523  20.657  0.00  0.00    +0.116 A 
ATOM      7  N   UNL     1      48.788  14.876  19.441  0.00  0.00    -0.223 NA
ATOM      8  C   UNL     1      47.584  14.684  18.789  0.00  0.00    +0.220 A 
ATOM      9  N   UNL     1      47.506  14.043  17.562  0.00  0.00    -0.283 N 
ATOM     36  H   UNL     1      46.598  13.915  17.117  0.00  0.00    +0.155 HD
ATOM     37  N   UNL     1      46.439  15.135  19.342  0.00  0.00    -0.214 NA
BRANCH   4   3
ATOM      1  C   UNL     1      42.951  15.900  22.343  0.00  0.00    +0.020 A 
ATOM      2  C   UNL     1      44.231  15.412  21.882  0.00  0.00    +0.013 A 
ATOM      3  C   UNL     1      45.093  16.248  21.056  0.00  0.00    +0.019 A 
ATOM     38  C   UNL     1      44.628  17.583  20.712  0.00  0.00    +0.120 A 
ATOM     39  N   UNL     1      43.390  18.025  21.169  0.00  0.00    -0.263 NA
ATOM     40  C   UNL     1      42.551  17.229  21.963  0.00  0.00    +0.111 A 
ENDBRANCH   4   3
ENDBRANCH  10   9
BRANCH  12  13
ATOM     13  N   UNL     1      51.124  14.701  14.211  0.00  0.00    -0.281 N 
ATOM     14  C   UNL     1      50.891  14.683  12.845  0.00  0.00    +0.248 C 
ATOM     30  O   UNL     1      50.221  13.839  12.270  0.00  0.00    -0.270 OA
ATOM     31  H   UNL     1      51.852  15.338  14.533  0.00  0.00    +0.155 HD
BRANCH  14  15
ATOM     15  C   UNL     1      51.503  15.749  11.995  0.00  0.00    +0.037 A 
ATOM     16  C   UNL     1      52.551  15.435  11.020  0.00  0.00    +0.013 A 
ATOM     17  C   UNL     1      53.136  16.485  10.224  0.00  0.00    +0.005 A 
ATOM     18  C   UNL     1      52.672  17.859  10.399  0.00  0.00    -0.033 A 
ATOM     28  C   UNL     1      51.627  18.141  11.368  0.00  0.00    +0.005 A 
ATOM     29  C   UNL     1      51.052  17.115  12.151  0.00  0.00    +0.013 A 
BRANCH  18  19
ATOM     19  C   UNL     1      53.255  19.045   9.607  0.00  0.00    +0.119 C 
BRANCH  19  20
ATOM     20  N   UNL     1      52.620  19.369   8.295  0.00  0.00    -0.302 NA
ATOM     21  C   UNL     1      53.633  19.918   7.287  0.00  0.00    +0.066 C 
ATOM     22  C   UNL     1      52.957  20.231   5.912  0.00  0.00    -0.064 C 
ATOM     23  N   UNL     1      51.812  21.223   6.125  0.00  0.00    +0.379 N 
ATOM     24  C   UNL     1      51.211  21.563   4.827  0.00  0.00    -0.096 C 
ATOM     25  H   UNL     1      52.248  22.156   6.551  0.00  0.00    -0.082 HD
ATOM     26  C   UNL     1      50.801  20.686   7.128  0.00  0.00    -0.064 C 
ATOM     27  C   UNL     1      51.489  20.351   8.481  0.00  0.00    +0.066 C 
ENDBRANCH  19  20
ENDBRANCH  18  19
ENDBRANCH  14  15
ENDBRANCH  12  13
TORSDOF 6
ENDMDL
