MODEL 1
REMARK VINA RESULT:      -8.8      0.000      0.000
REMARK  Name = C:\Users\Docking\Desktop\test protocol\1iep_ligandH.pdb
REMARK  8 active torsions:
REMARK  status: ('A' for Active; 'I' for Inactive)
REMARK    1  A    between atoms: _5  and  _11
REMARK    2  A    between atoms: _19  and  _21
REMARK    3  A    between atoms: _22  and  _66
REMARK    4  A    between atoms: _27  and  _30
REMARK    5  A    between atoms: _32  and  _33
REMARK    6  A    between atoms: _38  and  _43
REMARK    7  A    between atoms: _43  and  _46
REMARK    8  A    between atoms: _53  and  _55
REMARK                            x       y       z     vdW  Elec       q    Type
REMARK                         _______ _______ _______ _____ _____    ______ ____
ROOT
ATOM     10  C   UNL     1      20.206  25.044  15.109  0.00  0.00    +0.038 A 
ATOM     11  C   UNL     1      21.584  25.369  15.027  0.00  0.00    +0.047 A 
ATOM     12  C   UNL     1      22.046  26.737  15.205  0.00  0.00    +0.035 A 
ATOM     32  C   UNL     1      21.076  27.749  15.468  0.00  0.00    +0.024 A 
ATOM     33  C   UNL     1      19.672  27.436  15.554  0.00  0.00    +0.007 A 
ATOM     34  C   UNL     1      19.210  26.088  15.377  0.00  0.00    -0.029 A 
ATOM     35  C   UNL     1      17.691  25.812  15.473  0.00  0.00    +0.045 C 
ENDROOT
BRANCH  10   9
ATOM      4  C   UNL     1      18.814  21.376  12.344  0.00  0.00    +0.077 A 
ATOM      5  C   UNL     1      18.835  22.184  11.159  0.00  0.00    +0.048 A 
ATOM      6  C   UNL     1      19.203  23.541  11.305  0.00  0.00    +0.116 A 
ATOM      7  N   UNL     1      19.524  24.041  12.548  0.00  0.00    -0.223 NA
ATOM      8  C   UNL     1      19.491  23.234  13.671  0.00  0.00    +0.220 A 
ATOM      9  N   UNL     1      19.818  23.714  14.930  0.00  0.00    -0.283 N 
ATOM     36  H   UNL     1      19.775  23.089  15.735  0.00  0.00    +0.155 HD
ATOM     37  N   UNL     1      19.142  21.936  13.558  0.00  0.00    -0.214 NA
BRANCH   4   3
ATOM      1  C   UNL     1      18.626  17.570  11.462  0.00  0.00    +0.020 A 
ATOM      2  C   UNL     1      19.011  18.961  11.412  0.00  0.00    +0.013 A 
ATOM      3  C   UNL     1      18.449  19.924  12.351  0.00  0.00    +0.019 A 
ATOM     38  C   UNL     1      17.493  19.442  13.336  0.00  0.00    +0.120 A 
ATOM     39  N   UNL     1      17.139  18.097  13.360  0.00  0.00    -0.263 NA
ATOM     40  C   UNL     1      17.673  17.161  12.460  0.00  0.00    +0.111 A 
ENDBRANCH   4   3
ENDBRANCH  10   9
BRANCH  12  13
ATOM     13  N   UNL     1      23.431  27.129  15.124  0.00  0.00    -0.281 N 
ATOM     14  C   UNL     1      24.355  27.208  16.153  0.00  0.00    +0.248 C 
ATOM     30  O   UNL     1      24.072  27.159  17.341  0.00  0.00    -0.270 OA
ATOM     31  H   UNL     1      23.772  27.378  14.195  0.00  0.00    +0.155 HD
BRANCH  14  15
ATOM     15  C   UNL     1      25.800  27.382  15.814  0.00  0.00    +0.037 A 
ATOM     16  C   UNL     1      26.770  26.309  16.049  0.00  0.00    +0.013 A 
ATOM     17  C   UNL     1      28.161  26.509  15.729  0.00  0.00    +0.005 A 
ATOM     18  C   UNL     1      28.590  27.788  15.169  0.00  0.00    -0.033 A 
ATOM     28  C   UNL     1      27.606  28.833  14.941  0.00  0.00    +0.005 A 
ATOM     29  C   UNL     1      26.242  28.641  15.255  0.00  0.00    +0.013 A 
BRANCH  18  19
ATOM     19  C   UNL     1      30.058  28.097  14.817  0.00  0.00    +0.119 C 
BRANCH  19  20
ATOM     20  N   UNL     1      30.362  28.444  13.397  0.00  0.00    -0.302 NA
ATOM     21  C   UNL     1      31.164  27.344  12.696  0.00  0.00    +0.066 C 
ATOM     22  C   UNL     1      31.454  27.713  11.205  0.00  0.00    -0.064 C 
ATOM     23  N   UNL     1      32.201  29.047  11.149  0.00  0.00    +0.379 N 
ATOM     24  C   UNL     1      32.526  29.369   9.752  0.00  0.00    -0.096 C 
ATOM     25  H   UNL     1      33.162  28.920  11.700  0.00  0.00    -0.082 HD
ATOM     26  C   UNL     1      31.412  30.146  11.846  0.00  0.00    -0.064 C 
ATOM     27  C   UNL     1      31.103  29.756  13.319  0.00  0.00    +0.066 C 
ENDBRANCH  19  20
ENDBRANCH  18  19
ENDBRANCH  14  15
ENDBRANCH  12  13
TORSDOF 6
ENDMDL
MODEL 2
REMARK VINA RESULT:      -8.4      6.918     14.894
REMARK  Name = C:\Users\Docking\Desktop\test protocol\1iep_ligandH.pdb
REMARK  8 active torsions:
REMARK  status: ('A' for Active; 'I' for Inactive)
REMARK    1  A    between atoms: _5  and  _11
REMARK    2  A    between atoms: _19  and  _21
REMARK    3  A    between atoms: _22  and  _66
REMARK    4  A    between atoms: _27  and  _30
REMARK    5  A    between atoms: _32  and  _33
REMARK    6  A    between atoms: _38  and  _43
REMARK    7  A    between atoms: _43  and  _46
REMARK    8  A    between atoms: _53  and  _55
REMARK                            x       y       z     vdW  Elec       q    Type
REMARK                         _______ _______ _______ _____ _____    ______ ____
ROOT
ATOM     10  C   UNL     1      17.455  22.919  14.766  0.00  0.00    +0.038 A 
ATOM     11  C   UNL     1      16.226  23.236  15.399  0.00  0.00    +0.047 A 
ATOM     12  C   UNL     1      14.956  22.814  14.829  0.00  0.00    +0.035 A 
ATOM     32  C   UNL     1      14.974  22.069  13.614  0.00  0.00    +0.024 A 
ATOM     33  C   UNL     1      16.215  21.739  12.957  0.00  0.00    +0.007 A 
ATOM     34  C   UNL     1      17.471  22.154  13.514  0.00  0.00    -0.029 A 
ATOM     35  C   UNL     1      18.769  21.778  12.763  0.00  0.00    +0.045 C 
ENDROOT
BRANCH  10   9
ATOM      4  C   UNL     1      20.776  26.272  15.643  0.00  0.00    +0.077 A 
ATOM      5  C   UNL     1      20.097  27.241  14.832  0.00  0.00    +0.048 A 
ATOM      6  C   UNL     1      18.900  26.834  14.201  0.00  0.00    +0.116 A 
ATOM      7  N   UNL     1      18.426  25.552  14.375  0.00  0.00    -0.223 NA
ATOM      8  C   UNL     1      19.107  24.641  15.162  0.00  0.00    +0.220 A 
ATOM      9  N   UNL     1      18.645  23.349  15.358  0.00  0.00    -0.283 N 
ATOM     36  H   UNL     1      19.180  22.705  15.940  0.00  0.00    +0.155 HD
ATOM     37  N   UNL     1      20.253  25.005  15.774  0.00  0.00    -0.214 NA
BRANCH   4   3
ATOM      1  C   UNL     1      24.527  27.027  16.456  0.00  0.00    +0.020 A 
ATOM      2  C   UNL     1      23.325  26.760  15.700  0.00  0.00    +0.013 A 
ATOM      3  C   UNL     1      22.051  26.551  16.376  0.00  0.00    +0.019 A 
ATOM     38  C   UNL     1      22.027  26.621  17.830  0.00  0.00    +0.120 A 
ATOM     39  N   UNL     1      23.201  26.878  18.531  0.00  0.00    -0.263 NA
ATOM     40  C   UNL     1      24.433  27.079  17.891  0.00  0.00    +0.111 A 
ENDBRANCH   4   3
ENDBRANCH  10   9
BRANCH  12  13
ATOM     13  N   UNL     1      13.676  23.114  15.422  0.00  0.00    -0.281 N 
ATOM     14  C   UNL     1      12.938  22.331  16.295  0.00  0.00    +0.248 C 
ATOM     30  O   UNL     1      13.170  21.155  16.534  0.00  0.00    -0.270 OA
ATOM     31  H   UNL     1      13.263  24.011  15.166  0.00  0.00    +0.155 HD
BRANCH  14  15
ATOM     15  C   UNL     1      11.765  22.939  16.994  0.00  0.00    +0.037 A 
ATOM     16  C   UNL     1      10.445  22.306  16.954  0.00  0.00    +0.013 A 
ATOM     17  C   UNL     1       9.326  22.922  17.623  0.00  0.00    +0.005 A 
ATOM     18  C   UNL     1       9.524  24.180  18.339  0.00  0.00    -0.033 A 
ATOM     28  C   UNL     1      10.846  24.784  18.367  0.00  0.00    +0.005 A 
ATOM     29  C   UNL     1      11.945  24.183  17.712  0.00  0.00    +0.013 A 
BRANCH  18  19
ATOM     19  C   UNL     1       8.383  24.919  19.063  0.00  0.00    +0.119 C 
BRANCH  19  20
ATOM     20  N   UNL     1       8.766  25.883  20.137  0.00  0.00    -0.302 NA
ATOM     21  C   UNL     1       7.811  25.821  21.332  0.00  0.00    +0.066 C 
ATOM     22  C   UNL     1       8.240  26.820  22.456  0.00  0.00    -0.064 C 
ATOM     23  N   UNL     1       8.296  28.236  21.881  0.00  0.00    +0.379 N 
ATOM     24  C   UNL     1       8.642  29.185  22.949  0.00  0.00    -0.096 C 
ATOM     25  H   UNL     1       7.275  28.494  21.517  0.00  0.00    -0.082 HD
ATOM     26  C   UNL     1       9.242  28.306  20.691  0.00  0.00    -0.064 C 
ATOM     27  C   UNL     1       8.824  27.289  19.592  0.00  0.00    +0.066 C 
ENDBRANCH  19  20
ENDBRANCH  18  19
ENDBRANCH  14  15
ENDBRANCH  12  13
TORSDOF 6
ENDMDL
MODEL 3
REMARK VINA RESULT:      -8.4     19.069     24.147
REMARK  Name = C:\Users\Docking\Desktop\test protocol\1iep_ligandH.pdb
REMARK  8 active torsions:
REMARK  status: ('A' for Active; 'I' for Inactive)
REMARK    1  A    between atoms: _5  and  _11
REMARK    2  A    between atoms: _19  and  _21
REMARK    3  A    between atoms: _22  and  _66
REMARK    4  A    between atoms: _27  and  _30
REMARK    5  A    between atoms: _32  and  _33
REMARK    6  A    between atoms: _38  and  _43
REMARK    7  A    between atoms: _43  and  _46
REMARK    8  A    between atoms: _53  and  _55
REMARK                            x       y       z     vdW  Elec       q    Type
REMARK                         _______ _______ _______ _____ _____    ______ ____
ROOT
ATOM     10  C   UNL     1      23.588  40.801  -0.855  0.00  0.00    +0.038 A 
ATOM     11  C   UNL     1      22.267  40.437  -0.491  0.00  0.00    +0.047 A 
ATOM     12  C   UNL     1      21.118  41.185  -0.978  0.00  0.00    +0.035 A 
ATOM     32  C   UNL     1      21.352  42.298  -1.838  0.00  0.00    +0.024 A 
ATOM     33  C   UNL     1      22.689  42.682  -2.218  0.00  0.00    +0.007 A 
ATOM     34  C   UNL     1      23.826  41.949  -1.738  0.00  0.00    -0.029 A 
ATOM     35  C   UNL     1      25.236  42.411  -2.173  0.00  0.00    +0.045 C 
ENDROOT
BRANCH  10   9
ATOM      4  C   UNL     1      27.107  40.023   2.314  0.00  0.00    +0.077 A 
ATOM      5  C   UNL     1      26.815  41.235   3.025  0.00  0.00    +0.048 A 
ATOM      6  C   UNL     1      25.756  42.033   2.538  0.00  0.00    +0.116 A 
ATOM      7  N   UNL     1      25.049  41.640   1.423  0.00  0.00    -0.223 NA
ATOM      8  C   UNL     1      25.357  40.466   0.760  0.00  0.00    +0.220 A 
ATOM      9  N   UNL     1      24.654  40.047  -0.359  0.00  0.00    -0.283 N 
ATOM     36  H   UNL     1      24.917  39.179  -0.824  0.00  0.00    +0.155 HD
ATOM     37  N   UNL     1      26.365  39.687   1.204  0.00  0.00    -0.214 NA
BRANCH   4   3
ATOM      1  C   UNL     1      29.086  36.753   3.145  0.00  0.00    +0.020 A 
ATOM      2  C   UNL     1      28.003  37.628   2.759  0.00  0.00    +0.013 A 
ATOM      3  C   UNL     1      28.194  39.072   2.708  0.00  0.00    +0.019 A 
ATOM     38  C   UNL     1      29.504  39.603   3.055  0.00  0.00    +0.120 A 
ATOM     39  N   UNL     1      30.528  38.736   3.425  0.00  0.00    -0.263 NA
ATOM     40  C   UNL     1      30.355  37.345   3.479  0.00  0.00    +0.111 A 
ENDBRANCH   4   3
ENDBRANCH  10   9
BRANCH  12  13
ATOM     13  N   UNL     1      19.754  40.867  -0.635  0.00  0.00    -0.281 N 
ATOM     14  C   UNL     1      18.727  41.744  -0.328  0.00  0.00    +0.248 C 
ATOM     30  O   UNL     1      18.880  42.933  -0.093  0.00  0.00    -0.270 OA
ATOM     31  H   UNL     1      19.517  39.875  -0.616  0.00  0.00    +0.155 HD
BRANCH  14  15
ATOM     15  C   UNL     1      17.328  41.222  -0.259  0.00  0.00    +0.037 A 
ATOM     16  C   UNL     1      17.058  39.792  -0.086  0.00  0.00    +0.013 A 
ATOM     17  C   UNL     1      15.700  39.313  -0.039  0.00  0.00    +0.005 A 
ATOM     18  C   UNL     1      14.599  40.266  -0.165  0.00  0.00    -0.033 A 
ATOM     28  C   UNL     1      14.895  41.679  -0.331  0.00  0.00    +0.005 A 
ATOM     29  C   UNL     1      16.226  42.152  -0.378  0.00  0.00    +0.013 A 
BRANCH  18  19
ATOM     19  C   UNL     1      13.119  39.841  -0.148  0.00  0.00    +0.119 C 
BRANCH  19  20
ATOM     20  N   UNL     1      12.107  40.900   0.144  0.00  0.00    -0.302 NA
ATOM     21  C   UNL     1      11.171  40.499   1.288  0.00  0.00    +0.066 C 
ATOM     22  C   UNL     1      10.133  41.628   1.596  0.00  0.00    -0.064 C 
ATOM     23  N   UNL     1       9.337  41.943   0.329  0.00  0.00    +0.379 N 
ATOM     24  C   UNL     1       8.321  42.963   0.629  0.00  0.00    -0.096 C 
ATOM     25  H   UNL     1       8.803  41.013   0.025  0.00  0.00    -0.082 HD
ATOM     26  C   UNL     1      10.260  42.339  -0.815  0.00  0.00    -0.064 C 
ATOM     27  C   UNL     1      11.306  41.224  -1.093  0.00  0.00    +0.066 C 
ENDBRANCH  19  20
ENDBRANCH  18  19
ENDBRANCH  14  15
ENDBRANCH  12  13
TORSDOF 6
ENDMDL
MODEL 4
REMARK VINA RESULT:      -8.4      4.058     12.459
REMARK  Name = C:\Users\Docking\Desktop\test protocol\1iep_ligandH.pdb
REMARK  8 active torsions:
REMARK  status: ('A' for Active; 'I' for Inactive)
REMARK    1  A    between atoms: _5  and  _11
REMARK    2  A    between atoms: _19  and  _21
REMARK    3  A    between atoms: _22  and  _66
REMARK    4  A    between atoms: _27  and  _30
REMARK    5  A    between atoms: _32  and  _33
REMARK    6  A    between atoms: _38  and  _43
REMARK    7  A    between atoms: _43  and  _46
REMARK    8  A    between atoms: _53  and  _55
REMARK                            x       y       z     vdW  Elec       q    Type
REMARK                         _______ _______ _______ _____ _____    ______ ____
ROOT
ATOM     10  C   UNL     1      21.251  25.900  14.512  0.00  0.00    +0.038 A 
ATOM     11  C   UNL     1      21.232  24.536  14.123  0.00  0.00    +0.047 A 
ATOM     12  C   UNL     1      19.998  23.890  13.704  0.00  0.00    +0.035 A 
ATOM     32  C   UNL     1      18.801  24.664  13.691  0.00  0.00    +0.024 A 
ATOM     33  C   UNL     1      18.801  26.051  14.085  0.00  0.00    +0.007 A 
ATOM     34  C   UNL     1      20.015  26.693  14.501  0.00  0.00    -0.029 A 
ATOM     35  C   UNL     1      19.956  28.181  14.919  0.00  0.00    +0.045 C 
ENDROOT
BRANCH  10   9
ATOM      4  C   UNL     1      24.390  27.272  17.874  0.00  0.00    +0.077 A 
ATOM      5  C   UNL     1      23.528  26.843  18.938  0.00  0.00    +0.048 A 
ATOM      6  C   UNL     1      22.283  26.281  18.577  0.00  0.00    +0.116 A 
ATOM      7  N   UNL     1      21.936  26.161  17.249  0.00  0.00    -0.223 NA
ATOM      8  C   UNL     1      22.789  26.587  16.248  0.00  0.00    +0.220 A 
ATOM      9  N   UNL     1      22.464  26.469  14.905  0.00  0.00    -0.283 N 
ATOM     36  H   UNL     1      23.117  26.802  14.197  0.00  0.00    +0.155 HD
ATOM     37  N   UNL     1      23.983  27.129  16.566  0.00  0.00    -0.214 NA
BRANCH   4   3
ATOM      1  C   UNL     1      28.060  27.880  19.081  0.00  0.00    +0.020 A 
ATOM      2  C   UNL     1      26.774  27.248  18.900  0.00  0.00    +0.013 A 
ATOM      3  C   UNL     1      25.739  27.883  18.094  0.00  0.00    +0.019 A 
ATOM     38  C   UNL     1      26.040  29.167  17.479  0.00  0.00    +0.120 A 
ATOM     39  N   UNL     1      27.287  29.753  17.672  0.00  0.00    -0.263 NA
ATOM     40  C   UNL     1      28.291  29.152  18.447  0.00  0.00    +0.111 A 
ENDBRANCH   4   3
ENDBRANCH  10   9
BRANCH  12  13
ATOM     13  N   UNL     1      19.916  22.507  13.305  0.00  0.00    -0.281 N 
ATOM     14  C   UNL     1      19.655  21.998  12.043  0.00  0.00    +0.248 C 
ATOM     30  O   UNL     1      19.239  22.660  11.104  0.00  0.00    -0.270 OA
ATOM     31  H   UNL     1      20.069  21.819  14.043  0.00  0.00    +0.155 HD
BRANCH  14  15
ATOM     15  C   UNL     1      19.874  20.541  11.793  0.00  0.00    +0.037 A 
ATOM     16  C   UNL     1      19.250  19.864  10.653  0.00  0.00    +0.013 A 
ATOM     17  C   UNL     1      19.464  18.454  10.444  0.00  0.00    +0.005 A 
ATOM     18  C   UNL     1      20.309  17.712  11.377  0.00  0.00    -0.033 A 
ATOM     28  C   UNL     1      20.919  18.410  12.496  0.00  0.00    +0.005 A 
ATOM     29  C   UNL     1      20.711  19.791  12.705  0.00  0.00    +0.013 A 
BRANCH  18  19
ATOM     19  C   UNL     1      20.575  16.201  11.244  0.00  0.00    +0.119 C 
BRANCH  19  20
ATOM     20  N   UNL     1      20.132  15.326  12.370  0.00  0.00    -0.302 NA
ATOM     21  C   UNL     1      20.400  13.845  12.087  0.00  0.00    +0.066 C 
ATOM     22  C   UNL     1      19.951  12.946  13.285  0.00  0.00    -0.064 C 
ATOM     23  N   UNL     1      18.466  13.183  13.568  0.00  0.00    +0.379 N 
ATOM     24  C   UNL     1      18.027  12.297  14.656  0.00  0.00    -0.096 C 
ATOM     25  H   UNL     1      17.898  12.901  12.651  0.00  0.00    -0.082 HD
ATOM     26  C   UNL     1      18.190  14.654  13.848  0.00  0.00    -0.064 C 
ATOM     27  C   UNL     1      18.667  15.541  12.664  0.00  0.00    +0.066 C 
ENDBRANCH  19  20
ENDBRANCH  18  19
ENDBRANCH  14  15
ENDBRANCH  12  13
TORSDOF 6
ENDMDL
MODEL 5
REMARK VINA RESULT:      -8.3      3.607     12.829
REMARK  Name = C:\Users\Docking\Desktop\test protocol\1iep_ligandH.pdb
REMARK  8 active torsions:
REMARK  status: ('A' for Active; 'I' for Inactive)
REMARK    1  A    between atoms: _5  and  _11
REMARK    2  A    between atoms: _19  and  _21
REMARK    3  A    between atoms: _22  and  _66
REMARK    4  A    between atoms: _27  and  _30
REMARK    5  A    between atoms: _32  and  _33
REMARK    6  A    between atoms: _38  and  _43
REMARK    7  A    between atoms: _43  and  _46
REMARK    8  A    between atoms: _53  and  _55
REMARK                            x       y       z     vdW  Elec       q    Type
REMARK                         _______ _______ _______ _____ _____    ______ ____
ROOT
ATOM     10  C   UNL     1      26.167  28.748  16.067  0.00  0.00    +0.038 A 
ATOM     11  C   UNL     1      25.070  28.052  15.498  0.00  0.00    +0.047 A 
ATOM     12  C   UNL     1      24.489  26.894  16.159  0.00  0.00    +0.035 A 
ATOM     32  C   UNL     1      25.049  26.473  17.400  0.00  0.00    +0.024 A 
ATOM     33  C   UNL     1      26.165  27.168  17.992  0.00  0.00    +0.007 A 
ATOM     34  C   UNL     1      26.744  28.309  17.343  0.00  0.00    -0.029 A 
ATOM     35  C   UNL     1      27.944  29.012  18.021  0.00  0.00    +0.045 C 
ENDROOT
BRANCH  10   9
ATOM      4  C   UNL     1      26.527  33.478  15.337  0.00  0.00    +0.077 A 
ATOM      5  C   UNL     1      25.583  33.770  16.377  0.00  0.00    +0.048 A 
ATOM      6  C   UNL     1      25.021  32.675  17.070  0.00  0.00    +0.116 A 
ATOM      7  N   UNL     1      25.386  31.387  16.741  0.00  0.00    -0.223 NA
ATOM      8  C   UNL     1      26.299  31.140  15.732  0.00  0.00    +0.220 A 
ATOM      9  N   UNL     1      26.686  29.854  15.389  0.00  0.00    -0.283 N 
ATOM     36  H   UNL     1      27.356  29.713  14.634  0.00  0.00    +0.155 HD
ATOM     37  N   UNL     1      26.848  32.169  15.054  0.00  0.00    -0.214 NA
BRANCH   4   3
ATOM      1  C   UNL     1      28.864  36.409  14.219  0.00  0.00    +0.020 A 
ATOM      2  C   UNL     1      28.237  35.411  15.055  0.00  0.00    +0.013 A 
ATOM      3  C   UNL     1      27.209  34.529  14.517  0.00  0.00    +0.019 A 
ATOM     38  C   UNL     1      26.837  34.682  13.118  0.00  0.00    +0.120 A 
ATOM     39  N   UNL     1      27.458  35.653  12.338  0.00  0.00    -0.263 NA
ATOM     40  C   UNL     1      28.447  36.509  12.846  0.00  0.00    +0.111 A 
ENDBRANCH   4   3
ENDBRANCH  10   9
BRANCH  12  13
ATOM     13  N   UNL     1      23.379  26.143  15.625  0.00  0.00    -0.281 N 
ATOM     14  C   UNL     1      22.070  26.563  15.456  0.00  0.00    +0.248 C 
ATOM     30  O   UNL     1      21.604  27.584  15.938  0.00  0.00    -0.270 OA
ATOM     31  H   UNL     1      23.584  25.186  15.338  0.00  0.00    +0.155 HD
BRANCH  14  15
ATOM     15  C   UNL     1      21.140  25.719  14.645  0.00  0.00    +0.037 A 
ATOM     16  C   UNL     1      19.819  26.211  14.247  0.00  0.00    +0.013 A 
ATOM     17  C   UNL     1      18.935  25.370  13.479  0.00  0.00    +0.005 A 
ATOM     18  C   UNL     1      19.372  24.027  13.104  0.00  0.00    -0.033 A 
ATOM     28  C   UNL     1      20.690  23.566  13.508  0.00  0.00    +0.005 A 
ATOM     29  C   UNL     1      21.558  24.387  14.261  0.00  0.00    +0.013 A 
BRANCH  18  19
ATOM     19  C   UNL     1      18.486  23.053  12.304  0.00  0.00    +0.119 C 
BRANCH  19  20
ATOM     20  N   UNL     1      18.763  21.594  12.457  0.00  0.00    -0.302 NA
ATOM     21  C   UNL     1      19.312  20.975  11.168  0.00  0.00    +0.066 C 
ATOM     22  C   UNL     1      19.617  19.452  11.353  0.00  0.00    -0.064 C 
ATOM     23  N   UNL     1      18.346  18.731  11.802  0.00  0.00    +0.379 N 
ATOM     24  C   UNL     1      18.615  17.290  11.921  0.00  0.00    -0.096 C 
ATOM     25  H   UNL     1      17.580  18.867  11.004  0.00  0.00    -0.082 HD
ATOM     26  C   UNL     1      17.792  19.342  13.082  0.00  0.00    -0.064 C 
ATOM     27  C   UNL     1      17.520  20.861  12.896  0.00  0.00    +0.066 C 
ENDBRANCH  19  20
ENDBRANCH  18  19
ENDBRANCH  14  15
ENDBRANCH  12  13
TORSDOF 6
ENDMDL
