MODEL 1
REMARK VINA RESULT:      -7.4      0.000      0.000
REMARK  Name = C:\Users\Docking\Desktop\test protocol\1iep_ligandH.pdb
REMARK  8 active torsions:
REMARK  status: ('A' for Active; 'I' for Inactive)
REMARK    1  A    between atoms: _5  and  _11
REMARK    2  A    between atoms: _19  and  _21
REMARK    3  A    between atoms: _22  and  _66
REMARK    4  A    between atoms: _27  and  _30
REMARK    5  A    between atoms: _32  and  _33
REMARK    6  A    between atoms: _38  and  _43
REMARK    7  A    between atoms: _43  and  _46
REMARK    8  A    between atoms: _53  and  _55
REMARK                            x       y       z     vdW  Elec       q    Type
REMARK                         _______ _______ _______ _____ _____    ______ ____
ROOT
ATOM     10  C   UNL     1      12.379  -4.545   3.854  0.00  0.00    +0.038 A 
ATOM     11  C   UNL     1      12.049  -3.287   3.289  0.00  0.00    +0.047 A 
ATOM     12  C   UNL     1      12.632  -2.851   2.030  0.00  0.00    +0.035 A 
ATOM     32  C   UNL     1      13.546  -3.723   1.371  0.00  0.00    +0.024 A 
ATOM     33  C   UNL     1      13.894  -5.006   1.931  0.00  0.00    +0.007 A 
ATOM     34  C   UNL     1      13.324  -5.440   3.174  0.00  0.00    -0.029 A 
ATOM     35  C   UNL     1      13.737  -6.822   3.732  0.00  0.00    +0.045 C 
ENDROOT
BRANCH  10   9
ATOM      4  C   UNL     1       8.751  -6.366   6.415  0.00  0.00    +0.077 A 
ATOM      5  C   UNL     1       7.952  -6.577   5.243  0.00  0.00    +0.048 A 
ATOM      6  C   UNL     1       8.508  -6.197   4.001  0.00  0.00    +0.116 A 
ATOM      7  N   UNL     1       9.771  -5.648   3.947  0.00  0.00    -0.223 NA
ATOM      8  C   UNL     1      10.514  -5.456   5.097  0.00  0.00    +0.220 A 
ATOM      9  N   UNL     1      11.790  -4.913   5.066  0.00  0.00    -0.283 N 
ATOM     36  H   UNL     1      12.303  -4.780   5.937  0.00  0.00    +0.155 HD
ATOM     37  N   UNL     1      10.005  -5.809   6.296  0.00  0.00    -0.214 NA
BRANCH   4   3
ATOM      1  C   UNL     1       8.721  -7.583  10.133  0.00  0.00    +0.020 A 
ATOM      2  C   UNL     1       9.204  -7.259   8.810  0.00  0.00    +0.013 A 
ATOM      3  C   UNL     1       8.303  -6.719   7.800  0.00  0.00    +0.019 A 
ATOM     38  C   UNL     1       6.909  -6.516   8.163  0.00  0.00    +0.120 A 
ATOM     39  N   UNL     1       6.472  -6.839   9.444  0.00  0.00    -0.263 NA
ATOM     40  C   UNL     1       7.329  -7.361  10.424  0.00  0.00    +0.111 A 
ENDBRANCH   4   3
ENDBRANCH  10   9
BRANCH  12  13
ATOM     13  N   UNL     1      12.341  -1.581   1.412  0.00  0.00    -0.281 N 
ATOM     14  C   UNL     1      11.250  -1.246   0.627  0.00  0.00    +0.248 C 
ATOM     30  O   UNL     1      10.462  -2.054   0.157  0.00  0.00    -0.270 OA
ATOM     31  H   UNL     1      13.021  -0.838   1.574  0.00  0.00    +0.155 HD
BRANCH  14  15
ATOM     15  C   UNL     1      11.007   0.193   0.304  0.00  0.00    +0.037 A 
ATOM     16  C   UNL     1      10.164   0.586  -0.828  0.00  0.00    +0.013 A 
ATOM     17  C   UNL     1       9.960   1.981  -1.127  0.00  0.00    +0.005 A 
ATOM     18  C   UNL     1      10.599   2.994  -0.291  0.00  0.00    -0.033 A 
ATOM     28  C   UNL     1      11.426   2.577   0.829  0.00  0.00    +0.005 A 
ATOM     29  C   UNL     1      11.629   1.210   1.125  0.00  0.00    +0.013 A 
BRANCH  18  19
ATOM     19  C   UNL     1      10.454   4.506  -0.550  0.00  0.00    +0.119 C 
BRANCH  19  20
ATOM     20  N   UNL     1       9.197   4.969  -1.211  0.00  0.00    -0.302 NA
ATOM     21  C   UNL     1       9.448   6.141  -2.164  0.00  0.00    +0.066 C 
ATOM     22  C   UNL     1       8.127   6.598  -2.864  0.00  0.00    -0.064 C 
ATOM     23  N   UNL     1       7.094   6.975  -1.800  0.00  0.00    +0.379 N 
ATOM     24  C   UNL     1       5.870   7.460  -2.455  0.00  0.00    -0.096 C 
ATOM     25  H   UNL     1       7.515   7.818  -1.204  0.00  0.00    -0.082 HD
ATOM     26  C   UNL     1       6.841   5.816  -0.847  0.00  0.00    -0.064 C 
ATOM     27  C   UNL     1       8.165   5.351  -0.179  0.00  0.00    +0.066 C 
ENDBRANCH  19  20
ENDBRANCH  18  19
ENDBRANCH  14  15
ENDBRANCH  12  13
TORSDOF 6
ENDMDL
MODEL 2
REMARK VINA RESULT:      -7.4      5.001      7.135
REMARK  Name = C:\Users\Docking\Desktop\test protocol\1iep_ligandH.pdb
REMARK  8 active torsions:
REMARK  status: ('A' for Active; 'I' for Inactive)
REMARK    1  A    between atoms: _5  and  _11
REMARK    2  A    between atoms: _19  and  _21
REMARK    3  A    between atoms: _22  and  _66
REMARK    4  A    between atoms: _27  and  _30
REMARK    5  A    between atoms: _32  and  _33
REMARK    6  A    between atoms: _38  and  _43
REMARK    7  A    between atoms: _43  and  _46
REMARK    8  A    between atoms: _53  and  _55
REMARK                            x       y       z     vdW  Elec       q    Type
REMARK                         _______ _______ _______ _____ _____    ______ ____
ROOT
ATOM     10  C   UNL     1       9.148  -5.590   3.378  0.00  0.00    +0.038 A 
ATOM     11  C   UNL     1      10.257  -4.716   3.242  0.00  0.00    +0.047 A 
ATOM     12  C   UNL     1      11.029  -4.665   2.010  0.00  0.00    +0.035 A 
ATOM     32  C   UNL     1      10.641  -5.517   0.934  0.00  0.00    +0.024 A 
ATOM     33  C   UNL     1       9.518  -6.412   1.056  0.00  0.00    +0.007 A 
ATOM     34  C   UNL     1       8.754  -6.468   2.270  0.00  0.00    -0.029 A 
ATOM     35  C   UNL     1       7.563  -7.452   2.346  0.00  0.00    +0.045 C 
ENDROOT
BRANCH  10   9
ATOM      4  C   UNL     1       8.491  -7.093   7.888  0.00  0.00    +0.077 A 
ATOM      5  C   UNL     1       9.634  -7.957   7.829  0.00  0.00    +0.048 A 
ATOM      6  C   UNL     1      10.361  -7.991   6.618  0.00  0.00    +0.116 A 
ATOM      7  N   UNL     1       9.964  -7.214   5.551  0.00  0.00    -0.223 NA
ATOM      8  C   UNL     1       8.855  -6.393   5.640  0.00  0.00    +0.220 A 
ATOM      9  N   UNL     1       8.443  -5.597   4.583  0.00  0.00    -0.283 N 
ATOM     36  H   UNL     1       7.615  -5.010   4.686  0.00  0.00    +0.155 HD
ATOM     37  N   UNL     1       8.144  -6.344   6.786  0.00  0.00    -0.214 NA
BRANCH   4   3
ATOM      1  C   UNL     1       7.070  -7.389  11.521  0.00  0.00    +0.020 A 
ATOM      2  C   UNL     1       7.941  -7.563  10.381  0.00  0.00    +0.013 A 
ATOM      3  C   UNL     1       7.624  -6.945   9.100  0.00  0.00    +0.019 A 
ATOM     38  C   UNL     1       6.409  -6.150   9.005  0.00  0.00    +0.120 A 
ATOM     39  N   UNL     1       5.589  -6.001  10.119  0.00  0.00    -0.263 NA
ATOM     40  C   UNL     1       5.883  -6.592  11.356  0.00  0.00    +0.111 A 
ENDBRANCH   4   3
ENDBRANCH  10   9
BRANCH  12  13
ATOM     13  N   UNL     1      12.169  -3.804   1.816  0.00  0.00    -0.281 N 
ATOM     14  C   UNL     1      12.177  -2.434   1.616  0.00  0.00    +0.248 C 
ATOM     30  O   UNL     1      11.186  -1.767   1.358  0.00  0.00    -0.270 OA
ATOM     31  H   UNL     1      13.081  -4.261   1.829  0.00  0.00    +0.155 HD
BRANCH  14  15
ATOM     15  C   UNL     1      13.476  -1.699   1.700  0.00  0.00    +0.037 A 
ATOM     16  C   UNL     1      13.739  -0.523   0.867  0.00  0.00    +0.013 A 
ATOM     17  C   UNL     1      15.007   0.157   0.955  0.00  0.00    +0.005 A 
ATOM     18  C   UNL     1      16.022  -0.338   1.882  0.00  0.00    -0.033 A 
ATOM     28  C   UNL     1      15.733  -1.504   2.700  0.00  0.00    +0.005 A 
ATOM     29  C   UNL     1      14.492  -2.174   2.615  0.00  0.00    +0.013 A 
BRANCH  18  19
ATOM     19  C   UNL     1      17.411   0.312   2.027  0.00  0.00    +0.119 C 
BRANCH  19  20
ATOM     20  N   UNL     1      17.994   0.380   3.400  0.00  0.00    -0.302 NA
ATOM     21  C   UNL     1      17.918   1.792   3.987  0.00  0.00    +0.066 C 
ATOM     22  C   UNL     1      18.513   1.840   5.433  0.00  0.00    -0.064 C 
ATOM     23  N   UNL     1      19.959   1.343   5.403  0.00  0.00    +0.379 N 
ATOM     24  C   UNL     1      20.539   1.441   6.751  0.00  0.00    -0.096 C 
ATOM     25  H   UNL     1      20.537   2.023   4.735  0.00  0.00    -0.082 HD
ATOM     26  C   UNL     1      20.044  -0.060   4.818  0.00  0.00    -0.064 C 
ATOM     27  C   UNL     1      19.424  -0.103   3.393  0.00  0.00    +0.066 C 
ENDBRANCH  19  20
ENDBRANCH  18  19
ENDBRANCH  14  15
ENDBRANCH  12  13
TORSDOF 6
ENDMDL
MODEL 3
REMARK VINA RESULT:      -7.1      7.852     14.101
REMARK  Name = C:\Users\Docking\Desktop\test protocol\1iep_ligandH.pdb
REMARK  8 active torsions:
REMARK  status: ('A' for Active; 'I' for Inactive)
REMARK    1  A    between atoms: _5  and  _11
REMARK    2  A    between atoms: _19  and  _21
REMARK    3  A    between atoms: _22  and  _66
REMARK    4  A    between atoms: _27  and  _30
REMARK    5  A    between atoms: _32  and  _33
REMARK    6  A    between atoms: _38  and  _43
REMARK    7  A    between atoms: _43  and  _46
REMARK    8  A    between atoms: _53  and  _55
REMARK                            x       y       z     vdW  Elec       q    Type
REMARK                         _______ _______ _______ _____ _____    ______ ____
ROOT
ATOM     10  C   UNL     1      17.840   0.801   2.840  0.00  0.00    +0.038 A 
ATOM     11  C   UNL     1      18.495  -0.085   3.732  0.00  0.00    +0.047 A 
ATOM     12  C   UNL     1      19.910   0.062   4.035  0.00  0.00    +0.035 A 
ATOM     32  C   UNL     1      20.628   1.124   3.412  0.00  0.00    +0.024 A 
ATOM     33  C   UNL     1      19.978   2.033   2.501  0.00  0.00    +0.007 A 
ATOM     34  C   UNL     1      18.583   1.892   2.197  0.00  0.00    -0.029 A 
ATOM     35  C   UNL     1      17.940   2.892   1.208  0.00  0.00    +0.045 C 
ENDROOT
BRANCH  10   9
ATOM      4  C   UNL     1      14.169  -1.774   1.129  0.00  0.00    +0.077 A 
ATOM      5  C   UNL     1      15.037  -2.824   0.680  0.00  0.00    +0.048 A 
ATOM      6  C   UNL     1      16.423  -2.659   0.902  0.00  0.00    +0.116 A 
ATOM      7  N   UNL     1      16.894  -1.525   1.528  0.00  0.00    -0.223 NA
ATOM      8  C   UNL     1      16.029  -0.531   1.947  0.00  0.00    +0.220 A 
ATOM      9  N   UNL     1      16.480   0.614   2.585  0.00  0.00    -0.283 N 
ATOM     36  H   UNL     1      15.810   1.328   2.872  0.00  0.00    +0.155 HD
ATOM     37  N   UNL     1      14.701  -0.664   1.745  0.00  0.00    -0.214 NA
BRANCH   4   3
ATOM      1  C   UNL     1      10.332  -1.512   1.843  0.00  0.00    +0.020 A 
ATOM      2  C   UNL     1      11.761  -1.468   2.049  0.00  0.00    +0.013 A 
ATOM      3  C   UNL     1      12.680  -1.804   0.969  0.00  0.00    +0.019 A 
ATOM     38  C   UNL     1      12.117  -2.182  -0.318  0.00  0.00    +0.120 A 
ATOM     39  N   UNL     1      10.736  -2.216  -0.487  0.00  0.00    -0.263 NA
ATOM     40  C   UNL     1       9.842  -1.897   0.546  0.00  0.00    +0.111 A 
ENDBRANCH   4   3
ENDBRANCH  10   9
BRANCH  12  13
ATOM     13  N   UNL     1      20.631  -0.812   4.927  0.00  0.00    -0.281 N 
ATOM     14  C   UNL     1      20.810  -0.675   6.294  0.00  0.00    +0.248 C 
ATOM     30  O   UNL     1      20.555   0.340   6.926  0.00  0.00    -0.270 OA
ATOM     31  H   UNL     1      21.062  -1.632   4.499  0.00  0.00    +0.155 HD
BRANCH  14  15
ATOM     15  C   UNL     1      21.365  -1.826   7.069  0.00  0.00    +0.037 A 
ATOM     16  C   UNL     1      21.810  -3.050   6.398  0.00  0.00    +0.013 A 
ATOM     17  C   UNL     1      22.326  -4.152   7.171  0.00  0.00    +0.005 A 
ATOM     18  C   UNL     1      22.399  -4.034   8.625  0.00  0.00    -0.033 A 
ATOM     28  C   UNL     1      21.955  -2.807   9.265  0.00  0.00    +0.005 A 
ATOM     29  C   UNL     1      21.448  -1.725   8.510  0.00  0.00    +0.013 A 
BRANCH  18  19
ATOM     19  C   UNL     1      22.916  -5.168   9.531  0.00  0.00    +0.119 C 
BRANCH  19  20
ATOM     20  N   UNL     1      22.324  -6.525   9.332  0.00  0.00    -0.302 NA
ATOM     21  C   UNL     1      20.794  -6.498   9.390  0.00  0.00    +0.066 C 
ATOM     22  C   UNL     1      20.191  -7.922   9.159  0.00  0.00    -0.064 C 
ATOM     23  N   UNL     1      20.756  -8.888  10.202  0.00  0.00    +0.379 N 
ATOM     24  C   UNL     1      20.147 -10.214  10.023  0.00  0.00    -0.096 C 
ATOM     25  H   UNL     1      20.457  -8.511  11.207  0.00  0.00    -0.082 HD
ATOM     26  C   UNL     1      22.277  -8.918  10.153  0.00  0.00    -0.064 C 
ATOM     27  C   UNL     1      22.865  -7.494  10.355  0.00  0.00    +0.066 C 
ENDBRANCH  19  20
ENDBRANCH  18  19
ENDBRANCH  14  15
ENDBRANCH  12  13
TORSDOF 6
ENDMDL
MODEL 4
REMARK VINA RESULT:      -7.0     17.544     20.292
REMARK  Name = C:\Users\Docking\Desktop\test protocol\1iep_ligandH.pdb
REMARK  8 active torsions:
REMARK  status: ('A' for Active; 'I' for Inactive)
REMARK    1  A    between atoms: _5  and  _11
REMARK    2  A    between atoms: _19  and  _21
REMARK    3  A    between atoms: _22  and  _66
REMARK    4  A    between atoms: _27  and  _30
REMARK    5  A    between atoms: _32  and  _33
REMARK    6  A    between atoms: _38  and  _43
REMARK    7  A    between atoms: _43  and  _46
REMARK    8  A    between atoms: _53  and  _55
REMARK                            x       y       z     vdW  Elec       q    Type
REMARK                         _______ _______ _______ _____ _____    ______ ____
ROOT
ATOM     10  C   UNL     1       3.796   6.834  21.495  0.00  0.00    +0.038 A 
ATOM     11  C   UNL     1       3.593   7.884  20.563  0.00  0.00    +0.047 A 
ATOM     12  C   UNL     1       2.955   9.129  20.960  0.00  0.00    +0.035 A 
ATOM     32  C   UNL     1       2.539   9.273  22.315  0.00  0.00    +0.024 A 
ATOM     33  C   UNL     1       2.736   8.216  23.275  0.00  0.00    +0.007 A 
ATOM     34  C   UNL     1       3.362   6.984  22.889  0.00  0.00    -0.029 A 
ATOM     35  C   UNL     1       3.542   5.882  23.959  0.00  0.00    +0.045 C 
ENDROOT
BRANCH  10   9
ATOM      4  C   UNL     1       3.642   2.393  19.679  0.00  0.00    +0.077 A 
ATOM      5  C   UNL     1       2.209   2.405  19.618  0.00  0.00    +0.048 A 
ATOM      6  C   UNL     1       1.549   3.569  20.070  0.00  0.00    +0.116 A 
ATOM      7  N   UNL     1       2.278   4.638  20.545  0.00  0.00    -0.223 NA
ATOM      8  C   UNL     1       3.660   4.594  20.593  0.00  0.00    +0.220 A 
ATOM      9  N   UNL     1       4.414   5.659  21.060  0.00  0.00    -0.283 N 
ATOM     36  H   UNL     1       5.430   5.585  21.085  0.00  0.00    +0.155 HD
ATOM     37  N   UNL     1       4.313   3.492  20.168  0.00  0.00    -0.214 NA
BRANCH   4   3
ATOM      1  C   UNL     1       6.299   0.205  17.820  0.00  0.00    +0.020 A 
ATOM      2  C   UNL     1       5.514   1.353  18.212  0.00  0.00    +0.013 A 
ATOM      3  C   UNL     1       4.483   1.237  19.236  0.00  0.00    +0.019 A 
ATOM     38  C   UNL     1       4.270  -0.066  19.848  0.00  0.00    +0.120 A 
ATOM     39  N   UNL     1       5.040  -1.154  19.449  0.00  0.00    -0.263 NA
ATOM     40  C   UNL     1       6.033  -1.054  18.464  0.00  0.00    +0.111 A 
ENDBRANCH   4   3
ENDBRANCH  10   9
BRANCH  12  13
ATOM     13  N   UNL     1       2.716  10.227  20.056  0.00  0.00    -0.281 N 
ATOM     14  C   UNL     1       3.629  11.154  19.581  0.00  0.00    +0.248 C 
ATOM     30  O   UNL     1       4.754  11.309  20.032  0.00  0.00    -0.270 OA
ATOM     31  H   UNL     1       1.756  10.333  19.726  0.00  0.00    +0.155 HD
BRANCH  14  15
ATOM     15  C   UNL     1       3.229  12.048  18.451  0.00  0.00    +0.037 A 
ATOM     16  C   UNL     1       4.202  12.928  17.798  0.00  0.00    +0.013 A 
ATOM     17  C   UNL     1       3.786  13.793  16.722  0.00  0.00    +0.005 A 
ATOM     18  C   UNL     1       2.390  13.780  16.292  0.00  0.00    -0.033 A 
ATOM     28  C   UNL     1       1.448  12.893  16.953  0.00  0.00    +0.005 A 
ATOM     29  C   UNL     1       1.851  12.045  18.009  0.00  0.00    +0.013 A 
BRANCH  18  19
ATOM     19  C   UNL     1       1.854  14.684  15.166  0.00  0.00    +0.119 C 
BRANCH  19  20
ATOM     20  N   UNL     1       0.965  14.052  14.146  0.00  0.00    -0.302 NA
ATOM     21  C   UNL     1       1.619  12.831  13.492  0.00  0.00    +0.066 C 
ATOM     22  C   UNL     1       0.667  12.169  12.444  0.00  0.00    -0.064 C 
ATOM     23  N   UNL     1       0.276  13.204  11.388  0.00  0.00    +0.379 N 
ATOM     24  C   UNL     1      -0.573  12.570  10.369  0.00  0.00    -0.096 C 
ATOM     25  H   UNL     1       1.211  13.545  10.886  0.00  0.00    -0.082 HD
ATOM     26  C   UNL     1      -0.373  14.422  12.030  0.00  0.00    -0.064 C 
ATOM     27  C   UNL     1       0.570  15.056  13.091  0.00  0.00    +0.066 C 
ENDBRANCH  19  20
ENDBRANCH  18  19
ENDBRANCH  14  15
ENDBRANCH  12  13
TORSDOF 6
ENDMDL
MODEL 5
REMARK VINA RESULT:      -7.0     23.250     25.970
REMARK  Name = C:\Users\Docking\Desktop\test protocol\1iep_ligandH.pdb
REMARK  8 active torsions:
REMARK  status: ('A' for Active; 'I' for Inactive)
REMARK    1  A    between atoms: _5  and  _11
REMARK    2  A    between atoms: _19  and  _21
REMARK    3  A    between atoms: _22  and  _66
REMARK    4  A    between atoms: _27  and  _30
REMARK    5  A    between atoms: _32  and  _33
REMARK    6  A    between atoms: _38  and  _43
REMARK    7  A    between atoms: _43  and  _46
REMARK    8  A    between atoms: _53  and  _55
REMARK                            x       y       z     vdW  Elec       q    Type
REMARK                         _______ _______ _______ _____ _____    ______ ____
ROOT
ATOM     10  C   UNL     1      22.193  14.735  17.380  0.00  0.00    +0.038 A 
ATOM     11  C   UNL     1      21.060  15.567  17.564  0.00  0.00    +0.047 A 
ATOM     12  C   UNL     1      20.919  16.395  18.752  0.00  0.00    +0.035 A 
ATOM     32  C   UNL     1      21.953  16.352  19.732  0.00  0.00    +0.024 A 
ATOM     33  C   UNL     1      23.111  15.511  19.562  0.00  0.00    +0.007 A 
ATOM     34  C   UNL     1      23.255  14.690  18.393  0.00  0.00    -0.029 A 
ATOM     35  C   UNL     1      24.515  13.802  18.267  0.00  0.00    +0.045 C 
ENDROOT
BRANCH  10   9
ATOM      4  C   UNL     1      23.337  14.150  12.756  0.00  0.00    +0.077 A 
ATOM      5  C   UNL     1      23.779  15.509  12.632  0.00  0.00    +0.048 A 
ATOM      6  C   UNL     1      23.689  16.327  13.780  0.00  0.00    +0.116 A 
ATOM      7  N   UNL     1      23.193  15.814  14.959  0.00  0.00    -0.223 NA
ATOM      8  C   UNL     1      22.773  14.500  15.044  0.00  0.00    +0.220 A 
ATOM      9  N   UNL     1      22.277  13.961  16.221  0.00  0.00    -0.283 N 
ATOM     36  H   UNL     1      21.971  12.988  16.240  0.00  0.00    +0.155 HD
ATOM     37  N   UNL     1      22.847  13.698  13.961  0.00  0.00    -0.214 NA
BRANCH   4   3
ATOM      1  C   UNL     1      22.270  11.531  10.053  0.00  0.00    +0.020 A 
ATOM      2  C   UNL     1      22.182  12.477  11.141  0.00  0.00    +0.013 A 
ATOM      3  C   UNL     1      23.372  13.160  11.633  0.00  0.00    +0.019 A 
ATOM     38  C   UNL     1      24.646  12.861  10.996  0.00  0.00    +0.120 A 
ATOM     39  N   UNL     1      24.700  11.944   9.951  0.00  0.00    -0.263 NA
ATOM     40  C   UNL     1      23.562  11.280   9.471  0.00  0.00    +0.111 A 
ENDBRANCH   4   3
ENDBRANCH  10   9
BRANCH  12  13
ATOM     13  N   UNL     1      19.787  17.254  18.997  0.00  0.00    -0.281 N 
ATOM     14  C   UNL     1      19.433  18.410  18.320  0.00  0.00    +0.248 C 
ATOM     30  O   UNL     1      20.158  19.000  17.533  0.00  0.00    -0.270 OA
ATOM     31  H   UNL     1      19.172  16.977  19.762  0.00  0.00    +0.155 HD
BRANCH  14  15
ATOM     15  C   UNL     1      18.083  19.003  18.563  0.00  0.00    +0.037 A 
ATOM     16  C   UNL     1      17.327  18.700  19.780  0.00  0.00    +0.013 A 
ATOM     17  C   UNL     1      16.019  19.273  19.981  0.00  0.00    +0.005 A 
ATOM     18  C   UNL     1      15.460  20.157  18.962  0.00  0.00    -0.033 A 
ATOM     28  C   UNL     1      16.234  20.445  17.766  0.00  0.00    +0.005 A 
ATOM     29  C   UNL     1      17.515  19.885  17.565  0.00  0.00    +0.013 A 
BRANCH  18  19
ATOM     19  C   UNL     1      14.064  20.796  19.083  0.00  0.00    +0.119 C 
BRANCH  19  20
ATOM     20  N   UNL     1      12.890  19.949  18.715  0.00  0.00    -0.302 NA
ATOM     21  C   UNL     1      13.046  18.507  19.206  0.00  0.00    +0.066 C 
ATOM     22  C   UNL     1      11.799  17.640  18.832  0.00  0.00    -0.064 C 
ATOM     23  N   UNL     1      11.592  17.677  17.317  0.00  0.00    +0.379 N 
ATOM     24  C   UNL     1      10.455  16.817  16.956  0.00  0.00    -0.096 C 
ATOM     25  H   UNL     1      12.505  17.250  16.840  0.00  0.00    -0.082 HD
ATOM     26  C   UNL     1      11.439  19.108  16.820  0.00  0.00    -0.064 C 
ATOM     27  C   UNL     1      12.670  19.967  17.222  0.00  0.00    +0.066 C 
ENDBRANCH  19  20
ENDBRANCH  18  19
ENDBRANCH  14  15
ENDBRANCH  12  13
TORSDOF 6
ENDMDL
