MODEL 1
REMARK VINA RESULT:      -8.5      0.000      0.000
REMARK  Name = C:\Users\Docking\Desktop\test protocol\1iep_ligandH.pdb
REMARK  8 active torsions:
REMARK  status: ('A' for Active; 'I' for Inactive)
REMARK    1  A    between atoms: _5  and  _11
REMARK    2  A    between atoms: _19  and  _21
REMARK    3  A    between atoms: _22  and  _66
REMARK    4  A    between atoms: _27  and  _30
REMARK    5  A    between atoms: _32  and  _33
REMARK    6  A    between atoms: _38  and  _43
REMARK    7  A    between atoms: _43  and  _46
REMARK    8  A    between atoms: _53  and  _55
REMARK                            x       y       z     vdW  Elec       q    Type
REMARK                         _______ _______ _______ _____ _____    ______ ____
ROOT
ATOM     10  C   UNL     1      -5.105  -3.449 -13.767  0.00  0.00    +0.038 A 
ATOM     11  C   UNL     1      -4.940  -3.642 -15.163  0.00  0.00    +0.047 A 
ATOM     12  C   UNL     1      -3.691  -4.149 -15.710  0.00  0.00    +0.035 A 
ATOM     32  C   UNL     1      -2.631  -4.450 -14.806  0.00  0.00    +0.024 A 
ATOM     33  C   UNL     1      -2.781  -4.258 -13.385  0.00  0.00    +0.007 A 
ATOM     34  C   UNL     1      -4.010  -3.757 -12.840  0.00  0.00    -0.029 A 
ATOM     35  C   UNL     1      -4.113  -3.565 -11.309  0.00  0.00    +0.045 C 
ENDROOT
BRANCH  10   9
ATOM      4  C   UNL     1      -7.879   0.079 -12.065  0.00  0.00    +0.077 A 
ATOM      5  C   UNL     1      -6.798   1.022 -12.091  0.00  0.00    +0.048 A 
ATOM      6  C   UNL     1      -5.542   0.557 -12.541  0.00  0.00    +0.116 A 
ATOM      7  N   UNL     1      -5.391  -0.755 -12.936  0.00  0.00    -0.223 NA
ATOM      8  C   UNL     1      -6.454  -1.638 -12.898  0.00  0.00    +0.220 A 
ATOM      9  N   UNL     1      -6.326  -2.960 -13.297  0.00  0.00    -0.283 N 
ATOM     36  H   UNL     1      -7.133  -3.582 -13.247  0.00  0.00    +0.155 HD
ATOM     37  N   UNL     1      -7.663  -1.219 -12.470  0.00  0.00    -0.214 NA
BRANCH   4   3
ATOM      1  C   UNL     1     -10.900   1.587 -10.089  0.00  0.00    +0.020 A 
ATOM      2  C   UNL     1      -9.541   1.289 -10.480  0.00  0.00    +0.013 A 
ATOM      3  C   UNL     1      -9.267   0.420 -11.618  0.00  0.00    +0.019 A 
ATOM     38  C   UNL     1     -10.398  -0.135 -12.345  0.00  0.00    +0.120 A 
ATOM     39  N   UNL     1     -11.696   0.168 -11.944  0.00  0.00    -0.263 NA
ATOM     40  C   UNL     1     -11.972   1.002 -10.850  0.00  0.00    +0.111 A 
ENDBRANCH   4   3
ENDBRANCH  10   9
BRANCH  12  13
ATOM     13  N   UNL     1      -3.462  -4.358 -17.118  0.00  0.00    -0.281 N 
ATOM     14  C   UNL     1      -3.322  -5.562 -17.788  0.00  0.00    +0.248 C 
ATOM     30  O   UNL     1      -3.159  -6.642 -17.241  0.00  0.00    -0.270 OA
ATOM     31  H   UNL     1      -3.396  -3.516 -17.690  0.00  0.00    +0.155 HD
BRANCH  14  15
ATOM     15  C   UNL     1      -3.354  -5.564 -19.282  0.00  0.00    +0.037 A 
ATOM     16  C   UNL     1      -2.791  -4.455 -20.056  0.00  0.00    +0.013 A 
ATOM     17  C   UNL     1      -2.850  -4.475 -21.497  0.00  0.00    +0.005 A 
ATOM     18  C   UNL     1      -3.474  -5.609 -22.172  0.00  0.00    -0.033 A 
ATOM     28  C   UNL     1      -4.021  -6.699 -21.380  0.00  0.00    +0.005 A 
ATOM     29  C   UNL     1      -3.966  -6.682 -19.968  0.00  0.00    +0.013 A 
BRANCH  18  19
ATOM     19  C   UNL     1      -3.601  -5.704 -23.704  0.00  0.00    +0.119 C 
BRANCH  19  20
ATOM     20  N   UNL     1      -2.720  -6.687 -24.404  0.00  0.00    -0.302 NA
ATOM     21  C   UNL     1      -1.237  -6.427 -24.129  0.00  0.00    +0.066 C 
ATOM     22  C   UNL     1      -0.331  -7.478 -24.850  0.00  0.00    -0.064 C 
ATOM     23  N   UNL     1      -0.617  -7.449 -26.352  0.00  0.00    +0.379 N 
ATOM     24  C   UNL     1       0.273  -8.395 -27.040  0.00  0.00    -0.096 C 
ATOM     25  H   UNL     1      -0.375  -6.426 -26.722  0.00  0.00    -0.082 HD
ATOM     26  C   UNL     1      -2.091  -7.704 -26.634  0.00  0.00    -0.064 C 
ATOM     27  C   UNL     1      -2.983  -6.672 -25.889  0.00  0.00    +0.066 C 
ENDBRANCH  19  20
ENDBRANCH  18  19
ENDBRANCH  14  15
ENDBRANCH  12  13
TORSDOF 6
ENDMDL
MODEL 2
REMARK VINA RESULT:      -8.4      1.677      2.518
REMARK  Name = C:\Users\Docking\Desktop\test protocol\1iep_ligandH.pdb
REMARK  8 active torsions:
REMARK  status: ('A' for Active; 'I' for Inactive)
REMARK    1  A    between atoms: _5  and  _11
REMARK    2  A    between atoms: _19  and  _21
REMARK    3  A    between atoms: _22  and  _66
REMARK    4  A    between atoms: _27  and  _30
REMARK    5  A    between atoms: _32  and  _33
REMARK    6  A    between atoms: _38  and  _43
REMARK    7  A    between atoms: _43  and  _46
REMARK    8  A    between atoms: _53  and  _55
REMARK                            x       y       z     vdW  Elec       q    Type
REMARK                         _______ _______ _______ _____ _____    ______ ____
ROOT
ATOM     10  C   UNL     1      -5.093  -3.214 -13.476  0.00  0.00    +0.038 A 
ATOM     11  C   UNL     1      -4.936  -3.478 -14.860  0.00  0.00    +0.047 A 
ATOM     12  C   UNL     1      -3.671  -3.955 -15.397  0.00  0.00    +0.035 A 
ATOM     32  C   UNL     1      -2.587  -4.155 -14.494  0.00  0.00    +0.024 A 
ATOM     33  C   UNL     1      -2.729  -3.891 -13.083  0.00  0.00    +0.007 A 
ATOM     34  C   UNL     1      -3.973  -3.418 -12.549  0.00  0.00    -0.029 A 
ATOM     35  C   UNL     1      -4.066  -3.145 -11.029  0.00  0.00    +0.045 C 
ENDROOT
BRANCH  10   9
ATOM      4  C   UNL     1      -8.010   0.268 -11.926  0.00  0.00    +0.077 A 
ATOM      5  C   UNL     1      -6.975   1.257 -12.017  0.00  0.00    +0.048 A 
ATOM      6  C   UNL     1      -5.704   0.827 -12.460  0.00  0.00    +0.116 A 
ATOM      7  N   UNL     1      -5.496  -0.496 -12.785  0.00  0.00    -0.223 NA
ATOM      8  C   UNL     1      -6.515  -1.424 -12.685  0.00  0.00    +0.220 A 
ATOM      9  N   UNL     1      -6.330  -2.758 -13.015  0.00  0.00    -0.283 N 
ATOM     36  H   UNL     1      -7.106  -3.413 -12.920  0.00  0.00    +0.155 HD
ATOM     37  N   UNL     1      -7.738  -1.039 -12.263  0.00  0.00    -0.214 NA
BRANCH   4   3
ATOM      1  C   UNL     1     -11.072   1.565  -9.866  0.00  0.00    +0.020 A 
ATOM      2  C   UNL     1      -9.706   1.301 -10.254  0.00  0.00    +0.013 A 
ATOM      3  C   UNL     1      -9.407   0.568 -11.477  0.00  0.00    +0.019 A 
ATOM     38  C   UNL     1     -10.522   0.112 -12.293  0.00  0.00    +0.120 A 
ATOM     39  N   UNL     1     -11.828   0.379 -11.893  0.00  0.00    -0.263 NA
ATOM     40  C   UNL     1     -12.128   1.082 -10.717  0.00  0.00    +0.111 A 
ENDBRANCH   4   3
ENDBRANCH  10   9
BRANCH  12  13
ATOM     13  N   UNL     1      -3.451  -4.232 -16.795  0.00  0.00    -0.281 N 
ATOM     14  C   UNL     1      -3.224  -5.460 -17.394  0.00  0.00    +0.248 C 
ATOM     30  O   UNL     1      -2.963  -6.488 -16.786  0.00  0.00    -0.270 OA
ATOM     31  H   UNL     1      -3.463  -3.425 -17.418  0.00  0.00    +0.155 HD
BRANCH  14  15
ATOM     15  C   UNL     1      -3.281  -5.558 -18.884  0.00  0.00    +0.037 A 
ATOM     16  C   UNL     1      -2.565  -4.605 -19.736  0.00  0.00    +0.013 A 
ATOM     17  C   UNL     1      -2.650  -4.712 -21.171  0.00  0.00    +0.005 A 
ATOM     18  C   UNL     1      -3.455  -5.778 -21.763  0.00  0.00    -0.033 A 
ATOM     28  C   UNL     1      -4.151  -6.713 -20.895  0.00  0.00    +0.005 A 
ATOM     29  C   UNL     1      -4.070  -6.611 -19.488  0.00  0.00    +0.013 A 
BRANCH  18  19
ATOM     19  C   UNL     1      -3.621  -5.954 -23.284  0.00  0.00    +0.119 C 
BRANCH  19  20
ATOM     20  N   UNL     1      -4.087  -4.769 -24.064  0.00  0.00    -0.302 NA
ATOM     21  C   UNL     1      -5.518  -4.366 -23.697  0.00  0.00    +0.066 C 
ATOM     22  C   UNL     1      -5.981  -3.111 -24.505  0.00  0.00    -0.064 C 
ATOM     23  N   UNL     1      -5.868  -3.401 -26.002  0.00  0.00    +0.379 N 
ATOM     24  C   UNL     1      -6.357  -2.244 -26.765  0.00  0.00    -0.096 C 
ATOM     25  H   UNL     1      -6.535  -4.264 -26.231  0.00  0.00    -0.082 HD
ATOM     26  C   UNL     1      -4.448  -3.805 -26.376  0.00  0.00    -0.064 C 
ATOM     27  C   UNL     1      -3.987  -5.035 -25.546  0.00  0.00    +0.066 C 
ENDBRANCH  19  20
ENDBRANCH  18  19
ENDBRANCH  14  15
ENDBRANCH  12  13
TORSDOF 6
ENDMDL
MODEL 3
REMARK VINA RESULT:      -8.4     13.275     18.188
REMARK  Name = C:\Users\Docking\Desktop\test protocol\1iep_ligandH.pdb
REMARK  8 active torsions:
REMARK  status: ('A' for Active; 'I' for Inactive)
REMARK    1  A    between atoms: _5  and  _11
REMARK    2  A    between atoms: _19  and  _21
REMARK    3  A    between atoms: _22  and  _66
REMARK    4  A    between atoms: _27  and  _30
REMARK    5  A    between atoms: _32  and  _33
REMARK    6  A    between atoms: _38  and  _43
REMARK    7  A    between atoms: _43  and  _46
REMARK    8  A    between atoms: _53  and  _55
REMARK                            x       y       z     vdW  Elec       q    Type
REMARK                         _______ _______ _______ _____ _____    ______ ____
ROOT
ATOM     10  C   UNL     1     -12.208  -7.302  -6.003  0.00  0.00    +0.038 A 
ATOM     11  C   UNL     1     -13.482  -7.791  -6.389  0.00  0.00    +0.047 A 
ATOM     12  C   UNL     1     -14.705  -7.186  -5.883  0.00  0.00    +0.035 A 
ATOM     32  C   UNL     1     -14.592  -6.082  -4.988  0.00  0.00    +0.024 A 
ATOM     33  C   UNL     1     -13.305  -5.573  -4.585  0.00  0.00    +0.007 A 
ATOM     34  C   UNL     1     -12.096  -6.167  -5.078  0.00  0.00    -0.029 A 
ATOM     35  C   UNL     1     -10.743  -5.584  -4.607  0.00  0.00    +0.045 C 
ENDROOT
BRANCH  10   9
ATOM      4  C   UNL     1      -9.256 -11.063  -6.424  0.00  0.00    +0.077 A 
ATOM      5  C   UNL     1     -10.039 -11.854  -5.519  0.00  0.00    +0.048 A 
ATOM      6  C   UNL     1     -11.190 -11.253  -4.961  0.00  0.00    +0.116 A 
ATOM      7  N   UNL     1     -11.523  -9.958  -5.291  0.00  0.00    -0.223 NA
ATOM      8  C   UNL     1     -10.746  -9.222  -6.166  0.00  0.00    +0.220 A 
ATOM      9  N   UNL     1     -11.067  -7.920  -6.519  0.00  0.00    -0.283 N 
ATOM     36  H   UNL     1     -10.463  -7.408  -7.162  0.00  0.00    +0.155 HD
ATOM     37  N   UNL     1      -9.641  -9.772  -6.711  0.00  0.00    -0.214 NA
BRANCH   4   3
ATOM      1  C   UNL     1      -5.642 -11.269  -7.906  0.00  0.00    +0.020 A 
ATOM      2  C   UNL     1      -6.815 -10.743  -7.248  0.00  0.00    +0.013 A 
ATOM      3  C   UNL     1      -8.014 -11.558  -7.098  0.00  0.00    +0.019 A 
ATOM     38  C   UNL     1      -7.992 -12.913  -7.628  0.00  0.00    +0.120 A 
ATOM     39  N   UNL     1      -6.848 -13.393  -8.258  0.00  0.00    -0.263 NA
ATOM     40  C   UNL     1      -5.689 -12.617  -8.410  0.00  0.00    +0.111 A 
ENDBRANCH   4   3
ENDBRANCH  10   9
BRANCH  12  13
ATOM     13  N   UNL     1     -16.026  -7.645  -6.233  0.00  0.00    -0.281 N 
ATOM     14  C   UNL     1     -16.996  -6.973  -6.959  0.00  0.00    +0.248 C 
ATOM     30  O   UNL     1     -16.952  -5.784  -7.238  0.00  0.00    -0.270 OA
ATOM     31  H   UNL     1     -16.277  -8.578  -5.906  0.00  0.00    +0.155 HD
BRANCH  14  15
ATOM     15  C   UNL     1     -18.196  -7.729  -7.432  0.00  0.00    +0.037 A 
ATOM     16  C   UNL     1     -18.078  -8.795  -8.430  0.00  0.00    +0.013 A 
ATOM     17  C   UNL     1     -19.254  -9.496  -8.882  0.00  0.00    +0.005 A 
ATOM     18  C   UNL     1     -20.558  -9.134  -8.333  0.00  0.00    -0.033 A 
ATOM     28  C   UNL     1     -20.646  -8.076  -7.341  0.00  0.00    +0.005 A 
ATOM     29  C   UNL     1     -19.496  -7.385  -6.897  0.00  0.00    +0.013 A 
BRANCH  18  19
ATOM     19  C   UNL     1     -21.868  -9.814  -8.773  0.00  0.00    +0.119 C 
BRANCH  19  20
ATOM     20  N   UNL     1     -22.132  -9.907 -10.240  0.00  0.00    -0.302 NA
ATOM     21  C   UNL     1     -23.424  -9.188 -10.638  0.00  0.00    +0.066 C 
ATOM     22  C   UNL     1     -23.672  -9.276 -12.179  0.00  0.00    -0.064 C 
ATOM     23  N   UNL     1     -23.718 -10.745 -12.603  0.00  0.00    +0.379 N 
ATOM     24  C   UNL     1     -24.009 -10.833 -14.041  0.00  0.00    -0.096 C 
ATOM     25  H   UNL     1     -24.561 -11.228 -12.056  0.00  0.00    -0.082 HD
ATOM     26  C   UNL     1     -22.438 -11.469 -12.208  0.00  0.00    -0.064 C 
ATOM     27  C   UNL     1     -22.185 -11.350 -10.679  0.00  0.00    +0.066 C 
ENDBRANCH  19  20
ENDBRANCH  18  19
ENDBRANCH  14  15
ENDBRANCH  12  13
TORSDOF 6
ENDMDL
MODEL 4
REMARK VINA RESULT:      -8.4      3.770      6.687
REMARK  Name = C:\Users\Docking\Desktop\test protocol\1iep_ligandH.pdb
REMARK  8 active torsions:
REMARK  status: ('A' for Active; 'I' for Inactive)
REMARK    1  A    between atoms: _5  and  _11
REMARK    2  A    between atoms: _19  and  _21
REMARK    3  A    between atoms: _22  and  _66
REMARK    4  A    between atoms: _27  and  _30
REMARK    5  A    between atoms: _32  and  _33
REMARK    6  A    between atoms: _38  and  _43
REMARK    7  A    between atoms: _43  and  _46
REMARK    8  A    between atoms: _53  and  _55
REMARK                            x       y       z     vdW  Elec       q    Type
REMARK                         _______ _______ _______ _____ _____    ______ ____
ROOT
ATOM     10  C   UNL     1      -4.408  -3.894 -12.490  0.00  0.00    +0.038 A 
ATOM     11  C   UNL     1      -4.189  -4.354 -13.813  0.00  0.00    +0.047 A 
ATOM     12  C   UNL     1      -4.426  -3.490 -14.959  0.00  0.00    +0.035 A 
ATOM     32  C   UNL     1      -4.882  -2.161 -14.720  0.00  0.00    +0.024 A 
ATOM     33  C   UNL     1      -5.110  -1.677 -13.381  0.00  0.00    +0.007 A 
ATOM     34  C   UNL     1      -4.881  -2.526 -12.247  0.00  0.00    -0.029 A 
ATOM     35  C   UNL     1      -5.148  -1.956 -10.835  0.00  0.00    +0.045 C 
ENDROOT
BRANCH  10   9
ATOM      4  C   UNL     1      -1.569  -5.721  -9.078  0.00  0.00    +0.077 A 
ATOM      5  C   UNL     1      -0.468  -4.885  -9.463  0.00  0.00    +0.048 A 
ATOM      6  C   UNL     1      -0.672  -4.004 -10.549  0.00  0.00    +0.116 A 
ATOM      7  N   UNL     1      -1.889  -3.969 -11.194  0.00  0.00    -0.223 NA
ATOM      8  C   UNL     1      -2.929  -4.790 -10.798  0.00  0.00    +0.220 A 
ATOM      9  N   UNL     1      -4.164  -4.767 -11.427  0.00  0.00    -0.283 N 
ATOM     36  H   UNL     1      -4.904  -5.393 -11.109  0.00  0.00    +0.155 HD
ATOM     37  N   UNL     1      -2.760  -5.641  -9.765  0.00  0.00    -0.214 NA
BRANCH   4   3
ATOM      1  C   UNL     1      -2.280  -8.785  -6.754  0.00  0.00    +0.020 A 
ATOM      2  C   UNL     1      -2.378  -7.869  -7.867  0.00  0.00    +0.013 A 
ATOM      3  C   UNL     1      -1.510  -6.701  -7.948  0.00  0.00    +0.019 A 
ATOM     38  C   UNL     1      -0.546  -6.487  -6.879  0.00  0.00    +0.120 A 
ATOM     39  N   UNL     1      -0.476  -7.386  -5.819  0.00  0.00    -0.263 NA
ATOM     40  C   UNL     1      -1.307  -8.513  -5.729  0.00  0.00    +0.111 A 
ENDBRANCH   4   3
ENDBRANCH  10   9
BRANCH  12  13
ATOM     13  N   UNL     1      -4.230  -3.905 -16.326  0.00  0.00    -0.281 N 
ATOM     14  C   UNL     1      -3.048  -4.291 -16.938  0.00  0.00    +0.248 C 
ATOM     30  O   UNL     1      -1.937  -4.133 -16.455  0.00  0.00    -0.270 OA
ATOM     31  H   UNL     1      -5.063  -3.915 -16.915  0.00  0.00    +0.155 HD
BRANCH  14  15
ATOM     15  C   UNL     1      -3.109  -4.932 -18.286  0.00  0.00    +0.037 A 
ATOM     16  C   UNL     1      -2.437  -4.335 -19.443  0.00  0.00    +0.013 A 
ATOM     17  C   UNL     1      -2.527  -4.965 -20.737  0.00  0.00    +0.005 A 
ATOM     18  C   UNL     1      -3.290  -6.202 -20.879  0.00  0.00    -0.033 A 
ATOM     28  C   UNL     1      -3.942  -6.776 -19.714  0.00  0.00    +0.005 A 
ATOM     29  C   UNL     1      -3.858  -6.161 -18.445  0.00  0.00    +0.013 A 
BRANCH  18  19
ATOM     19  C   UNL     1      -3.456  -6.932 -22.225  0.00  0.00    +0.119 C 
BRANCH  19  20
ATOM     20  N   UNL     1      -4.246  -6.238 -23.286  0.00  0.00    -0.302 NA
ATOM     21  C   UNL     1      -3.346  -5.501 -24.283  0.00  0.00    +0.066 C 
ATOM     22  C   UNL     1      -4.188  -4.800 -25.398  0.00  0.00    -0.064 C 
ATOM     23  N   UNL     1      -5.184  -3.836 -24.752  0.00  0.00    +0.379 N 
ATOM     24  C   UNL     1      -5.936  -3.132 -25.801  0.00  0.00    -0.096 C 
ATOM     25  H   UNL     1      -4.598  -3.074 -24.187  0.00  0.00    -0.082 HD
ATOM     26  C   UNL     1      -6.080  -4.560 -23.758  0.00  0.00    -0.064 C 
ATOM     27  C   UNL     1      -5.233  -5.277 -22.670  0.00  0.00    +0.066 C 
ENDBRANCH  19  20
ENDBRANCH  18  19
ENDBRANCH  14  15
ENDBRANCH  12  13
TORSDOF 6
ENDMDL
MODEL 5
REMARK VINA RESULT:      -8.3     13.085     15.749
REMARK  Name = C:\Users\Docking\Desktop\test protocol\1iep_ligandH.pdb
REMARK  8 active torsions:
REMARK  status: ('A' for Active; 'I' for Inactive)
REMARK    1  A    between atoms: _5  and  _11
REMARK    2  A    between atoms: _19  and  _21
REMARK    3  A    between atoms: _22  and  _66
REMARK    4  A    between atoms: _27  and  _30
REMARK    5  A    between atoms: _32  and  _33
REMARK    6  A    between atoms: _38  and  _43
REMARK    7  A    between atoms: _43  and  _46
REMARK    8  A    between atoms: _53  and  _55
REMARK                            x       y       z     vdW  Elec       q    Type
REMARK                         _______ _______ _______ _____ _____    ______ ____
ROOT
ATOM     10  C   UNL     1     -14.080   3.472  -5.495  0.00  0.00    +0.038 A 
ATOM     11  C   UNL     1     -12.757   2.960  -5.501  0.00  0.00    +0.047 A 
ATOM     12  C   UNL     1     -11.723   3.539  -4.658  0.00  0.00    +0.035 A 
ATOM     32  C   UNL     1     -12.071   4.637  -3.818  0.00  0.00    +0.024 A 
ATOM     33  C   UNL     1     -13.411   5.170  -3.801  0.00  0.00    +0.007 A 
ATOM     34  C   UNL     1     -14.434   4.605  -4.632  0.00  0.00    -0.029 A 
ATOM     35  C   UNL     1     -15.852   5.222  -4.577  0.00  0.00    +0.045 C 
ENDROOT
BRANCH  10   9
ATOM      4  C   UNL     1     -15.316   0.770  -9.264  0.00  0.00    +0.077 A 
ATOM      5  C   UNL     1     -13.946   0.545  -9.627  0.00  0.00    +0.048 A 
ATOM      6  C   UNL     1     -12.954   1.148  -8.822  0.00  0.00    +0.116 A 
ATOM      7  N   UNL     1     -13.316   1.916  -7.737  0.00  0.00    -0.223 NA
ATOM      8  C   UNL     1     -14.647   2.115  -7.416  0.00  0.00    +0.220 A 
ATOM      9  N   UNL     1     -15.033   2.878  -6.325  0.00  0.00    -0.283 N 
ATOM     36  H   UNL     1     -16.025   3.007  -6.126  0.00  0.00    +0.155 HD
ATOM     37  N   UNL     1     -15.613   1.551  -8.170  0.00  0.00    -0.214 NA
BRANCH   4   3
ATOM      1  C   UNL     1     -17.479  -1.277 -11.801  0.00  0.00    +0.020 A 
ATOM      2  C   UNL     1     -16.324  -0.754 -11.108  0.00  0.00    +0.013 A 
ATOM      3  C   UNL     1     -16.478   0.198 -10.015  0.00  0.00    +0.019 A 
ATOM     38  C   UNL     1     -17.826   0.602  -9.643  0.00  0.00    +0.120 A 
ATOM     39  N   UNL     1     -18.919   0.082 -10.329  0.00  0.00    -0.263 NA
ATOM     40  C   UNL     1     -18.783  -0.832 -11.384  0.00  0.00    +0.111 A 
ENDBRANCH   4   3
ENDBRANCH  10   9
BRANCH  12  13
ATOM     13  N   UNL     1     -10.360   3.067  -4.627  0.00  0.00    -0.281 N 
ATOM     14  C   UNL     1      -9.368   3.270  -5.571  0.00  0.00    +0.248 C 
ATOM     30  O   UNL     1      -9.562   3.711  -6.694  0.00  0.00    -0.270 OA
ATOM     31  H   UNL     1     -10.096   2.516  -3.810  0.00  0.00    +0.155 HD
BRANCH  14  15
ATOM     15  C   UNL     1      -7.957   2.919  -5.223  0.00  0.00    +0.037 A 
ATOM     16  C   UNL     1      -7.653   1.828  -4.293  0.00  0.00    +0.013 A 
ATOM     17  C   UNL     1      -6.284   1.521  -3.961  0.00  0.00    +0.005 A 
ATOM     18  C   UNL     1      -5.208   2.306  -4.561  0.00  0.00    -0.033 A 
ATOM     28  C   UNL     1      -5.538   3.379  -5.485  0.00  0.00    +0.005 A 
ATOM     29  C   UNL     1      -6.879   3.683  -5.812  0.00  0.00    +0.013 A 
BRANCH  18  19
ATOM     19  C   UNL     1      -3.720   2.062  -4.248  0.00  0.00    +0.119 C 
BRANCH  19  20
ATOM     20  N   UNL     1      -3.104   0.813  -4.787  0.00  0.00    -0.302 NA
ATOM     21  C   UNL     1      -2.311   0.056  -3.717  0.00  0.00    +0.066 C 
ATOM     22  C   UNL     1      -1.692  -1.259  -4.292  0.00  0.00    -0.064 C 
ATOM     23  N   UNL     1      -0.800  -0.919  -5.488  0.00  0.00    +0.379 N 
ATOM     24  C   UNL     1      -0.171  -2.147  -5.995  0.00  0.00    -0.096 C 
ATOM     25  H   UNL     1       0.012  -0.248  -5.124  0.00  0.00    -0.082 HD
ATOM     26  C   UNL     1      -1.580  -0.164  -6.555  0.00  0.00    -0.064 C 
ATOM     27  C   UNL     1      -2.216   1.126  -5.966  0.00  0.00    +0.066 C 
ENDBRANCH  19  20
ENDBRANCH  18  19
ENDBRANCH  14  15
ENDBRANCH  12  13
TORSDOF 6
ENDMDL
