MODEL 1
REMARK VINA RESULT:      -8.4      0.000      0.000
REMARK  Name = C:\Users\Docking\Desktop\test protocol\1iep_ligandH.pdb
REMARK  8 active torsions:
REMARK  status: ('A' for Active; 'I' for Inactive)
REMARK    1  A    between atoms: _5  and  _11
REMARK    2  A    between atoms: _19  and  _21
REMARK    3  A    between atoms: _22  and  _66
REMARK    4  A    between atoms: _27  and  _30
REMARK    5  A    between atoms: _32  and  _33
REMARK    6  A    between atoms: _38  and  _43
REMARK    7  A    between atoms: _43  and  _46
REMARK    8  A    between atoms: _53  and  _55
REMARK                            x       y       z     vdW  Elec       q    Type
REMARK                         _______ _______ _______ _____ _____    ______ ____
ROOT
ATOM     10  C   UNL     1      31.135   5.641  23.319  0.00  0.00    +0.038 A 
ATOM     11  C   UNL     1      31.409   5.027  22.070  0.00  0.00    +0.047 A 
ATOM     12  C   UNL     1      31.074   5.687  20.817  0.00  0.00    +0.035 A 
ATOM     32  C   UNL     1      30.465   6.974  20.874  0.00  0.00    +0.024 A 
ATOM     33  C   UNL     1      30.179   7.613  22.135  0.00  0.00    +0.007 A 
ATOM     34  C   UNL     1      30.504   6.965  23.373  0.00  0.00    -0.029 A 
ATOM     35  C   UNL     1      30.169   7.694  24.695  0.00  0.00    +0.045 C 
ENDROOT
BRANCH  10   9
ATOM      4  C   UNL     1      30.091   2.699  26.964  0.00  0.00    +0.077 A 
ATOM      5  C   UNL     1      28.742   2.520  26.511  0.00  0.00    +0.048 A 
ATOM      6  C   UNL     1      28.354   3.209  25.340  0.00  0.00    +0.116 A 
ATOM      7  N   UNL     1      29.257   4.013  24.679  0.00  0.00    -0.223 NA
ATOM      8  C   UNL     1      30.551   4.165  25.144  0.00  0.00    +0.220 A 
ATOM      9  N   UNL     1      31.478   4.962  24.490  0.00  0.00    -0.283 N 
ATOM     36  H   UNL     1      32.420   5.054  24.869  0.00  0.00    +0.155 HD
ATOM     37  N   UNL     1      30.945   3.519  26.261  0.00  0.00    -0.214 NA
BRANCH   4   3
ATOM      1  C   UNL     1      32.289   1.890  30.097  0.00  0.00    +0.020 A 
ATOM      2  C   UNL     1      31.787   2.569  28.925  0.00  0.00    +0.013 A 
ATOM      3  C   UNL     1      30.651   2.036  28.184  0.00  0.00    +0.019 A 
ATOM     38  C   UNL     1      30.041   0.803  28.660  0.00  0.00    +0.120 A 
ATOM     39  N   UNL     1      30.547   0.170  29.791  0.00  0.00    -0.263 NA
ATOM     40  C   UNL     1      31.640   0.674  30.511  0.00  0.00    +0.111 A 
ENDBRANCH   4   3
ENDBRANCH  10   9
BRANCH  12  13
ATOM     13  N   UNL     1      31.321   5.109  19.520  0.00  0.00    -0.281 N 
ATOM     14  C   UNL     1      32.403   5.326  18.682  0.00  0.00    +0.248 C 
ATOM     30  O   UNL     1      33.223   6.219  18.830  0.00  0.00    -0.270 OA
ATOM     31  H   UNL     1      30.611   4.461  19.177  0.00  0.00    +0.155 HD
BRANCH  14  15
ATOM     15  C   UNL     1      32.592   4.430  17.501  0.00  0.00    +0.037 A 
ATOM     16  C   UNL     1      33.110   3.068  17.656  0.00  0.00    +0.013 A 
ATOM     17  C   UNL     1      33.300   2.230  16.498  0.00  0.00    +0.005 A 
ATOM     18  C   UNL     1      32.970   2.753  15.174  0.00  0.00    -0.033 A 
ATOM     28  C   UNL     1      32.453   4.106  15.050  0.00  0.00    +0.005 A 
ATOM     29  C   UNL     1      32.267   4.930  16.182  0.00  0.00    +0.013 A 
BRANCH  18  19
ATOM     19  C   UNL     1      33.160   1.937  13.882  0.00  0.00    +0.119 C 
BRANCH  19  20
ATOM     20  N   UNL     1      33.376   0.467  14.027  0.00  0.00    -0.302 NA
ATOM     21  C   UNL     1      34.092  -0.131  12.812  0.00  0.00    +0.066 C 
ATOM     22  C   UNL     1      34.330  -1.666  12.991  0.00  0.00    -0.064 C 
ATOM     23  N   UNL     1      32.989  -2.364  13.227  0.00  0.00    +0.379 N 
ATOM     24  C   UNL     1      33.203  -3.814  13.338  0.00  0.00    -0.096 C 
ATOM     25  H   UNL     1      32.352  -2.183  12.331  0.00  0.00    -0.082 HD
ATOM     26  C   UNL     1      32.270  -1.773  14.432  0.00  0.00    -0.064 C 
ATOM     27  C   UNL     1      32.064  -0.242  14.257  0.00  0.00    +0.066 C 
ENDBRANCH  19  20
ENDBRANCH  18  19
ENDBRANCH  14  15
ENDBRANCH  12  13
TORSDOF 6
ENDMDL
MODEL 2
REMARK VINA RESULT:      -8.1      4.036     12.763
REMARK  Name = C:\Users\Docking\Desktop\test protocol\1iep_ligandH.pdb
REMARK  8 active torsions:
REMARK  status: ('A' for Active; 'I' for Inactive)
REMARK    1  A    between atoms: _5  and  _11
REMARK    2  A    between atoms: _19  and  _21
REMARK    3  A    between atoms: _22  and  _66
REMARK    4  A    between atoms: _27  and  _30
REMARK    5  A    between atoms: _32  and  _33
REMARK    6  A    between atoms: _38  and  _43
REMARK    7  A    between atoms: _43  and  _46
REMARK    8  A    between atoms: _53  and  _55
REMARK                            x       y       z     vdW  Elec       q    Type
REMARK                         _______ _______ _______ _____ _____    ______ ____
ROOT
ATOM     10  C   UNL     1      32.859   3.765  20.802  0.00  0.00    +0.038 A 
ATOM     11  C   UNL     1      31.593   3.877  21.433  0.00  0.00    +0.047 A 
ATOM     12  C   UNL     1      31.438   4.604  22.683  0.00  0.00    +0.035 A 
ATOM     32  C   UNL     1      32.593   5.207  23.262  0.00  0.00    +0.024 A 
ATOM     33  C   UNL     1      33.887   5.102  22.635  0.00  0.00    +0.007 A 
ATOM     34  C   UNL     1      34.046   4.384  21.403  0.00  0.00    -0.029 A 
ATOM     35  C   UNL     1      35.458   4.298  20.778  0.00  0.00    +0.045 C 
ENDROOT
BRANCH  10   9
ATOM      4  C   UNL     1      32.664   3.503  16.013  0.00  0.00    +0.077 A 
ATOM      5  C   UNL     1      32.325   4.892  15.892  0.00  0.00    +0.048 A 
ATOM      6  C   UNL     1      32.203   5.636  17.087  0.00  0.00    +0.116 A 
ATOM      7  N   UNL     1      32.408   5.028  18.306  0.00  0.00    -0.223 NA
ATOM      8  C   UNL     1      32.732   3.686  18.387  0.00  0.00    +0.220 A 
ATOM      9  N   UNL     1      32.950   3.055  19.602  0.00  0.00    -0.283 N 
ATOM     36  H   UNL     1      33.180   2.062  19.621  0.00  0.00    +0.155 HD
ATOM     37  N   UNL     1      32.853   2.953  17.261  0.00  0.00    -0.214 NA
BRANCH   4   3
ATOM      1  C   UNL     1      32.176   0.577  13.464  0.00  0.00    +0.020 A 
ATOM      2  C   UNL     1      31.972   1.432  14.610  0.00  0.00    +0.013 A 
ATOM      3  C   UNL     1      32.832   2.585  14.843  0.00  0.00    +0.019 A 
ATOM     38  C   UNL     1      33.899   2.847  13.888  0.00  0.00    +0.120 A 
ATOM     39  N   UNL     1      34.073   2.006  12.794  0.00  0.00    -0.263 NA
ATOM     40  C   UNL     1      33.252   0.892  12.561  0.00  0.00    +0.111 A 
ENDBRANCH   4   3
ENDBRANCH  10   9
BRANCH  12  13
ATOM     13  N   UNL     1      30.180   4.745  23.374  0.00  0.00    -0.281 N 
ATOM     14  C   UNL     1      29.890   4.422  24.690  0.00  0.00    +0.248 C 
ATOM     30  O   UNL     1      30.618   3.760  25.415  0.00  0.00    -0.270 OA
ATOM     31  H   UNL     1      29.410   5.130  22.827  0.00  0.00    +0.155 HD
BRANCH  14  15
ATOM     15  C   UNL     1      28.599   4.889  25.280  0.00  0.00    +0.037 A 
ATOM     16  C   UNL     1      27.398   4.052  25.241  0.00  0.00    +0.013 A 
ATOM     17  C   UNL     1      26.161   4.534  25.803  0.00  0.00    +0.005 A 
ATOM     18  C   UNL     1      26.121   5.862  26.411  0.00  0.00    -0.033 A 
ATOM     28  C   UNL     1      27.329   6.669  26.442  0.00  0.00    +0.005 A 
ATOM     29  C   UNL     1      28.542   6.201  25.891  0.00  0.00    +0.013 A 
BRANCH  18  19
ATOM     19  C   UNL     1      24.840   6.465  27.016  0.00  0.00    +0.119 C 
BRANCH  19  20
ATOM     20  N   UNL     1      24.519   7.881  26.665  0.00  0.00    -0.302 NA
ATOM     21  C   UNL     1      23.582   8.529  27.689  0.00  0.00    +0.066 C 
ATOM     22  C   UNL     1      23.275  10.016  27.318  0.00  0.00    -0.064 C 
ATOM     23  N   UNL     1      22.668  10.074  25.915  0.00  0.00    +0.379 N 
ATOM     24  C   UNL     1      22.325  11.465  25.586  0.00  0.00    -0.096 C 
ATOM     25  H   UNL     1      21.721   9.487  25.932  0.00  0.00    -0.082 HD
ATOM     26  C   UNL     1      23.592   9.430  24.891  0.00  0.00    -0.064 C 
ATOM     27  C   UNL     1      23.914   7.961  25.285  0.00  0.00    +0.066 C 
ENDBRANCH  19  20
ENDBRANCH  18  19
ENDBRANCH  14  15
ENDBRANCH  12  13
TORSDOF 6
ENDMDL
MODEL 3
REMARK VINA RESULT:      -7.7     26.247     32.665
REMARK  Name = C:\Users\Docking\Desktop\test protocol\1iep_ligandH.pdb
REMARK  8 active torsions:
REMARK  status: ('A' for Active; 'I' for Inactive)
REMARK    1  A    between atoms: _5  and  _11
REMARK    2  A    between atoms: _19  and  _21
REMARK    3  A    between atoms: _22  and  _66
REMARK    4  A    between atoms: _27  and  _30
REMARK    5  A    between atoms: _32  and  _33
REMARK    6  A    between atoms: _38  and  _43
REMARK    7  A    between atoms: _43  and  _46
REMARK    8  A    between atoms: _53  and  _55
REMARK                            x       y       z     vdW  Elec       q    Type
REMARK                         _______ _______ _______ _____ _____    ______ ____
ROOT
ATOM     10  C   UNL     1      19.101   6.661  -9.638  0.00  0.00    +0.038 A 
ATOM     11  C   UNL     1      19.546   6.806  -8.299  0.00  0.00    +0.047 A 
ATOM     12  C   UNL     1      20.198   5.710  -7.600  0.00  0.00    +0.035 A 
ATOM     32  C   UNL     1      20.385   4.480  -8.296  0.00  0.00    +0.024 A 
ATOM     33  C   UNL     1      19.938   4.315  -9.657  0.00  0.00    +0.007 A 
ATOM     34  C   UNL     1      19.292   5.392 -10.351  0.00  0.00    -0.029 A 
ATOM     35  C   UNL     1      18.828   5.157 -11.808  0.00  0.00    +0.045 C 
ENDROOT
BRANCH  10   9
ATOM      4  C   UNL     1      15.271   9.421 -10.506  0.00  0.00    +0.077 A 
ATOM      5  C   UNL     1      14.429   8.617  -9.669  0.00  0.00    +0.048 A 
ATOM      6  C   UNL     1      15.018   7.498  -9.039  0.00  0.00    +0.116 A 
ATOM      7  N   UNL     1      16.351   7.214  -9.238  0.00  0.00    -0.223 NA
ATOM      8  C   UNL     1      17.136   8.009 -10.053  0.00  0.00    +0.220 A 
ATOM      9  N   UNL     1      18.481   7.746 -10.261  0.00  0.00    -0.283 N 
ATOM     36  H   UNL     1      19.024   8.353 -10.876  0.00  0.00    +0.155 HD
ATOM     37  N   UNL     1      16.596   9.082 -10.668  0.00  0.00    -0.214 NA
BRANCH   4   3
ATOM      1  C   UNL     1      13.230  12.590 -11.548  0.00  0.00    +0.020 A 
ATOM      2  C   UNL     1      13.647  11.423 -10.806  0.00  0.00    +0.013 A 
ATOM      3  C   UNL     1      14.796  10.637 -11.238  0.00  0.00    +0.019 A 
ATOM     38  C   UNL     1      15.507  11.064 -12.434  0.00  0.00    +0.120 A 
ATOM     39  N   UNL     1      15.081  12.191 -13.129  0.00  0.00    -0.263 NA
ATOM     40  C   UNL     1      13.976  12.954 -12.724  0.00  0.00    +0.111 A 
ENDBRANCH   4   3
ENDBRANCH  10   9
BRANCH  12  13
ATOM     13  N   UNL     1      20.663   5.796  -6.238  0.00  0.00    -0.281 N 
ATOM     14  C   UNL     1      21.959   5.999  -5.791  0.00  0.00    +0.248 C 
ATOM     30  O   UNL     1      22.953   5.924  -6.498  0.00  0.00    -0.270 OA
ATOM     31  H   UNL     1      19.951   5.695  -5.515  0.00  0.00    +0.155 HD
BRANCH  14  15
ATOM     15  C   UNL     1      22.184   6.317  -4.348  0.00  0.00    +0.037 A 
ATOM     16  C   UNL     1      23.032   5.469  -3.507  0.00  0.00    +0.013 A 
ATOM     17  C   UNL     1      23.219   5.789  -2.114  0.00  0.00    +0.005 A 
ATOM     18  C   UNL     1      22.556   6.964  -1.554  0.00  0.00    -0.033 A 
ATOM     28  C   UNL     1      21.724   7.791  -2.413  0.00  0.00    +0.005 A 
ATOM     29  C   UNL     1      21.538   7.480  -3.778  0.00  0.00    +0.013 A 
BRANCH  18  19
ATOM     19  C   UNL     1      22.682   7.370  -0.073  0.00  0.00    +0.119 C 
BRANCH  19  20
ATOM     20  N   UNL     1      22.183   8.724   0.310  0.00  0.00    -0.302 NA
ATOM     21  C   UNL     1      23.269   9.795   0.178  0.00  0.00    +0.066 C 
ATOM     22  C   UNL     1      22.724  11.209   0.561  0.00  0.00    -0.064 C 
ATOM     23  N   UNL     1      22.171  11.171   1.987  0.00  0.00    +0.379 N 
ATOM     24  C   UNL     1      21.710  12.513   2.371  0.00  0.00    -0.096 C 
ATOM     25  H   UNL     1      23.010  10.893   2.667  0.00  0.00    -0.082 HD
ATOM     26  C   UNL     1      21.092  10.107   2.127  0.00  0.00    -0.064 C 
ATOM     27  C   UNL     1      21.636   8.710   1.716  0.00  0.00    +0.066 C 
ENDBRANCH  19  20
ENDBRANCH  18  19
ENDBRANCH  14  15
ENDBRANCH  12  13
TORSDOF 6
ENDMDL
MODEL 4
REMARK VINA RESULT:      -7.6     26.165     30.413
REMARK  Name = C:\Users\Docking\Desktop\test protocol\1iep_ligandH.pdb
REMARK  8 active torsions:
REMARK  status: ('A' for Active; 'I' for Inactive)
REMARK    1  A    between atoms: _5  and  _11
REMARK    2  A    between atoms: _19  and  _21
REMARK    3  A    between atoms: _22  and  _66
REMARK    4  A    between atoms: _27  and  _30
REMARK    5  A    between atoms: _32  and  _33
REMARK    6  A    between atoms: _38  and  _43
REMARK    7  A    between atoms: _43  and  _46
REMARK    8  A    between atoms: _53  and  _55
REMARK                            x       y       z     vdW  Elec       q    Type
REMARK                         _______ _______ _______ _____ _____    ______ ____
ROOT
ATOM     10  C   UNL     1      16.635 -11.731   0.212  0.00  0.00    +0.038 A 
ATOM     11  C   UNL     1      15.734 -10.650   0.034  0.00  0.00    +0.047 A 
ATOM     12  C   UNL     1      15.689  -9.905  -1.214  0.00  0.00    +0.035 A 
ATOM     32  C   UNL     1      16.575 -10.290  -2.263  0.00  0.00    +0.024 A 
ATOM     33  C   UNL     1      17.498 -11.386  -2.098  0.00  0.00    +0.007 A 
ATOM     34  C   UNL     1      17.548 -12.122  -0.868  0.00  0.00    -0.029 A 
ATOM     35  C   UNL     1      18.562 -13.283  -0.745  0.00  0.00    +0.045 C 
ENDROOT
BRANCH  10   9
ATOM      4  C   UNL     1      18.357 -12.509   4.625  0.00  0.00    +0.077 A 
ATOM      5  C   UNL     1      19.358 -11.492   4.477  0.00  0.00    +0.048 A 
ATOM      6  C   UNL     1      19.401 -10.797   3.248  0.00  0.00    +0.116 A 
ATOM      7  N   UNL     1      18.504 -11.104   2.248  0.00  0.00    -0.223 NA
ATOM      8  C   UNL     1      17.552 -12.091   2.422  0.00  0.00    +0.220 A 
ATOM      9  N   UNL     1      16.635 -12.411   1.432  0.00  0.00    -0.283 N 
ATOM     36  H   UNL     1      15.953 -13.151   1.597  0.00  0.00    +0.155 HD
ATOM     37  N   UNL     1      17.491 -12.771   3.586  0.00  0.00    -0.214 NA
BRANCH   4   3
ATOM      1  C   UNL     1      19.079 -14.548   7.883  0.00  0.00    +0.020 A 
ATOM      2  C   UNL     1      19.301 -13.759   6.694  0.00  0.00    +0.013 A 
ATOM      3  C   UNL     1      18.182 -13.328   5.865  0.00  0.00    +0.019 A 
ATOM     38  C   UNL     1      16.840 -13.716   6.271  0.00  0.00    +0.120 A 
ATOM     39  N   UNL     1      16.656 -14.479   7.421  0.00  0.00    -0.263 NA
ATOM     40  C   UNL     1      17.726 -14.900   8.225  0.00  0.00    +0.111 A 
ENDBRANCH   4   3
ENDBRANCH  10   9
BRANCH  12  13
ATOM     13  N   UNL     1      14.801  -8.794  -1.450  0.00  0.00    -0.281 N 
ATOM     14  C   UNL     1      13.568  -8.808  -2.080  0.00  0.00    +0.248 C 
ATOM     30  O   UNL     1      13.134  -9.748  -2.729  0.00  0.00    -0.270 OA
ATOM     31  H   UNL     1      15.121  -7.886  -1.111  0.00  0.00    +0.155 HD
BRANCH  14  15
ATOM     15  C   UNL     1      12.696  -7.598  -1.987  0.00  0.00    +0.037 A 
ATOM     16  C   UNL     1      12.959  -6.545  -1.002  0.00  0.00    +0.013 A 
ATOM     17  C   UNL     1      12.092  -5.396  -0.923  0.00  0.00    +0.005 A 
ATOM     18  C   UNL     1      10.954  -5.293  -1.832  0.00  0.00    -0.033 A 
ATOM     28  C   UNL     1      10.719  -6.350  -2.803  0.00  0.00    +0.005 A 
ATOM     29  C   UNL     1      11.566  -7.478  -2.883  0.00  0.00    +0.013 A 
BRANCH  18  19
ATOM     19  C   UNL     1       9.964  -4.113  -1.804  0.00  0.00    +0.119 C 
BRANCH  19  20
ATOM     20  N   UNL     1      10.295  -2.923  -2.643  0.00  0.00    -0.302 NA
ATOM     21  C   UNL     1       9.513  -1.680  -2.210  0.00  0.00    +0.066 C 
ATOM     22  C   UNL     1       9.889  -0.439  -3.084  0.00  0.00    -0.064 C 
ATOM     23  N   UNL     1       9.626  -0.758  -4.557  0.00  0.00    +0.379 N 
ATOM     24  C   UNL     1       9.923   0.427  -5.376  0.00  0.00    -0.096 C 
ATOM     25  H   UNL     1       8.539  -0.981  -4.666  0.00  0.00    -0.082 HD
ATOM     26  C   UNL     1      10.397  -1.995  -4.995  0.00  0.00    -0.064 C 
ATOM     27  C   UNL     1      10.039  -3.215  -4.101  0.00  0.00    +0.066 C 
ENDBRANCH  19  20
ENDBRANCH  18  19
ENDBRANCH  14  15
ENDBRANCH  12  13
TORSDOF 6
ENDMDL
MODEL 5
REMARK VINA RESULT:      -7.6      3.857     11.121
REMARK  Name = C:\Users\Docking\Desktop\test protocol\1iep_ligandH.pdb
REMARK  8 active torsions:
REMARK  status: ('A' for Active; 'I' for Inactive)
REMARK    1  A    between atoms: _5  and  _11
REMARK    2  A    between atoms: _19  and  _21
REMARK    3  A    between atoms: _22  and  _66
REMARK    4  A    between atoms: _27  and  _30
REMARK    5  A    between atoms: _32  and  _33
REMARK    6  A    between atoms: _38  and  _43
REMARK    7  A    between atoms: _43  and  _46
REMARK    8  A    between atoms: _53  and  _55
REMARK                            x       y       z     vdW  Elec       q    Type
REMARK                         _______ _______ _______ _____ _____    ______ ____
ROOT
ATOM     10  C   UNL     1      31.329   5.523  22.484  0.00  0.00    +0.038 A 
ATOM     11  C   UNL     1      30.611   4.546  23.220  0.00  0.00    +0.047 A 
ATOM     12  C   UNL     1      30.502   4.624  24.668  0.00  0.00    +0.035 A 
ATOM     32  C   UNL     1      31.136   5.712  25.336  0.00  0.00    +0.024 A 
ATOM     33  C   UNL     1      31.872   6.714  24.604  0.00  0.00    +0.007 A 
ATOM     34  C   UNL     1      31.984   6.641  23.175  0.00  0.00    -0.029 A 
ATOM     35  C   UNL     1      32.790   7.739  22.443  0.00  0.00    +0.045 C 
ENDROOT
BRANCH  10   9
ATOM      4  C   UNL     1      33.023   3.449  18.501  0.00  0.00    +0.077 A 
ATOM      5  C   UNL     1      33.856   2.553  19.251  0.00  0.00    +0.048 A 
ATOM      6  C   UNL     1      33.825   2.664  20.659  0.00  0.00    +0.116 A 
ATOM      7  N   UNL     1      33.017   3.603  21.262  0.00  0.00    -0.223 NA
ATOM      8  C   UNL     1      32.227   4.453  20.510  0.00  0.00    +0.220 A 
ATOM      9  N   UNL     1      31.401   5.400  21.095  0.00  0.00    -0.283 N 
ATOM     36  H   UNL     1      30.839   6.013  20.505  0.00  0.00    +0.155 HD
ATOM     37  N   UNL     1      32.240   4.368  19.163  0.00  0.00    -0.214 NA
BRANCH   4   3
ATOM      1  C   UNL     1      32.409   4.550  14.798  0.00  0.00    +0.020 A 
ATOM      2  C   UNL     1      32.465   4.598  16.241  0.00  0.00    +0.013 A 
ATOM      3  C   UNL     1      32.944   3.453  17.006  0.00  0.00    +0.019 A 
ATOM     38  C   UNL     1      33.362   2.266  16.275  0.00  0.00    +0.120 A 
ATOM     39  N   UNL     1      33.295   2.249  14.885  0.00  0.00    -0.263 NA
ATOM     40  C   UNL     1      32.835   3.344  14.139  0.00  0.00    +0.111 A 
ENDBRANCH   4   3
ENDBRANCH  10   9
BRANCH  12  13
ATOM     13  N   UNL     1      29.793   3.657  25.469  0.00  0.00    -0.281 N 
ATOM     14  C   UNL     1      28.426   3.555  25.669  0.00  0.00    +0.248 C 
ATOM     30  O   UNL     1      27.616   4.417  25.359  0.00  0.00    -0.270 OA
ATOM     31  H   UNL     1      30.369   2.963  25.946  0.00  0.00    +0.155 HD
BRANCH  14  15
ATOM     15  C   UNL     1      27.881   2.326  26.322  0.00  0.00    +0.037 A 
ATOM     16  C   UNL     1      26.558   2.323  26.952  0.00  0.00    +0.013 A 
ATOM     17  C   UNL     1      26.064   1.128  27.589  0.00  0.00    +0.005 A 
ATOM     18  C   UNL     1      26.893  -0.075  27.597  0.00  0.00    -0.033 A 
ATOM     28  C   UNL     1      28.199  -0.045  26.960  0.00  0.00    +0.005 A 
ATOM     29  C   UNL     1      28.688   1.124  26.336  0.00  0.00    +0.013 A 
BRANCH  18  19
ATOM     19  C   UNL     1      26.455  -1.388  28.272  0.00  0.00    +0.119 C 
BRANCH  19  20
ATOM     20  N   UNL     1      25.656  -2.346  27.450  0.00  0.00    -0.302 NA
ATOM     21  C   UNL     1      26.390  -2.754  26.170  0.00  0.00    +0.066 C 
ATOM     22  C   UNL     1      25.550  -3.774  25.333  0.00  0.00    -0.064 C 
ATOM     23  N   UNL     1      24.188  -3.160  25.005  0.00  0.00    +0.379 N 
ATOM     24  C   UNL     1      23.418  -4.093  24.169  0.00  0.00    -0.096 C 
ATOM     25  H   UNL     1      24.369  -2.238  24.404  0.00  0.00    -0.082 HD
ATOM     26  C   UNL     1      23.453  -2.748  26.272  0.00  0.00    -0.064 C 
ATOM     27  C   UNL     1      24.308  -1.758  27.110  0.00  0.00    +0.066 C 
ENDBRANCH  19  20
ENDBRANCH  18  19
ENDBRANCH  14  15
ENDBRANCH  12  13
TORSDOF 6
ENDMDL
