MODEL 1
REMARK VINA RESULT:      -8.3      0.000      0.000
REMARK  Name = C:\Users\Docking\Desktop\test protocol\1iep_ligandH.pdb
REMARK  8 active torsions:
REMARK  status: ('A' for Active; 'I' for Inactive)
REMARK    1  A    between atoms: _5  and  _11
REMARK    2  A    between atoms: _19  and  _21
REMARK    3  A    between atoms: _22  and  _66
REMARK    4  A    between atoms: _27  and  _30
REMARK    5  A    between atoms: _32  and  _33
REMARK    6  A    between atoms: _38  and  _43
REMARK    7  A    between atoms: _43  and  _46
REMARK    8  A    between atoms: _53  and  _55
REMARK                            x       y       z     vdW  Elec       q    Type
REMARK                         _______ _______ _______ _____ _____    ______ ____
ROOT
ATOM     10  C   UNL     1      19.085   6.940  -9.349  0.00  0.00    +0.038 A 
ATOM     11  C   UNL     1      19.516   7.138  -8.012  0.00  0.00    +0.047 A 
ATOM     12  C   UNL     1      20.337   6.148  -7.332  0.00  0.00    +0.035 A 
ATOM     32  C   UNL     1      20.703   4.969  -8.044  0.00  0.00    +0.024 A 
ATOM     33  C   UNL     1      20.272   4.751  -9.403  0.00  0.00    +0.007 A 
ATOM     34  C   UNL     1      19.460   5.723 -10.078  0.00  0.00    -0.029 A 
ATOM     35  C   UNL     1      19.023   5.434 -11.533  0.00  0.00    +0.045 C 
ENDROOT
BRANCH  10   9
ATOM      4  C   UNL     1      14.850   9.014 -10.245  0.00  0.00    +0.077 A 
ATOM      5  C   UNL     1      14.142   8.041  -9.465  0.00  0.00    +0.048 A 
ATOM      6  C   UNL     1      14.903   7.019  -8.855  0.00  0.00    +0.116 A 
ATOM      7  N   UNL     1      16.271   6.983  -9.020  0.00  0.00    -0.223 NA
ATOM      8  C   UNL     1      16.923   7.936  -9.781  0.00  0.00    +0.220 A 
ATOM      9  N   UNL     1      18.298   7.923  -9.953  0.00  0.00    -0.283 N 
ATOM     36  H   UNL     1      18.741   8.640 -10.528  0.00  0.00    +0.155 HD
ATOM     37  N   UNL     1      16.218   8.921 -10.374  0.00  0.00    -0.214 NA
BRANCH   4   3
ATOM      1  C   UNL     1      12.159  11.520 -11.579  0.00  0.00    +0.020 A 
ATOM      2  C   UNL     1      12.751  10.402 -10.881  0.00  0.00    +0.013 A 
ATOM      3  C   UNL     1      14.186  10.157 -10.949  0.00  0.00    +0.019 A 
ATOM     38  C   UNL     1      15.001  11.069 -11.736  0.00  0.00    +0.120 A 
ATOM     39  N   UNL     1      14.403  12.137 -12.399  0.00  0.00    -0.263 NA
ATOM     40  C   UNL     1      13.023  12.382 -12.343  0.00  0.00    +0.111 A 
ENDBRANCH   4   3
ENDBRANCH  10   9
BRANCH  12  13
ATOM     13  N   UNL     1      20.797   6.291  -5.973  0.00  0.00    -0.281 N 
ATOM     14  C   UNL     1      21.678   7.232  -5.467  0.00  0.00    +0.248 C 
ATOM     30  O   UNL     1      22.373   7.967  -6.152  0.00  0.00    -0.270 OA
ATOM     31  H   UNL     1      20.429   5.615  -5.303  0.00  0.00    +0.155 HD
BRANCH  14  15
ATOM     15  C   UNL     1      21.819   7.366  -3.985  0.00  0.00    +0.037 A 
ATOM     16  C   UNL     1      22.387   6.287  -3.174  0.00  0.00    +0.013 A 
ATOM     17  C   UNL     1      22.496   6.435  -1.745  0.00  0.00    +0.005 A 
ATOM     18  C   UNL     1      22.034   7.671  -1.116  0.00  0.00    -0.033 A 
ATOM     28  C   UNL     1      21.479   8.728  -1.945  0.00  0.00    +0.005 A 
ATOM     29  C   UNL     1      21.370   8.586  -3.346  0.00  0.00    +0.013 A 
BRANCH  18  19
ATOM     19  C   UNL     1      22.092   7.908   0.405  0.00  0.00    +0.119 C 
BRANCH  19  20
ATOM     20  N   UNL     1      23.364   8.454   0.964  0.00  0.00    -0.302 NA
ATOM     21  C   UNL     1      23.678   7.876   2.347  0.00  0.00    +0.066 C 
ATOM     22  C   UNL     1      25.024   8.441   2.907  0.00  0.00    -0.064 C 
ATOM     23  N   UNL     1      24.950   9.967   2.962  0.00  0.00    +0.379 N 
ATOM     24  C   UNL     1      26.192  10.498   3.543  0.00  0.00    -0.096 C 
ATOM     25  H   UNL     1      24.113  10.241   3.646  0.00  0.00    -0.082 HD
ATOM     26  C   UNL     1      24.635  10.550   1.592  0.00  0.00    -0.064 C 
ATOM     27  C   UNL     1      23.311   9.960   1.031  0.00  0.00    +0.066 C 
ENDBRANCH  19  20
ENDBRANCH  18  19
ENDBRANCH  14  15
ENDBRANCH  12  13
TORSDOF 6
ENDMDL
MODEL 2
REMARK VINA RESULT:      -8.3      1.440      1.821
REMARK  Name = C:\Users\Docking\Desktop\test protocol\1iep_ligandH.pdb
REMARK  8 active torsions:
REMARK  status: ('A' for Active; 'I' for Inactive)
REMARK    1  A    between atoms: _5  and  _11
REMARK    2  A    between atoms: _19  and  _21
REMARK    3  A    between atoms: _22  and  _66
REMARK    4  A    between atoms: _27  and  _30
REMARK    5  A    between atoms: _32  and  _33
REMARK    6  A    between atoms: _38  and  _43
REMARK    7  A    between atoms: _43  and  _46
REMARK    8  A    between atoms: _53  and  _55
REMARK                            x       y       z     vdW  Elec       q    Type
REMARK                         _______ _______ _______ _____ _____    ______ ____
ROOT
ATOM     10  C   UNL     1      18.861   6.887  -9.426  0.00  0.00    +0.038 A 
ATOM     11  C   UNL     1      19.379   7.190  -8.141  0.00  0.00    +0.047 A 
ATOM     12  C   UNL     1      20.252   6.259  -7.443  0.00  0.00    +0.035 A 
ATOM     32  C   UNL     1      20.578   5.028  -8.084  0.00  0.00    +0.024 A 
ATOM     33  C   UNL     1      20.060   4.704  -9.390  0.00  0.00    +0.007 A 
ATOM     34  C   UNL     1      19.197   5.617 -10.082  0.00  0.00    -0.029 A 
ATOM     35  C   UNL     1      18.665   5.214 -11.477  0.00  0.00    +0.045 C 
ENDROOT
BRANCH  10   9
ATOM      4  C   UNL     1      14.556   8.860 -10.208  0.00  0.00    +0.077 A 
ATOM      5  C   UNL     1      13.908   7.942  -9.316  0.00  0.00    +0.048 A 
ATOM      6  C   UNL     1      14.717   6.973  -8.681  0.00  0.00    +0.116 A 
ATOM      7  N   UNL     1      16.072   6.934  -8.928  0.00  0.00    -0.223 NA
ATOM      8  C   UNL     1      16.665   7.833  -9.795  0.00  0.00    +0.220 A 
ATOM      9  N   UNL     1      18.028   7.817 -10.051  0.00  0.00    -0.283 N 
ATOM     36  H   UNL     1      18.426   8.493 -10.703  0.00  0.00    +0.155 HD
ATOM     37  N   UNL     1      15.914   8.767 -10.414  0.00  0.00    -0.214 NA
BRANCH   4   3
ATOM      1  C   UNL     1      11.781  10.928 -12.030  0.00  0.00    +0.020 A 
ATOM      2  C   UNL     1      12.428   9.854 -11.313  0.00  0.00    +0.013 A 
ATOM      3  C   UNL     1      13.837   9.943 -10.950  0.00  0.00    +0.019 A 
ATOM     38  C   UNL     1      14.568  11.143 -11.330  0.00  0.00    +0.120 A 
ATOM     39  N   UNL     1      13.919  12.160 -12.021  0.00  0.00    -0.263 NA
ATOM     40  C   UNL     1      12.564  12.085 -12.378  0.00  0.00    +0.111 A 
ENDBRANCH   4   3
ENDBRANCH  10   9
BRANCH  12  13
ATOM     13  N   UNL     1      20.801   6.509  -6.134  0.00  0.00    -0.281 N 
ATOM     14  C   UNL     1      21.658   7.527  -5.750  0.00  0.00    +0.248 C 
ATOM     30  O   UNL     1      22.255   8.258  -6.527  0.00  0.00    -0.270 OA
ATOM     31  H   UNL     1      20.525   5.855  -5.401  0.00  0.00    +0.155 HD
BRANCH  14  15
ATOM     15  C   UNL     1      21.899   7.758  -4.293  0.00  0.00    +0.037 A 
ATOM     16  C   UNL     1      21.853   6.654  -3.331  0.00  0.00    +0.013 A 
ATOM     17  C   UNL     1      22.071   6.907  -1.929  0.00  0.00    +0.005 A 
ATOM     18  C   UNL     1      22.339   8.272  -1.480  0.00  0.00    -0.033 A 
ATOM     28  C   UNL     1      22.384   9.347  -2.457  0.00  0.00    +0.005 A 
ATOM     29  C   UNL     1      22.170   9.103  -3.832  0.00  0.00    +0.013 A 
BRANCH  18  19
ATOM     19  C   UNL     1      22.563   8.637  -0.001  0.00  0.00    +0.119 C 
BRANCH  19  20
ATOM     20  N   UNL     1      21.997   9.934   0.476  0.00  0.00    -0.302 NA
ATOM     21  C   UNL     1      23.013  11.076   0.379  0.00  0.00    +0.066 C 
ATOM     22  C   UNL     1      22.396  12.429   0.861  0.00  0.00    -0.064 C 
ATOM     23  N   UNL     1      21.892  12.274   2.296  0.00  0.00    +0.379 N 
ATOM     24  C   UNL     1      21.364  13.561   2.773  0.00  0.00    -0.096 C 
ATOM     25  H   UNL     1      22.767  12.009   2.935  0.00  0.00    -0.082 HD
ATOM     26  C   UNL     1      20.883  11.139   2.403  0.00  0.00    -0.064 C 
ATOM     27  C   UNL     1      21.496   9.805   1.894  0.00  0.00    +0.066 C 
ENDBRANCH  19  20
ENDBRANCH  18  19
ENDBRANCH  14  15
ENDBRANCH  12  13
TORSDOF 6
ENDMDL
MODEL 3
REMARK VINA RESULT:      -7.8      6.703     12.625
REMARK  Name = C:\Users\Docking\Desktop\test protocol\1iep_ligandH.pdb
REMARK  8 active torsions:
REMARK  status: ('A' for Active; 'I' for Inactive)
REMARK    1  A    between atoms: _5  and  _11
REMARK    2  A    between atoms: _19  and  _21
REMARK    3  A    between atoms: _22  and  _66
REMARK    4  A    between atoms: _27  and  _30
REMARK    5  A    between atoms: _32  and  _33
REMARK    6  A    between atoms: _38  and  _43
REMARK    7  A    between atoms: _43  and  _46
REMARK    8  A    between atoms: _53  and  _55
REMARK                            x       y       z     vdW  Elec       q    Type
REMARK                         _______ _______ _______ _____ _____    ______ ____
ROOT
ATOM     10  C   UNL     1      13.604   7.556  -9.503  0.00  0.00    +0.038 A 
ATOM     11  C   UNL     1      12.915   6.350  -9.215  0.00  0.00    +0.047 A 
ATOM     12  C   UNL     1      11.595   6.087  -9.767  0.00  0.00    +0.035 A 
ATOM     32  C   UNL     1      11.006   7.074 -10.610  0.00  0.00    +0.024 A 
ATOM     33  C   UNL     1      11.691   8.306 -10.912  0.00  0.00    +0.007 A 
ATOM     34  C   UNL     1      12.993   8.572 -10.369  0.00  0.00    -0.029 A 
ATOM     35  C   UNL     1      13.678   9.913 -10.721  0.00  0.00    +0.045 C 
ENDROOT
BRANCH  10   9
ATOM      4  C   UNL     1      18.329   6.733  -9.329  0.00  0.00    +0.077 A 
ATOM      5  C   UNL     1      18.268   5.805 -10.422  0.00  0.00    +0.048 A 
ATOM      6  C   UNL     1      17.000   5.562 -10.996  0.00  0.00    +0.116 A 
ATOM      7  N   UNL     1      15.883   6.205 -10.506  0.00  0.00    -0.223 NA
ATOM      8  C   UNL     1      15.977   7.093  -9.450  0.00  0.00    +0.220 A 
ATOM      9  N   UNL     1      14.869   7.756  -8.947  0.00  0.00    -0.283 N 
ATOM     36  H   UNL     1      14.979   8.398  -8.162  0.00  0.00    +0.155 HD
ATOM     37  N   UNL     1      17.177   7.341  -8.884  0.00  0.00    -0.214 NA
BRANCH   4   3
ATOM      1  C   UNL     1      21.193   6.943  -6.673  0.00  0.00    +0.020 A 
ATOM      2  C   UNL     1      19.956   6.559  -7.314  0.00  0.00    +0.013 A 
ATOM      3  C   UNL     1      19.597   7.097  -8.620  0.00  0.00    +0.019 A 
ATOM     38  C   UNL     1      20.518   8.028  -9.255  0.00  0.00    +0.120 A 
ATOM     39  N   UNL     1      21.700   8.380  -8.613  0.00  0.00    -0.263 NA
ATOM     40  C   UNL     1      22.056   7.870  -7.355  0.00  0.00    +0.111 A 
ENDBRANCH   4   3
ENDBRANCH  10   9
BRANCH  12  13
ATOM     13  N   UNL     1      10.845   4.884  -9.503  0.00  0.00    -0.281 N 
ATOM     14  C   UNL     1      11.226   3.573  -9.741  0.00  0.00    +0.248 C 
ATOM     30  O   UNL     1      12.189   3.246 -10.418  0.00  0.00    -0.270 OA
ATOM     31  H   UNL     1       9.921   5.014  -9.092  0.00  0.00    +0.155 HD
BRANCH  14  15
ATOM     15  C   UNL     1      10.410   2.467  -9.155  0.00  0.00    +0.037 A 
ATOM     16  C   UNL     1      10.775   1.063  -9.361  0.00  0.00    +0.013 A 
ATOM     17  C   UNL     1       9.961   0.014  -8.798  0.00  0.00    +0.005 A 
ATOM     18  C   UNL     1       8.775   0.367  -8.022  0.00  0.00    -0.033 A 
ATOM     28  C   UNL     1       8.439   1.768  -7.828  0.00  0.00    +0.005 A 
ATOM     29  C   UNL     1       9.234   2.798  -8.379  0.00  0.00    +0.013 A 
BRANCH  18  19
ATOM     19  C   UNL     1       7.837  -0.687  -7.402  0.00  0.00    +0.119 C 
BRANCH  19  20
ATOM     20  N   UNL     1       8.057  -1.039  -5.968  0.00  0.00    -0.302 NA
ATOM     21  C   UNL     1       7.847   0.163  -5.043  0.00  0.00    +0.066 C 
ATOM     22  C   UNL     1       8.059  -0.228  -3.544  0.00  0.00    -0.064 C 
ATOM     23  N   UNL     1       9.462  -0.811  -3.366  0.00  0.00    +0.379 N 
ATOM     24  C   UNL     1       9.686  -1.126  -1.947  0.00  0.00    -0.096 C 
ATOM     25  H   UNL     1      10.195  -0.023  -3.656  0.00  0.00    -0.082 HD
ATOM     26  C   UNL     1       9.680  -2.005  -4.284  0.00  0.00    -0.064 C 
ATOM     27  C   UNL     1       9.438  -1.612  -5.768  0.00  0.00    +0.066 C 
ENDBRANCH  19  20
ENDBRANCH  18  19
ENDBRANCH  14  15
ENDBRANCH  12  13
TORSDOF 6
ENDMDL
MODEL 4
REMARK VINA RESULT:      -7.8     27.598     30.769
REMARK  Name = C:\Users\Docking\Desktop\test protocol\1iep_ligandH.pdb
REMARK  8 active torsions:
REMARK  status: ('A' for Active; 'I' for Inactive)
REMARK    1  A    between atoms: _5  and  _11
REMARK    2  A    between atoms: _19  and  _21
REMARK    3  A    between atoms: _22  and  _66
REMARK    4  A    between atoms: _27  and  _30
REMARK    5  A    between atoms: _32  and  _33
REMARK    6  A    between atoms: _38  and  _43
REMARK    7  A    between atoms: _43  and  _46
REMARK    8  A    between atoms: _53  and  _55
REMARK                            x       y       z     vdW  Elec       q    Type
REMARK                         _______ _______ _______ _____ _____    ______ ____
ROOT
ATOM     10  C   UNL     1      28.119  -9.194  14.408  0.00  0.00    +0.038 A 
ATOM     11  C   UNL     1      27.225  -9.041  15.498  0.00  0.00    +0.047 A 
ATOM     12  C   UNL     1      26.294 -10.097  15.862  0.00  0.00    +0.035 A 
ATOM     32  C   UNL     1      26.302 -11.299  15.095  0.00  0.00    +0.024 A 
ATOM     33  C   UNL     1      27.204 -11.471  13.983  0.00  0.00    +0.007 A 
ATOM     34  C   UNL     1      28.122 -10.431  13.618  0.00  0.00    -0.029 A 
ATOM     35  C   UNL     1      29.061 -10.668  12.412  0.00  0.00    +0.045 C 
ENDROOT
BRANCH  10   9
ATOM      4  C   UNL     1      32.007  -6.526  15.306  0.00  0.00    +0.077 A 
ATOM      5  C   UNL     1      32.310  -7.264  16.499  0.00  0.00    +0.048 A 
ATOM      6  C   UNL     1      31.437  -8.317  16.850  0.00  0.00    +0.116 A 
ATOM      7  N   UNL     1      30.344  -8.603  16.060  0.00  0.00    -0.223 NA
ATOM      8  C   UNL     1      30.080  -7.872  14.917  0.00  0.00    +0.220 A 
ATOM      9  N   UNL     1      28.992  -8.147  14.103  0.00  0.00    -0.283 N 
ATOM     36  H   UNL     1      28.827  -7.579  13.272  0.00  0.00    +0.155 HD
ATOM     37  N   UNL     1      30.898  -6.860  14.560  0.00  0.00    -0.214 NA
BRANCH   4   3
ATOM      1  C   UNL     1      33.135  -3.231  13.527  0.00  0.00    +0.020 A 
ATOM      2  C   UNL     1      32.291  -4.308  13.988  0.00  0.00    +0.013 A 
ATOM      3  C   UNL     1      32.837  -5.387  14.801  0.00  0.00    +0.019 A 
ATOM     38  C   UNL     1      34.253  -5.346  15.133  0.00  0.00    +0.120 A 
ATOM     39  N   UNL     1      35.043  -4.296  14.673  0.00  0.00    -0.263 NA
ATOM     40  C   UNL     1      34.528  -3.253  13.889  0.00  0.00    +0.111 A 
ENDBRANCH   4   3
ENDBRANCH  10   9
BRANCH  12  13
ATOM     13  N   UNL     1      25.358  -9.996  16.954  0.00  0.00    -0.281 N 
ATOM     14  C   UNL     1      25.545 -10.369  18.274  0.00  0.00    +0.248 C 
ATOM     30  O   UNL     1      26.479 -11.049  18.674  0.00  0.00    -0.270 OA
ATOM     31  H   UNL     1      24.446  -9.600  16.725  0.00  0.00    +0.155 HD
BRANCH  14  15
ATOM     15  C   UNL     1      24.544  -9.938  19.296  0.00  0.00    +0.037 A 
ATOM     16  C   UNL     1      24.409 -10.643  20.574  0.00  0.00    +0.013 A 
ATOM     17  C   UNL     1      23.423 -10.216  21.535  0.00  0.00    +0.005 A 
ATOM     18  C   UNL     1      22.564  -9.076  21.222  0.00  0.00    -0.033 A 
ATOM     28  C   UNL     1      22.723  -8.392  19.950  0.00  0.00    +0.005 A 
ATOM     29  C   UNL     1      23.687  -8.808  19.005  0.00  0.00    +0.013 A 
BRANCH  18  19
ATOM     19  C   UNL     1      21.471  -8.565  22.179  0.00  0.00    +0.119 C 
BRANCH  19  20
ATOM     20  N   UNL     1      21.491  -7.113  22.527  0.00  0.00    -0.302 NA
ATOM     21  C   UNL     1      22.673  -6.755  23.431  0.00  0.00    +0.066 C 
ATOM     22  C   UNL     1      22.691  -5.228  23.766  0.00  0.00    -0.064 C 
ATOM     23  N   UNL     1      21.368  -4.838  24.426  0.00  0.00    +0.379 N 
ATOM     24  C   UNL     1      21.404  -3.415  24.795  0.00  0.00    -0.096 C 
ATOM     25  H   UNL     1      21.271  -5.429  25.366  0.00  0.00    -0.082 HD
ATOM     26  C   UNL     1      20.186  -5.193  23.534  0.00  0.00    -0.064 C 
ATOM     27  C   UNL     1      20.194  -6.707  23.183  0.00  0.00    +0.066 C 
ENDBRANCH  19  20
ENDBRANCH  18  19
ENDBRANCH  14  15
ENDBRANCH  12  13
TORSDOF 6
ENDMDL
MODEL 5
REMARK VINA RESULT:      -7.6     18.810     20.336
REMARK  Name = C:\Users\Docking\Desktop\test protocol\1iep_ligandH.pdb
REMARK  8 active torsions:
REMARK  status: ('A' for Active; 'I' for Inactive)
REMARK    1  A    between atoms: _5  and  _11
REMARK    2  A    between atoms: _19  and  _21
REMARK    3  A    between atoms: _22  and  _66
REMARK    4  A    between atoms: _27  and  _30
REMARK    5  A    between atoms: _32  and  _33
REMARK    6  A    between atoms: _38  and  _43
REMARK    7  A    between atoms: _43  and  _46
REMARK    8  A    between atoms: _53  and  _55
REMARK                            x       y       z     vdW  Elec       q    Type
REMARK                         _______ _______ _______ _____ _____    ______ ____
ROOT
ATOM     10  C   UNL     1      14.294  -7.467  -2.397  0.00  0.00    +0.038 A 
ATOM     11  C   UNL     1      14.470  -8.090  -1.136  0.00  0.00    +0.047 A 
ATOM     12  C   UNL     1      15.085  -9.404  -1.024  0.00  0.00    +0.035 A 
ATOM     32  C   UNL     1      15.512 -10.054  -2.219  0.00  0.00    +0.024 A 
ATOM     33  C   UNL     1      15.340  -9.435  -3.510  0.00  0.00    +0.007 A 
ATOM     34  C   UNL     1      14.732  -8.141  -3.626  0.00  0.00    -0.029 A 
ATOM     35  C   UNL     1      14.567  -7.528  -5.037  0.00  0.00    +0.045 C 
ENDROOT
BRANCH  10   9
ATOM      4  C   UNL     1      10.512  -4.598  -3.103  0.00  0.00    +0.077 A 
ATOM      5  C   UNL     1       9.659  -5.704  -3.429  0.00  0.00    +0.048 A 
ATOM      6  C   UNL     1      10.234  -6.994  -3.410  0.00  0.00    +0.116 A 
ATOM      7  N   UNL     1      11.564  -7.155  -3.088  0.00  0.00    -0.223 NA
ATOM      8  C   UNL     1      12.360  -6.066  -2.781  0.00  0.00    +0.220 A 
ATOM      9  N   UNL     1      13.698  -6.205  -2.446  0.00  0.00    -0.283 N 
ATOM     36  H   UNL     1      14.253  -5.377  -2.233  0.00  0.00    +0.155 HD
ATOM     37  N   UNL     1      11.835  -4.824  -2.793  0.00  0.00    -0.214 NA
BRANCH   4   3
ATOM      1  C   UNL     1       9.163  -1.133  -1.889  0.00  0.00    +0.020 A 
ATOM      2  C   UNL     1       9.598  -2.510  -1.860  0.00  0.00    +0.013 A 
ATOM      3  C   UNL     1      10.051  -3.173  -3.076  0.00  0.00    +0.019 A 
ATOM     38  C   UNL     1      10.052  -2.409  -4.314  0.00  0.00    +0.120 A 
ATOM     39  N   UNL     1       9.627  -1.084  -4.311  0.00  0.00    -0.263 NA
ATOM     40  C   UNL     1       9.187  -0.436  -3.148  0.00  0.00    +0.111 A 
ENDBRANCH   4   3
ENDBRANCH  10   9
BRANCH  12  13
ATOM     13  N   UNL     1      15.283 -10.090   0.229  0.00  0.00    -0.281 N 
ATOM     14  C   UNL     1      14.570 -11.165   0.733  0.00  0.00    +0.248 C 
ATOM     30  O   UNL     1      13.511 -11.568   0.275  0.00  0.00    -0.270 OA
ATOM     31  H   UNL     1      16.040  -9.739   0.816  0.00  0.00    +0.155 HD
BRANCH  14  15
ATOM     15  C   UNL     1      15.104 -11.890   1.926  0.00  0.00    +0.037 A 
ATOM     16  C   UNL     1      15.595 -11.162   3.099  0.00  0.00    +0.013 A 
ATOM     17  C   UNL     1      16.121 -11.885   4.230  0.00  0.00    +0.005 A 
ATOM     18  C   UNL     1      16.155 -13.345   4.194  0.00  0.00    -0.033 A 
ATOM     28  C   UNL     1      15.656 -14.042   3.020  0.00  0.00    +0.005 A 
ATOM     29  C   UNL     1      15.142 -13.336   1.909  0.00  0.00    +0.013 A 
BRANCH  18  19
ATOM     19  C   UNL     1      16.718 -14.198   5.347  0.00  0.00    +0.119 C 
BRANCH  19  20
ATOM     20  N   UNL     1      15.770 -14.594   6.430  0.00  0.00    -0.302 NA
ATOM     21  C   UNL     1      16.498 -14.939   7.733  0.00  0.00    +0.066 C 
ATOM     22  C   UNL     1      15.489 -15.329   8.862  0.00  0.00    -0.064 C 
ATOM     23  N   UNL     1      14.632 -16.506   8.392  0.00  0.00    +0.379 N 
ATOM     24  C   UNL     1      13.722 -16.912   9.473  0.00  0.00    -0.096 C 
ATOM     25  H   UNL     1      15.316 -17.361   8.186  0.00  0.00    -0.082 HD
ATOM     26  C   UNL     1      13.907 -16.172   7.096  0.00  0.00    -0.064 C 
ATOM     27  C   UNL     1      14.916 -15.757   5.989  0.00  0.00    +0.066 C 
ENDBRANCH  19  20
ENDBRANCH  18  19
ENDBRANCH  14  15
ENDBRANCH  12  13
TORSDOF 6
ENDMDL
