MODEL 1
REMARK VINA RESULT:      -9.2      0.000      0.000
REMARK  Name = C:\Users\Docking\Desktop\test protocol\1iep_ligandH.pdb
REMARK  8 active torsions:
REMARK  status: ('A' for Active; 'I' for Inactive)
REMARK    1  A    between atoms: _5  and  _11
REMARK    2  A    between atoms: _19  and  _21
REMARK    3  A    between atoms: _22  and  _66
REMARK    4  A    between atoms: _27  and  _30
REMARK    5  A    between atoms: _32  and  _33
REMARK    6  A    between atoms: _38  and  _43
REMARK    7  A    between atoms: _43  and  _46
REMARK    8  A    between atoms: _53  and  _55
REMARK                            x       y       z     vdW  Elec       q    Type
REMARK                         _______ _______ _______ _____ _____    ______ ____
ROOT
ATOM     10  C   UNL     1      17.952   4.766   3.399  0.00  0.00    +0.038 A 
ATOM     11  C   UNL     1      17.639   5.974   4.073  0.00  0.00    +0.047 A 
ATOM     12  C   UNL     1      18.453   6.451   5.180  0.00  0.00    +0.035 A 
ATOM     32  C   UNL     1      19.581   5.674   5.574  0.00  0.00    +0.024 A 
ATOM     33  C   UNL     1      19.913   4.442   4.901  0.00  0.00    +0.007 A 
ATOM     34  C   UNL     1      19.112   3.965   3.810  0.00  0.00    -0.029 A 
ATOM     35  C   UNL     1      19.511   2.635   3.130  0.00  0.00    +0.045 C 
ENDROOT
BRANCH  10   9
ATOM      4  C   UNL     1      14.434   2.059   1.573  0.00  0.00    +0.077 A 
ATOM      5  C   UNL     1      14.222   1.388   2.823  0.00  0.00    +0.048 A 
ATOM      6  C   UNL     1      15.043   1.763   3.909  0.00  0.00    +0.116 A 
ATOM      7  N   UNL     1      16.003   2.739   3.746  0.00  0.00    -0.223 NA
ATOM      8  C   UNL     1      16.183   3.366   2.527  0.00  0.00    +0.220 A 
ATOM      9  N   UNL     1      17.137   4.355   2.343  0.00  0.00    -0.283 N 
ATOM     36  H   UNL     1      17.243   4.788   1.426  0.00  0.00    +0.155 HD
ATOM     37  N   UNL     1      15.412   3.024   1.474  0.00  0.00    -0.214 NA
BRANCH   4   3
ATOM      1  C   UNL     1      11.477   1.368  -0.892  0.00  0.00    +0.020 A 
ATOM      2  C   UNL     1      12.193   1.641   0.333  0.00  0.00    +0.013 A 
ATOM      3  C   UNL     1      13.644   1.775   0.333  0.00  0.00    +0.019 A 
ATOM     38  C   UNL     1      14.346   1.626  -0.932  0.00  0.00    +0.120 A 
ATOM     39  N   UNL     1      13.631   1.361  -2.096  0.00  0.00    -0.263 NA
ATOM     40  C   UNL     1      12.234   1.228  -2.108  0.00  0.00    +0.111 A 
ENDBRANCH   4   3
ENDBRANCH  10   9
BRANCH  12  13
ATOM     13  N   UNL     1      18.179   7.666   5.906  0.00  0.00    -0.281 N 
ATOM     14  C   UNL     1      19.077   8.649   6.290  0.00  0.00    +0.248 C 
ATOM     30  O   UNL     1      20.292   8.529   6.253  0.00  0.00    -0.270 OA
ATOM     31  H   UNL     1      17.206   7.820   6.170  0.00  0.00    +0.155 HD
BRANCH  14  15
ATOM     15  C   UNL     1      18.547   9.949   6.804  0.00  0.00    +0.037 A 
ATOM     16  C   UNL     1      18.143  11.020   5.889  0.00  0.00    +0.013 A 
ATOM     17  C   UNL     1      17.652  12.270   6.411  0.00  0.00    +0.005 A 
ATOM     18  C   UNL     1      17.561  12.456   7.858  0.00  0.00    -0.033 A 
ATOM     28  C   UNL     1      17.964  11.376   8.742  0.00  0.00    +0.005 A 
ATOM     29  C   UNL     1      18.447  10.149   8.234  0.00  0.00    +0.013 A 
BRANCH  18  19
ATOM     19  C   UNL     1      17.068  13.765   8.503  0.00  0.00    +0.119 C 
BRANCH  19  20
ATOM     20  N   UNL     1      18.073  14.854   8.693  0.00  0.00    -0.302 NA
ATOM     21  C   UNL     1      19.147  14.472   9.715  0.00  0.00    +0.066 C 
ATOM     22  C   UNL     1      20.202  15.614   9.885  0.00  0.00    -0.064 C 
ATOM     23  N   UNL     1      19.492  16.903  10.301  0.00  0.00    +0.379 N 
ATOM     24  C   UNL     1      20.487  17.963  10.518  0.00  0.00    -0.096 C 
ATOM     25  H   UNL     1      18.985  16.710  11.276  0.00  0.00    -0.082 HD
ATOM     26  C   UNL     1      18.420  17.288   9.292  0.00  0.00    -0.064 C 
ATOM     27  C   UNL     1      17.393  16.136   9.109  0.00  0.00    +0.066 C 
ENDBRANCH  19  20
ENDBRANCH  18  19
ENDBRANCH  14  15
ENDBRANCH  12  13
TORSDOF 6
ENDMDL
MODEL 2
REMARK VINA RESULT:      -9.0      9.161     15.744
REMARK  Name = C:\Users\Docking\Desktop\test protocol\1iep_ligandH.pdb
REMARK  8 active torsions:
REMARK  status: ('A' for Active; 'I' for Inactive)
REMARK    1  A    between atoms: _5  and  _11
REMARK    2  A    between atoms: _19  and  _21
REMARK    3  A    between atoms: _22  and  _66
REMARK    4  A    between atoms: _27  and  _30
REMARK    5  A    between atoms: _32  and  _33
REMARK    6  A    between atoms: _38  and  _43
REMARK    7  A    between atoms: _43  and  _46
REMARK    8  A    between atoms: _53  and  _55
REMARK                            x       y       z     vdW  Elec       q    Type
REMARK                         _______ _______ _______ _____ _____    ______ ____
ROOT
ATOM     10  C   UNL     1      17.454  17.840   9.064  0.00  0.00    +0.038 A 
ATOM     11  C   UNL     1      18.354  16.755   9.228  0.00  0.00    +0.047 A 
ATOM     12  C   UNL     1      17.869  15.407   9.478  0.00  0.00    +0.035 A 
ATOM     32  C   UNL     1      16.461  15.198   9.551  0.00  0.00    +0.024 A 
ATOM     33  C   UNL     1      15.532  16.289   9.387  0.00  0.00    +0.007 A 
ATOM     34  C   UNL     1      16.005  17.622   9.144  0.00  0.00    -0.029 A 
ATOM     35  C   UNL     1      14.964  18.754   8.982  0.00  0.00    +0.045 C 
ENDROOT
BRANCH  10   9
ATOM      4  C   UNL     1      20.289  21.537  10.218  0.00  0.00    +0.077 A 
ATOM      5  C   UNL     1      20.752  20.886  11.410  0.00  0.00    +0.048 A 
ATOM      6  C   UNL     1      20.231  19.603  11.693  0.00  0.00    +0.116 A 
ATOM      7  N   UNL     1      19.316  19.025  10.841  0.00  0.00    -0.223 NA
ATOM      8  C   UNL     1      18.889  19.680   9.701  0.00  0.00    +0.220 A 
ATOM      9  N   UNL     1      17.974  19.114   8.826  0.00  0.00    -0.283 N 
ATOM     36  H   UNL     1      17.679  19.633   8.000  0.00  0.00    +0.155 HD
ATOM     37  N   UNL     1      19.370  20.907   9.409  0.00  0.00    -0.214 NA
BRANCH   4   3
ATOM      1  C   UNL     1      20.426  25.378   9.493  0.00  0.00    +0.020 A 
ATOM      2  C   UNL     1      19.935  24.092   9.932  0.00  0.00    +0.013 A 
ATOM      3  C   UNL     1      20.749  22.893   9.781  0.00  0.00    +0.019 A 
ATOM     38  C   UNL     1      22.067  23.030   9.179  0.00  0.00    +0.120 A 
ATOM     39  N   UNL     1      22.513  24.282   8.765  0.00  0.00    -0.263 NA
ATOM     40  C   UNL     1      21.737  25.442   8.903  0.00  0.00    +0.111 A 
ENDBRANCH   4   3
ENDBRANCH  10   9
BRANCH  12  13
ATOM     13  N   UNL     1      18.734  14.268   9.661  0.00  0.00    -0.281 N 
ATOM     14  C   UNL     1      19.069  13.295   8.733  0.00  0.00    +0.248 C 
ATOM     30  O   UNL     1      18.502  13.137   7.662  0.00  0.00    -0.270 OA
ATOM     31  H   UNL     1      19.151  14.168  10.586  0.00  0.00    +0.155 HD
BRANCH  14  15
ATOM     15  C   UNL     1      20.185  12.352   9.047  0.00  0.00    +0.037 A 
ATOM     16  C   UNL     1      20.189  10.980   8.531  0.00  0.00    +0.013 A 
ATOM     17  C   UNL     1      21.269  10.086   8.863  0.00  0.00    +0.005 A 
ATOM     18  C   UNL     1      22.356  10.561   9.716  0.00  0.00    -0.033 A 
ATOM     28  C   UNL     1      22.330  11.928  10.210  0.00  0.00    +0.005 A 
ATOM     29  C   UNL     1      21.272  12.807   9.887  0.00  0.00    +0.013 A 
BRANCH  18  19
ATOM     19  C   UNL     1      23.538   9.669  10.139  0.00  0.00    +0.119 C 
BRANCH  19  20
ATOM     20  N   UNL     1      23.469   9.037  11.490  0.00  0.00    -0.302 NA
ATOM     21  C   UNL     1      24.278   9.817  12.531  0.00  0.00    +0.066 C 
ATOM     22  C   UNL     1      24.176   9.154  13.943  0.00  0.00    -0.064 C 
ATOM     23  N   UNL     1      24.656   7.705  13.859  0.00  0.00    +0.379 N 
ATOM     24  C   UNL     1      24.617   7.097  15.197  0.00  0.00    -0.096 C 
ATOM     25  H   UNL     1      25.720   7.720  13.526  0.00  0.00    -0.082 HD
ATOM     26  C   UNL     1      23.859   6.923  12.825  0.00  0.00    -0.064 C 
ATOM     27  C   UNL     1      23.943   7.606  11.431  0.00  0.00    +0.066 C 
ENDBRANCH  19  20
ENDBRANCH  18  19
ENDBRANCH  14  15
ENDBRANCH  12  13
TORSDOF 6
ENDMDL
MODEL 3
REMARK VINA RESULT:      -9.0      6.763     12.308
REMARK  Name = C:\Users\Docking\Desktop\test protocol\1iep_ligandH.pdb
REMARK  8 active torsions:
REMARK  status: ('A' for Active; 'I' for Inactive)
REMARK    1  A    between atoms: _5  and  _11
REMARK    2  A    between atoms: _19  and  _21
REMARK    3  A    between atoms: _22  and  _66
REMARK    4  A    between atoms: _27  and  _30
REMARK    5  A    between atoms: _32  and  _33
REMARK    6  A    between atoms: _38  and  _43
REMARK    7  A    between atoms: _43  and  _46
REMARK    8  A    between atoms: _53  and  _55
REMARK                            x       y       z     vdW  Elec       q    Type
REMARK                         _______ _______ _______ _____ _____    ______ ____
ROOT
ATOM     10  C   UNL     1      15.911  16.234   8.811  0.00  0.00    +0.038 A 
ATOM     11  C   UNL     1      16.814  17.324   8.729  0.00  0.00    +0.047 A 
ATOM     12  C   UNL     1      16.510  18.602   9.355  0.00  0.00    +0.035 A 
ATOM     32  C   UNL     1      15.278  18.732  10.060  0.00  0.00    +0.024 A 
ATOM     33  C   UNL     1      14.348  17.634  10.152  0.00  0.00    +0.007 A 
ATOM     34  C   UNL     1      14.641  16.373   9.534  0.00  0.00    -0.029 A 
ATOM     35  C   UNL     1      13.604  15.232   9.660  0.00  0.00    +0.045 C 
ENDROOT
BRANCH  10   9
ATOM      4  C   UNL     1      18.586  12.264   8.462  0.00  0.00    +0.077 A 
ATOM      5  C   UNL     1      19.387  12.633   9.595  0.00  0.00    +0.048 A 
ATOM      6  C   UNL     1      19.082  13.855  10.234  0.00  0.00    +0.116 A 
ATOM      7  N   UNL     1      18.051  14.642   9.768  0.00  0.00    -0.223 NA
ATOM      8  C   UNL     1      17.300  14.258   8.673  0.00  0.00    +0.220 A 
ATOM      9  N   UNL     1      16.253  15.030   8.192  0.00  0.00    -0.283 N 
ATOM     36  H   UNL     1      15.728  14.715   7.376  0.00  0.00    +0.155 HD
ATOM     37  N   UNL     1      17.572  13.096   8.043  0.00  0.00    -0.214 NA
BRANCH   4   3
ATOM      1  C   UNL     1      18.017   9.240   6.047  0.00  0.00    +0.020 A 
ATOM      2  C   UNL     1      17.776  10.464   6.777  0.00  0.00    +0.013 A 
ATOM      3  C   UNL     1      18.784  11.001   7.683  0.00  0.00    +0.019 A 
ATOM     38  C   UNL     1      20.034  10.271   7.828  0.00  0.00    +0.120 A 
ATOM     39  N   UNL     1      20.237   9.094   7.114  0.00  0.00    -0.263 NA
ATOM     40  C   UNL     1      19.274   8.567   6.241  0.00  0.00    +0.111 A 
ENDBRANCH   4   3
ENDBRANCH  10   9
BRANCH  12  13
ATOM     13  N   UNL     1      17.384  19.747   9.299  0.00  0.00    -0.281 N 
ATOM     14  C   UNL     1      18.563  19.953   9.996  0.00  0.00    +0.248 C 
ATOM     30  O   UNL     1      18.937  19.272  10.940  0.00  0.00    -0.270 OA
ATOM     31  H   UNL     1      17.099  20.496   8.668  0.00  0.00    +0.155 HD
BRANCH  14  15
ATOM     15  C   UNL     1      19.449  21.089   9.596  0.00  0.00    +0.037 A 
ATOM     16  C   UNL     1      18.943  22.198   8.784  0.00  0.00    +0.013 A 
ATOM     17  C   UNL     1      19.823  23.272   8.398  0.00  0.00    +0.005 A 
ATOM     18  C   UNL     1      21.220  23.243   8.826  0.00  0.00    -0.033 A 
ATOM     28  C   UNL     1      21.694  22.133   9.636  0.00  0.00    +0.005 A 
ATOM     29  C   UNL     1      20.835  21.078  10.015  0.00  0.00    +0.013 A 
BRANCH  18  19
ATOM     19  C   UNL     1      22.235  24.336   8.443  0.00  0.00    +0.119 C 
BRANCH  19  20
ATOM     20  N   UNL     1      23.169  24.037   7.317  0.00  0.00    -0.302 NA
ATOM     21  C   UNL     1      22.568  23.041   6.321  0.00  0.00    +0.066 C 
ATOM     22  C   UNL     1      23.550  22.757   5.138  0.00  0.00    -0.064 C 
ATOM     23  N   UNL     1      24.876  22.235   5.693  0.00  0.00    +0.379 N 
ATOM     24  C   UNL     1      25.781  21.912   4.580  0.00  0.00    -0.096 C 
ATOM     25  H   UNL     1      24.664  21.288   6.242  0.00  0.00    -0.082 HD
ATOM     26  C   UNL     1      25.479  23.218   6.686  0.00  0.00    -0.064 C 
ATOM     27  C   UNL     1      24.484  23.516   7.843  0.00  0.00    +0.066 C 
ENDBRANCH  19  20
ENDBRANCH  18  19
ENDBRANCH  14  15
ENDBRANCH  12  13
TORSDOF 6
ENDMDL
MODEL 4
REMARK VINA RESULT:      -8.8      3.214     13.857
REMARK  Name = C:\Users\Docking\Desktop\test protocol\1iep_ligandH.pdb
REMARK  8 active torsions:
REMARK  status: ('A' for Active; 'I' for Inactive)
REMARK    1  A    between atoms: _5  and  _11
REMARK    2  A    between atoms: _19  and  _21
REMARK    3  A    between atoms: _22  and  _66
REMARK    4  A    between atoms: _27  and  _30
REMARK    5  A    between atoms: _32  and  _33
REMARK    6  A    between atoms: _38  and  _43
REMARK    7  A    between atoms: _43  and  _46
REMARK    8  A    between atoms: _53  and  _55
REMARK                            x       y       z     vdW  Elec       q    Type
REMARK                         _______ _______ _______ _____ _____    ______ ____
ROOT
ATOM     10  C   UNL     1      17.171   4.434   4.543  0.00  0.00    +0.038 A 
ATOM     11  C   UNL     1      16.666   4.416   3.218  0.00  0.00    +0.047 A 
ATOM     12  C   UNL     1      16.662   3.192   2.431  0.00  0.00    +0.035 A 
ATOM     32  C   UNL     1      17.177   2.004   3.027  0.00  0.00    +0.024 A 
ATOM     33  C   UNL     1      17.694   2.005   4.373  0.00  0.00    +0.007 A 
ATOM     34  C   UNL     1      17.703   3.210   5.153  0.00  0.00    -0.029 A 
ATOM     35  C   UNL     1      18.276   3.154   6.588  0.00  0.00    +0.045 C 
ENDROOT
BRANCH  10   9
ATOM      4  C   UNL     1      19.313   8.369   6.264  0.00  0.00    +0.077 A 
ATOM      5  C   UNL     1      20.586   7.983   5.727  0.00  0.00    +0.048 A 
ATOM      6  C   UNL     1      20.649   6.761   5.021  0.00  0.00    +0.116 A 
ATOM      7  N   UNL     1      19.516   5.991   4.869  0.00  0.00    -0.223 NA
ATOM      8  C   UNL     1      18.304   6.392   5.400  0.00  0.00    +0.220 A 
ATOM      9  N   UNL     1      17.151   5.637   5.253  0.00  0.00    -0.283 N 
ATOM     36  H   UNL     1      16.278   5.964   5.666  0.00  0.00    +0.155 HD
ATOM     37  N   UNL     1      18.219   7.554   6.081  0.00  0.00    -0.214 NA
BRANCH   4   3
ATOM      1  C   UNL     1      17.688  11.626   7.697  0.00  0.00    +0.020 A 
ATOM      2  C   UNL     1      17.857  10.412   6.933  0.00  0.00    +0.013 A 
ATOM      3  C   UNL     1      19.086   9.634   7.032  0.00  0.00    +0.019 A 
ATOM     38  C   UNL     1      20.132  10.117   7.921  0.00  0.00    +0.120 A 
ATOM     39  N   UNL     1      19.942  11.291   8.643  0.00  0.00    -0.263 NA
ATOM     40  C   UNL     1      18.764  12.048   8.554  0.00  0.00    +0.111 A 
ENDBRANCH   4   3
ENDBRANCH  10   9
BRANCH  12  13
ATOM     13  N   UNL     1      16.170   3.114   1.078  0.00  0.00    -0.281 N 
ATOM     14  C   UNL     1      15.079   2.402   0.608  0.00  0.00    +0.248 C 
ATOM     30  O   UNL     1      14.483   1.548   1.248  0.00  0.00    -0.270 OA
ATOM     31  H   UNL     1      16.690   3.649   0.382  0.00  0.00    +0.155 HD
BRANCH  14  15
ATOM     15  C   UNL     1      14.587   2.666  -0.779  0.00  0.00    +0.037 A 
ATOM     16  C   UNL     1      15.517   2.789  -1.904  0.00  0.00    +0.013 A 
ATOM     17  C   UNL     1      15.017   3.060  -3.229  0.00  0.00    +0.005 A 
ATOM     18  C   UNL     1      13.579   3.210  -3.435  0.00  0.00    -0.033 A 
ATOM     28  C   UNL     1      12.678   3.079  -2.301  0.00  0.00    +0.005 A 
ATOM     29  C   UNL     1      13.165   2.813  -1.001  0.00  0.00    +0.013 A 
BRANCH  18  19
ATOM     19  C   UNL     1      12.958   3.522  -4.810  0.00  0.00    +0.119 C 
BRANCH  19  20
ATOM     20  N   UNL     1      11.917   2.581  -5.319  0.00  0.00    -0.302 NA
ATOM     21  C   UNL     1      12.378   1.123  -5.253  0.00  0.00    +0.066 C 
ATOM     22  C   UNL     1      11.268   0.151  -5.769  0.00  0.00    -0.064 C 
ATOM     23  N   UNL     1      10.883   0.533  -7.199  0.00  0.00    +0.379 N 
ATOM     24  C   UNL     1       9.881  -0.415  -7.708  0.00  0.00    -0.096 C 
ATOM     25  H   UNL     1      11.795   0.433  -7.833  0.00  0.00    -0.082 HD
ATOM     26  C   UNL     1      10.426   1.983  -7.274  0.00  0.00    -0.064 C 
ATOM     27  C   UNL     1      11.525   2.938  -6.732  0.00  0.00    +0.066 C 
ENDBRANCH  19  20
ENDBRANCH  18  19
ENDBRANCH  14  15
ENDBRANCH  12  13
TORSDOF 6
ENDMDL
MODEL 5
REMARK VINA RESULT:      -8.8     13.254     15.981
REMARK  Name = C:\Users\Docking\Desktop\test protocol\1iep_ligandH.pdb
REMARK  8 active torsions:
REMARK  status: ('A' for Active; 'I' for Inactive)
REMARK    1  A    between atoms: _5  and  _11
REMARK    2  A    between atoms: _19  and  _21
REMARK    3  A    between atoms: _22  and  _66
REMARK    4  A    between atoms: _27  and  _30
REMARK    5  A    between atoms: _32  and  _33
REMARK    6  A    between atoms: _38  and  _43
REMARK    7  A    between atoms: _43  and  _46
REMARK    8  A    between atoms: _53  and  _55
REMARK                            x       y       z     vdW  Elec       q    Type
REMARK                         _______ _______ _______ _____ _____    ______ ____
ROOT
ATOM     10  C   UNL     1       8.920  -2.525  -6.327  0.00  0.00    +0.038 A 
ATOM     11  C   UNL     1       9.575  -1.269  -6.262  0.00  0.00    +0.047 A 
ATOM     12  C   UNL     1       8.819  -0.032  -6.136  0.00  0.00    +0.035 A 
ATOM     32  C   UNL     1       7.397  -0.112  -6.077  0.00  0.00    +0.024 A 
ATOM     33  C   UNL     1       6.715  -1.381  -6.143  0.00  0.00    +0.007 A 
ATOM     34  C   UNL     1       7.455  -2.604  -6.269  0.00  0.00    -0.029 A 
ATOM     35  C   UNL     1       6.671  -3.935  -6.341  0.00  0.00    +0.045 C 
ENDROOT
BRANCH  10   9
ATOM      4  C   UNL     1      11.220  -6.294  -4.444  0.00  0.00    +0.077 A 
ATOM      5  C   UNL     1      10.872  -5.913  -3.106  0.00  0.00    +0.048 A 
ATOM      6  C   UNL     1      10.106  -4.737  -2.945  0.00  0.00    +0.116 A 
ATOM      7  N   UNL     1       9.722  -4.004  -4.047  0.00  0.00    -0.223 NA
ATOM      8  C   UNL     1      10.076  -4.398  -5.324  0.00  0.00    +0.220 A 
ATOM      9  N   UNL     1       9.695  -3.681  -6.447  0.00  0.00    -0.283 N 
ATOM     36  H   UNL     1       9.982  -4.001  -7.372  0.00  0.00    +0.155 HD
ATOM     37  N   UNL     1      10.809  -5.517  -5.504  0.00  0.00    -0.214 NA
BRANCH   4   3
ATOM      1  C   UNL     1      13.237  -9.015  -6.400  0.00  0.00    +0.020 A 
ATOM      2  C   UNL     1      12.463  -7.825  -6.132  0.00  0.00    +0.013 A 
ATOM      3  C   UNL     1      12.023  -7.512  -4.778  0.00  0.00    +0.019 A 
ATOM     38  C   UNL     1      12.387  -8.431  -3.710  0.00  0.00    +0.120 A 
ATOM     39  N   UNL     1      13.132  -9.570  -3.998  0.00  0.00    -0.263 NA
ATOM     40  C   UNL     1      13.559  -9.883  -5.297  0.00  0.00    +0.111 A 
ENDBRANCH   4   3
ENDBRANCH  10   9
BRANCH  12  13
ATOM     13  N   UNL     1       9.429   1.273  -6.074  0.00  0.00    -0.281 N 
ATOM     14  C   UNL     1      10.050   1.872  -4.990  0.00  0.00    +0.248 C 
ATOM     30  O   UNL     1       9.987   1.458  -3.842  0.00  0.00    -0.270 OA
ATOM     31  H   UNL     1       9.399   1.822  -6.933  0.00  0.00    +0.155 HD
BRANCH  14  15
ATOM     15  C   UNL     1      10.844   3.119  -5.211  0.00  0.00    +0.037 A 
ATOM     16  C   UNL     1      12.299   3.134  -5.037  0.00  0.00    +0.013 A 
ATOM     17  C   UNL     1      13.039   4.354  -5.241  0.00  0.00    +0.005 A 
ATOM     18  C   UNL     1      12.324   5.570  -5.622  0.00  0.00    -0.033 A 
ATOM     28  C   UNL     1      10.882   5.526  -5.792  0.00  0.00    +0.005 A 
ATOM     29  C   UNL     1      10.153   4.332  -5.593  0.00  0.00    +0.013 A 
BRANCH  18  19
ATOM     19  C   UNL     1      13.030   6.922  -5.839  0.00  0.00    +0.119 C 
BRANCH  19  20
ATOM     20  N   UNL     1      13.738   7.123  -7.138  0.00  0.00    -0.302 NA
ATOM     21  C   UNL     1      12.939   6.567  -8.320  0.00  0.00    +0.066 C 
ATOM     22  C   UNL     1      13.684   6.806  -9.673  0.00  0.00    -0.064 C 
ATOM     23  N   UNL     1      15.071   6.164  -9.609  0.00  0.00    +0.379 N 
ATOM     24  C   UNL     1      15.752   6.337 -10.900  0.00  0.00    -0.096 C 
ATOM     25  H   UNL     1      14.930   5.071  -9.444  0.00  0.00    -0.082 HD
ATOM     26  C   UNL     1      15.872   6.709  -8.435  0.00  0.00    -0.064 C 
ATOM     27  C   UNL     1      15.109   6.493  -7.098  0.00  0.00    +0.066 C 
ENDBRANCH  19  20
ENDBRANCH  18  19
ENDBRANCH  14  15
ENDBRANCH  12  13
TORSDOF 6
ENDMDL
