MODEL 1
REMARK VINA RESULT:      -9.8      0.000      0.000
REMARK  Name = C:\Users\Docking\Desktop\test protocol\1iep_ligandH.pdb
REMARK  8 active torsions:
REMARK  status: ('A' for Active; 'I' for Inactive)
REMARK    1  A    between atoms: _5  and  _11
REMARK    2  A    between atoms: _19  and  _21
REMARK    3  A    between atoms: _22  and  _66
REMARK    4  A    between atoms: _27  and  _30
REMARK    5  A    between atoms: _32  and  _33
REMARK    6  A    between atoms: _38  and  _43
REMARK    7  A    between atoms: _43  and  _46
REMARK    8  A    between atoms: _53  and  _55
REMARK                            x       y       z     vdW  Elec       q    Type
REMARK                         _______ _______ _______ _____ _____    ______ ____
ROOT
ATOM     10  C   UNL     1       4.824   9.299  91.516  0.00  0.00    +0.038 A 
ATOM     11  C   UNL     1       6.074   9.922  91.271  0.00  0.00    +0.047 A 
ATOM     12  C   UNL     1       6.266  11.344  91.509  0.00  0.00    +0.035 A 
ATOM     32  C   UNL     1       5.163  12.102  91.999  0.00  0.00    +0.024 A 
ATOM     33  C   UNL     1       3.884  11.485  92.251  0.00  0.00    +0.007 A 
ATOM     34  C   UNL     1       3.688  10.083  92.016  0.00  0.00    -0.029 A 
ATOM     35  C   UNL     1       2.294   9.477  92.299  0.00  0.00    +0.045 C 
ENDROOT
BRANCH  10   9
ATOM      4  C   UNL     1       3.556   5.598  88.735  0.00  0.00    +0.077 A 
ATOM      5  C   UNL     1       3.084   6.465  87.694  0.00  0.00    +0.048 A 
ATOM      6  C   UNL     1       3.179   7.857  87.917  0.00  0.00    +0.116 A 
ATOM      7  N   UNL     1       3.708   8.335  89.096  0.00  0.00    -0.223 NA
ATOM      8  C   UNL     1       4.153   7.471  90.080  0.00  0.00    +0.220 A 
ATOM      9  N   UNL     1       4.696   7.930  91.270  0.00  0.00    -0.283 N 
ATOM     36  H   UNL     1       5.005   7.260  91.974  0.00  0.00    +0.155 HD
ATOM     37  N   UNL     1       4.072   6.138  89.892  0.00  0.00    -0.214 NA
BRANCH   4   3
ATOM      1  C   UNL     1       4.084   1.918  87.516  0.00  0.00    +0.020 A 
ATOM      2  C   UNL     1       4.141   3.362  87.554  0.00  0.00    +0.013 A 
ATOM      3  C   UNL     1       3.526   4.104  88.647  0.00  0.00    +0.019 A 
ATOM     38  C   UNL     1       2.856   3.349  89.696  0.00  0.00    +0.120 A 
ATOM     39  N   UNL     1       2.816   1.960  89.633  0.00  0.00    -0.263 NA
ATOM     40  C   UNL     1       3.403   1.235  88.585  0.00  0.00    +0.111 A 
ENDBRANCH   4   3
ENDBRANCH  10   9
BRANCH  12  13
ATOM     13  N   UNL     1       7.511  12.032  91.272  0.00  0.00    -0.281 N 
ATOM     14  C   UNL     1       8.084  12.359  90.054  0.00  0.00    +0.248 C 
ATOM     30  O   UNL     1       7.716  11.917  88.976  0.00  0.00    -0.270 OA
ATOM     31  H   UNL     1       8.032  12.313  92.102  0.00  0.00    +0.155 HD
BRANCH  14  15
ATOM     15  C   UNL     1       9.244  13.302  90.032  0.00  0.00    +0.037 A 
ATOM     16  C   UNL     1       9.958  13.657  91.261  0.00  0.00    +0.013 A 
ATOM     17  C   UNL     1      11.062  14.582  91.214  0.00  0.00    +0.005 A 
ATOM     18  C   UNL     1      11.461  15.157  89.931  0.00  0.00    -0.033 A 
ATOM     28  C   UNL     1      10.739  14.783  88.726  0.00  0.00    +0.005 A 
ATOM     29  C   UNL     1       9.655  13.877  88.769  0.00  0.00    +0.013 A 
BRANCH  18  19
ATOM     19  C   UNL     1      12.614  16.168  89.790  0.00  0.00    +0.119 C 
BRANCH  19  20
ATOM     20  N   UNL     1      13.853  15.908  90.583  0.00  0.00    -0.302 NA
ATOM     21  C   UNL     1      13.875  16.703  91.891  0.00  0.00    +0.066 C 
ATOM     22  C   UNL     1      15.166  16.401  92.719  0.00  0.00    -0.064 C 
ATOM     23  N   UNL     1      16.399  16.720  91.871  0.00  0.00    +0.379 N 
ATOM     24  C   UNL     1      17.614  16.493  92.666  0.00  0.00    -0.096 C 
ATOM     25  H   UNL     1      16.360  17.804  91.613  0.00  0.00    -0.082 HD
ATOM     26  C   UNL     1      16.383  15.936  90.566  0.00  0.00    -0.064 C 
ATOM     27  C   UNL     1      15.082  16.220  89.765  0.00  0.00    +0.066 C 
ENDBRANCH  19  20
ENDBRANCH  18  19
ENDBRANCH  14  15
ENDBRANCH  12  13
TORSDOF 6
ENDMDL
MODEL 2
REMARK VINA RESULT:      -9.5      1.957      2.703
REMARK  Name = C:\Users\Docking\Desktop\test protocol\1iep_ligandH.pdb
REMARK  8 active torsions:
REMARK  status: ('A' for Active; 'I' for Inactive)
REMARK    1  A    between atoms: _5  and  _11
REMARK    2  A    between atoms: _19  and  _21
REMARK    3  A    between atoms: _22  and  _66
REMARK    4  A    between atoms: _27  and  _30
REMARK    5  A    between atoms: _32  and  _33
REMARK    6  A    between atoms: _38  and  _43
REMARK    7  A    between atoms: _43  and  _46
REMARK    8  A    between atoms: _53  and  _55
REMARK                            x       y       z     vdW  Elec       q    Type
REMARK                         _______ _______ _______ _____ _____    ______ ____
ROOT
ATOM     10  C   UNL     1       4.848   9.331  91.456  0.00  0.00    +0.038 A 
ATOM     11  C   UNL     1       6.086   9.938  91.124  0.00  0.00    +0.047 A 
ATOM     12  C   UNL     1       6.311  11.357  91.347  0.00  0.00    +0.035 A 
ATOM     32  C   UNL     1       5.255  12.129  91.912  0.00  0.00    +0.024 A 
ATOM     33  C   UNL     1       3.989  11.528  92.255  0.00  0.00    +0.007 A 
ATOM     34  C   UNL     1       3.760  10.129  92.035  0.00  0.00    -0.029 A 
ATOM     35  C   UNL     1       2.382   9.539  92.415  0.00  0.00    +0.045 C 
ENDROOT
BRANCH  10   9
ATOM      4  C   UNL     1       3.405   5.645  88.740  0.00  0.00    +0.077 A 
ATOM      5  C   UNL     1       2.908   6.518  87.716  0.00  0.00    +0.048 A 
ATOM      6  C   UNL     1       3.036   7.909  87.929  0.00  0.00    +0.116 A 
ATOM      7  N   UNL     1       3.620   8.380  89.085  0.00  0.00    -0.223 NA
ATOM      8  C   UNL     1       4.088   7.511  90.054  0.00  0.00    +0.220 A 
ATOM      9  N   UNL     1       4.686   7.963  91.220  0.00  0.00    -0.283 N 
ATOM     36  H   UNL     1       5.011   7.290  91.914  0.00  0.00    +0.155 HD
ATOM     37  N   UNL     1       3.976   6.179  89.874  0.00  0.00    -0.214 NA
BRANCH   4   3
ATOM      1  C   UNL     1       4.240   1.847  89.160  0.00  0.00    +0.020 A 
ATOM      2  C   UNL     1       4.345   3.284  89.268  0.00  0.00    +0.013 A 
ATOM      3  C   UNL     1       3.345   4.151  88.659  0.00  0.00    +0.019 A 
ATOM     38  C   UNL     1       2.242   3.528  87.943  0.00  0.00    +0.120 A 
ATOM     39  N   UNL     1       2.167   2.142  87.855  0.00  0.00    -0.263 NA
ATOM     40  C   UNL     1       3.125   1.297  88.435  0.00  0.00    +0.111 A 
ENDBRANCH   4   3
ENDBRANCH  10   9
BRANCH  12  13
ATOM     13  N   UNL     1       7.544  12.031  91.022  0.00  0.00    -0.281 N 
ATOM     14  C   UNL     1       8.048  12.327  89.766  0.00  0.00    +0.248 C 
ATOM     30  O   UNL     1       7.613  11.865  88.721  0.00  0.00    -0.270 OA
ATOM     31  H   UNL     1       8.115  12.325  91.814  0.00  0.00    +0.155 HD
BRANCH  14  15
ATOM     15  C   UNL     1       9.211  13.259  89.655  0.00  0.00    +0.037 A 
ATOM     16  C   UNL     1       9.964  13.678  90.840  0.00  0.00    +0.013 A 
ATOM     17  C   UNL     1      11.071  14.591  90.707  0.00  0.00    +0.005 A 
ATOM     18  C   UNL     1      11.432  15.092  89.383  0.00  0.00    -0.033 A 
ATOM     28  C   UNL     1      10.671  14.656  88.224  0.00  0.00    +0.005 A 
ATOM     29  C   UNL     1       9.585  13.761  88.350  0.00  0.00    +0.013 A 
BRANCH  18  19
ATOM     19  C   UNL     1      12.585  16.086  89.150  0.00  0.00    +0.119 C 
BRANCH  19  20
ATOM     20  N   UNL     1      12.848  16.512  87.743  0.00  0.00    -0.302 NA
ATOM     21  C   UNL     1      13.828  15.574  87.033  0.00  0.00    +0.066 C 
ATOM     22  C   UNL     1      14.073  16.021  85.555  0.00  0.00    -0.064 C 
ATOM     23  N   UNL     1      14.593  17.460  85.540  0.00  0.00    +0.379 N 
ATOM     24  C   UNL     1      14.879  17.864  84.156  0.00  0.00    -0.096 C 
ATOM     25  H   UNL     1      15.554  17.478  86.104  0.00  0.00    -0.082 HD
ATOM     26  C   UNL     1      13.625  18.399  86.247  0.00  0.00    -0.064 C 
ATOM     27  C   UNL     1      13.365  17.929  87.705  0.00  0.00    +0.066 C 
ENDBRANCH  19  20
ENDBRANCH  18  19
ENDBRANCH  14  15
ENDBRANCH  12  13
TORSDOF 6
ENDMDL
MODEL 3
REMARK VINA RESULT:      -9.3      2.926     12.596
REMARK  Name = C:\Users\Docking\Desktop\test protocol\1iep_ligandH.pdb
REMARK  8 active torsions:
REMARK  status: ('A' for Active; 'I' for Inactive)
REMARK    1  A    between atoms: _5  and  _11
REMARK    2  A    between atoms: _19  and  _21
REMARK    3  A    between atoms: _22  and  _66
REMARK    4  A    between atoms: _27  and  _30
REMARK    5  A    between atoms: _32  and  _33
REMARK    6  A    between atoms: _38  and  _43
REMARK    7  A    between atoms: _43  and  _46
REMARK    8  A    between atoms: _53  and  _55
REMARK                            x       y       z     vdW  Elec       q    Type
REMARK                         _______ _______ _______ _____ _____    ______ ____
ROOT
ATOM     10  C   UNL     1       5.966  10.627  90.932  0.00  0.00    +0.038 A 
ATOM     11  C   UNL     1       5.790   9.283  90.516  0.00  0.00    +0.047 A 
ATOM     12  C   UNL     1       4.581   8.545  90.847  0.00  0.00    +0.035 A 
ATOM     32  C   UNL     1       3.570   9.208  91.602  0.00  0.00    +0.024 A 
ATOM     33  C   UNL     1       3.733  10.574  92.034  0.00  0.00    +0.007 A 
ATOM     34  C   UNL     1       4.924  11.306  91.712  0.00  0.00    -0.029 A 
ATOM     35  C   UNL     1       5.047  12.766  92.207  0.00  0.00    +0.045 C 
ENDROOT
BRANCH  10   9
ATOM      4  C   UNL     1       8.625  13.235  87.904  0.00  0.00    +0.077 A 
ATOM      5  C   UNL     1       7.584  13.259  86.917  0.00  0.00    +0.048 A 
ATOM      6  C   UNL     1       6.382  12.582  87.225  0.00  0.00    +0.116 A 
ATOM      7  N   UNL     1       6.243  11.933  88.432  0.00  0.00    -0.223 NA
ATOM      8  C   UNL     1       7.267  11.928  89.361  0.00  0.00    +0.220 A 
ATOM      9  N   UNL     1       7.146  11.289  90.586  0.00  0.00    -0.283 N 
ATOM     36  H   UNL     1       7.927  11.302  91.241  0.00  0.00    +0.155 HD
ATOM     37  N   UNL     1       8.425  12.566  89.091  0.00  0.00    -0.214 NA
BRANCH   4   3
ATOM      1  C   UNL     1      11.888  15.287  88.568  0.00  0.00    +0.020 A 
ATOM      2  C   UNL     1      10.607  14.657  88.791  0.00  0.00    +0.013 A 
ATOM      3  C   UNL     1       9.951  13.906  87.727  0.00  0.00    +0.019 A 
ATOM     38  C   UNL     1      10.624  13.810  86.441  0.00  0.00    +0.120 A 
ATOM     39  N   UNL     1      11.857  14.428  86.256  0.00  0.00    -0.263 NA
ATOM     40  C   UNL     1      12.497  15.155  87.271  0.00  0.00    +0.111 A 
ENDBRANCH   4   3
ENDBRANCH  10   9
BRANCH  12  13
ATOM     13  N   UNL     1       4.350   7.175  90.459  0.00  0.00    -0.281 N 
ATOM     14  C   UNL     1       3.733   6.708  89.310  0.00  0.00    +0.248 C 
ATOM     30  O   UNL     1       3.092   7.405  88.538  0.00  0.00    -0.270 OA
ATOM     31  H   UNL     1       4.682   6.464  91.111  0.00  0.00    +0.155 HD
BRANCH  14  15
ATOM     15  C   UNL     1       3.830   5.254  88.979  0.00  0.00    +0.037 A 
ATOM     16  C   UNL     1       4.548   4.793  87.787  0.00  0.00    +0.013 A 
ATOM     17  C   UNL     1       4.612   3.385  87.482  0.00  0.00    +0.005 A 
ATOM     18  C   UNL     1       3.957   2.429  88.371  0.00  0.00    -0.033 A 
ATOM     28  C   UNL     1       3.257   2.914  89.548  0.00  0.00    +0.005 A 
ATOM     29  C   UNL     1       3.191   4.292  89.851  0.00  0.00    +0.013 A 
BRANCH  18  19
ATOM     19  C   UNL     1       3.956   0.911  88.111  0.00  0.00    +0.119 C 
BRANCH  19  20
ATOM     20  N   UNL     1       4.285   0.020  89.263  0.00  0.00    -0.302 NA
ATOM     21  C   UNL     1       3.037  -0.379  90.056  0.00  0.00    +0.066 C 
ATOM     22  C   UNL     1       3.398  -1.330  91.244  0.00  0.00    -0.064 C 
ATOM     23  N   UNL     1       4.419  -0.642  92.152  0.00  0.00    +0.379 N 
ATOM     24  C   UNL     1       4.716  -1.509  93.301  0.00  0.00    -0.096 C 
ATOM     25  H   UNL     1       3.950   0.290  92.543  0.00  0.00    -0.082 HD
ATOM     26  C   UNL     1       5.662  -0.240  91.371  0.00  0.00    -0.064 C 
ATOM     27  C   UNL     1       5.290   0.681  90.175  0.00  0.00    +0.066 C 
ENDBRANCH  19  20
ENDBRANCH  18  19
ENDBRANCH  14  15
ENDBRANCH  12  13
TORSDOF 6
ENDMDL
MODEL 4
REMARK VINA RESULT:      -8.9      2.521     12.559
REMARK  Name = C:\Users\Docking\Desktop\test protocol\1iep_ligandH.pdb
REMARK  8 active torsions:
REMARK  status: ('A' for Active; 'I' for Inactive)
REMARK    1  A    between atoms: _5  and  _11
REMARK    2  A    between atoms: _19  and  _21
REMARK    3  A    between atoms: _22  and  _66
REMARK    4  A    between atoms: _27  and  _30
REMARK    5  A    between atoms: _32  and  _33
REMARK    6  A    between atoms: _38  and  _43
REMARK    7  A    between atoms: _43  and  _46
REMARK    8  A    between atoms: _53  and  _55
REMARK                            x       y       z     vdW  Elec       q    Type
REMARK                         _______ _______ _______ _____ _____    ______ ____
ROOT
ATOM     10  C   UNL     1       4.446  10.421  91.756  0.00  0.00    +0.038 A 
ATOM     11  C   UNL     1       4.468   9.080  91.294  0.00  0.00    +0.047 A 
ATOM     12  C   UNL     1       3.235   8.366  90.999  0.00  0.00    +0.035 A 
ATOM     32  C   UNL     1       1.998   9.050  91.183  0.00  0.00    +0.024 A 
ATOM     33  C   UNL     1       1.958  10.412  91.654  0.00  0.00    +0.007 A 
ATOM     34  C   UNL     1       3.170  11.120  91.949  0.00  0.00    -0.029 A 
ATOM     35  C   UNL     1       3.067  12.577  92.457  0.00  0.00    +0.045 C 
ENDROOT
BRANCH  10   9
ATOM      4  C   UNL     1       8.309  12.917  90.384  0.00  0.00    +0.077 A 
ATOM      5  C   UNL     1       7.888  12.930  89.013  0.00  0.00    +0.048 A 
ATOM      6  C   UNL     1       6.674  12.276  88.701  0.00  0.00    +0.116 A 
ATOM      7  N   UNL     1       5.945  11.660  89.695  0.00  0.00    -0.223 NA
ATOM      8  C   UNL     1       6.381  11.665  91.007  0.00  0.00    +0.220 A 
ATOM      9  N   UNL     1       5.660  11.059  92.024  0.00  0.00    -0.283 N 
ATOM     36  H   UNL     1       6.019  11.078  92.978  0.00  0.00    +0.155 HD
ATOM     37  N   UNL     1       7.537  12.281  91.330  0.00  0.00    -0.214 NA
BRANCH   4   3
ATOM      1  C   UNL     1      11.636  14.969  90.529  0.00  0.00    +0.020 A 
ATOM      2  C   UNL     1      10.433  14.362  90.009  0.00  0.00    +0.013 A 
ATOM      3  C   UNL     1       9.567  13.568  90.871  0.00  0.00    +0.019 A 
ATOM     38  C   UNL     1       9.949  13.407  92.266  0.00  0.00    +0.120 A 
ATOM     39  N   UNL     1      11.114  14.003  92.739  0.00  0.00    -0.263 NA
ATOM     40  C   UNL     1      11.957  14.767  91.918  0.00  0.00    +0.111 A 
ENDBRANCH   4   3
ENDBRANCH  10   9
BRANCH  12  13
ATOM     13  N   UNL     1       3.194   7.002  90.534  0.00  0.00    -0.281 N 
ATOM     14  C   UNL     1       3.405   6.534  89.247  0.00  0.00    +0.248 C 
ATOM     30  O   UNL     1       3.450   7.243  88.253  0.00  0.00    -0.270 OA
ATOM     31  H   UNL     1       2.985   6.296  91.239  0.00  0.00    +0.155 HD
BRANCH  14  15
ATOM     15  C   UNL     1       3.575   5.065  89.032  0.00  0.00    +0.037 A 
ATOM     16  C   UNL     1       2.852   4.088  89.850  0.00  0.00    +0.013 A 
ATOM     17  C   UNL     1       3.047   2.676  89.633  0.00  0.00    +0.005 A 
ATOM     18  C   UNL     1       3.971   2.233  88.592  0.00  0.00    -0.033 A 
ATOM     28  C   UNL     1       4.672   3.224  87.791  0.00  0.00    +0.005 A 
ATOM     29  C   UNL     1       4.483   4.608  88.002  0.00  0.00    +0.013 A 
BRANCH  18  19
ATOM     19  C   UNL     1       4.257   0.747  88.305  0.00  0.00    +0.119 C 
BRANCH  19  20
ATOM     20  N   UNL     1       4.488  -0.144  89.481  0.00  0.00    -0.302 NA
ATOM     21  C   UNL     1       3.177  -0.545  90.163  0.00  0.00    +0.066 C 
ATOM     22  C   UNL     1       3.435  -1.496  91.377  0.00  0.00    -0.064 C 
ATOM     23  N   UNL     1       4.374  -0.807  92.370  0.00  0.00    +0.379 N 
ATOM     24  C   UNL     1       4.573  -1.675  93.540  0.00  0.00    -0.096 C 
ATOM     25  H   UNL     1       3.871   0.124  92.720  0.00  0.00    -0.082 HD
ATOM     26  C   UNL     1       5.679  -0.403  91.698  0.00  0.00    -0.064 C 
ATOM     27  C   UNL     1       5.409   0.518  90.475  0.00  0.00    +0.066 C 
ENDBRANCH  19  20
ENDBRANCH  18  19
ENDBRANCH  14  15
ENDBRANCH  12  13
TORSDOF 6
ENDMDL
MODEL 5
REMARK VINA RESULT:      -8.8      7.432      8.840
REMARK  Name = C:\Users\Docking\Desktop\test protocol\1iep_ligandH.pdb
REMARK  8 active torsions:
REMARK  status: ('A' for Active; 'I' for Inactive)
REMARK    1  A    between atoms: _5  and  _11
REMARK    2  A    between atoms: _19  and  _21
REMARK    3  A    between atoms: _22  and  _66
REMARK    4  A    between atoms: _27  and  _30
REMARK    5  A    between atoms: _32  and  _33
REMARK    6  A    between atoms: _38  and  _43
REMARK    7  A    between atoms: _43  and  _46
REMARK    8  A    between atoms: _53  and  _55
REMARK                            x       y       z     vdW  Elec       q    Type
REMARK                         _______ _______ _______ _____ _____    ______ ____
ROOT
ATOM     10  C   UNL     1      10.590  11.784  97.007  0.00  0.00    +0.038 A 
ATOM     11  C   UNL     1      10.334  11.979  95.626  0.00  0.00    +0.047 A 
ATOM     12  C   UNL     1      11.198  12.821  94.812  0.00  0.00    +0.035 A 
ATOM     32  C   UNL     1      12.315  13.447  95.438  0.00  0.00    +0.024 A 
ATOM     33  C   UNL     1      12.589  13.260  96.841  0.00  0.00    +0.007 A 
ATOM     34  C   UNL     1      11.740  12.432  97.649  0.00  0.00    -0.029 A 
ATOM     35  C   UNL     1      12.078  12.273  99.150  0.00  0.00    +0.045 C 
ENDROOT
BRANCH  10   9
ATOM      4  C   UNL     1       9.214   7.493  98.660  0.00  0.00    +0.077 A 
ATOM      5  C   UNL     1      10.287   6.822  97.985  0.00  0.00    +0.048 A 
ATOM      6  C   UNL     1      11.167   7.617  97.216  0.00  0.00    +0.116 A 
ATOM      7  N   UNL     1      10.979   8.980  97.137  0.00  0.00    -0.223 NA
ATOM      8  C   UNL     1       9.932   9.595  97.800  0.00  0.00    +0.220 A 
ATOM      9  N   UNL     1       9.728  10.965  97.740  0.00  0.00    -0.283 N 
ATOM     36  H   UNL     1       8.940  11.379  98.237  0.00  0.00    +0.155 HD
ATOM     37  N   UNL     1       9.077   8.858  98.539  0.00  0.00    -0.214 NA
BRANCH   4   3
ATOM      1  C   UNL     1       5.857   6.440 100.369  0.00  0.00    +0.020 A 
ATOM      2  C   UNL     1       6.791   7.151  99.527  0.00  0.00    +0.013 A 
ATOM      3  C   UNL     1       8.204   6.791  99.514  0.00  0.00    +0.019 A 
ATOM     38  C   UNL     1       8.641   5.699 100.370  0.00  0.00    +0.120 A 
ATOM     39  N   UNL     1       7.718   5.034 101.171  0.00  0.00    -0.263 NA
ATOM     40  C   UNL     1       6.357   5.372 101.194  0.00  0.00    +0.111 A 
ENDBRANCH   4   3
ENDBRANCH  10   9
BRANCH  12  13
ATOM     13  N   UNL     1      10.983  13.063  93.407  0.00  0.00    -0.281 N 
ATOM     14  C   UNL     1      10.537  14.227  92.802  0.00  0.00    +0.248 C 
ATOM     30  O   UNL     1      10.049  15.174  93.400  0.00  0.00    -0.270 OA
ATOM     31  H   UNL     1      11.185  12.282  92.783  0.00  0.00    +0.155 HD
BRANCH  14  15
ATOM     15  C   UNL     1      10.635  14.351  91.316  0.00  0.00    +0.037 A 
ATOM     16  C   UNL     1      11.686  15.156  90.688  0.00  0.00    +0.013 A 
ATOM     17  C   UNL     1      11.747  15.272  89.252  0.00  0.00    +0.005 A 
ATOM     18  C   UNL     1      10.754  14.580  88.434  0.00  0.00    -0.033 A 
ATOM     28  C   UNL     1       9.726  13.783  89.083  0.00  0.00    +0.005 A 
ATOM     29  C   UNL     1       9.662  13.668  90.490  0.00  0.00    +0.013 A 
BRANCH  18  19
ATOM     19  C   UNL     1      10.730  14.665  86.897  0.00  0.00    +0.119 C 
BRANCH  19  20
ATOM     20  N   UNL     1      11.733  15.560  86.246  0.00  0.00    -0.302 NA
ATOM     21  C   UNL     1      11.289  16.000  84.848  0.00  0.00    +0.066 C 
ATOM     22  C   UNL     1      12.339  16.954  84.191  0.00  0.00    -0.064 C 
ATOM     23  N   UNL     1      13.696  16.250  84.132  0.00  0.00    +0.379 N 
ATOM     24  C   UNL     1      14.672  17.123  83.462  0.00  0.00    -0.096 C 
ATOM     25  H   UNL     1      13.575  15.335  83.507  0.00  0.00    -0.082 HD
ATOM     26  C   UNL     1      14.144  15.807  85.517  0.00  0.00    -0.064 C 
ATOM     27  C   UNL     1      13.080  14.883  86.173  0.00  0.00    +0.066 C 
ENDBRANCH  19  20
ENDBRANCH  18  19
ENDBRANCH  14  15
ENDBRANCH  12  13
TORSDOF 6
ENDMDL
