MODEL 1
REMARK VINA RESULT:      -8.2      0.000      0.000
REMARK  Name = C:\Users\Docking\Desktop\test protocol\1iep_ligandH.pdb
REMARK  8 active torsions:
REMARK  status: ('A' for Active; 'I' for Inactive)
REMARK    1  A    between atoms: _5  and  _11
REMARK    2  A    between atoms: _19  and  _21
REMARK    3  A    between atoms: _22  and  _66
REMARK    4  A    between atoms: _27  and  _30
REMARK    5  A    between atoms: _32  and  _33
REMARK    6  A    between atoms: _38  and  _43
REMARK    7  A    between atoms: _43  and  _46
REMARK    8  A    between atoms: _53  and  _55
REMARK                            x       y       z     vdW  Elec       q    Type
REMARK                         _______ _______ _______ _____ _____    ______ ____
ROOT
ATOM     10  C   UNL     1       7.885  -4.627 -10.187  0.00  0.00    +0.038 A 
ATOM     11  C   UNL     1       7.625  -3.299  -9.762  0.00  0.00    +0.047 A 
ATOM     12  C   UNL     1       7.355  -2.241 -10.723  0.00  0.00    +0.035 A 
ATOM     32  C   UNL     1       7.354  -2.572 -12.110  0.00  0.00    +0.024 A 
ATOM     33  C   UNL     1       7.618  -3.916 -12.559  0.00  0.00    +0.007 A 
ATOM     34  C   UNL     1       7.887  -4.963 -11.616  0.00  0.00    -0.029 A 
ATOM     35  C   UNL     1       8.169  -6.385 -12.155  0.00  0.00    +0.045 C 
ENDROOT
BRANCH  10   9
ATOM      4  C   UNL     1       6.428  -7.808  -6.901  0.00  0.00    +0.077 A 
ATOM      5  C   UNL     1       5.048  -7.476  -7.106  0.00  0.00    +0.048 A 
ATOM      6  C   UNL     1       4.755  -6.477  -8.061  0.00  0.00    +0.116 A 
ATOM      7  N   UNL     1       5.775  -5.862  -8.754  0.00  0.00    -0.223 NA
ATOM      8  C   UNL     1       7.096  -6.204  -8.531  0.00  0.00    +0.220 A 
ATOM      9  N   UNL     1       8.138  -5.604  -9.222  0.00  0.00    -0.283 N 
ATOM     36  H   UNL     1       9.099  -5.879  -9.023  0.00  0.00    +0.155 HD
ATOM     37  N   UNL     1       7.402  -7.154  -7.623  0.00  0.00    -0.214 NA
BRANCH   4   3
ATOM      1  C   UNL     1       6.935  -9.913  -3.643  0.00  0.00    +0.020 A 
ATOM      2  C   UNL     1       6.452  -8.889  -4.541  0.00  0.00    +0.013 A 
ATOM      3  C   UNL     1       6.897  -8.845  -5.929  0.00  0.00    +0.019 A 
ATOM     38  C   UNL     1       7.837  -9.860  -6.379  0.00  0.00    +0.120 A 
ATOM     39  N   UNL     1       8.286 -10.833  -5.491  0.00  0.00    -0.263 NA
ATOM     40  C   UNL     1       7.866 -10.884  -4.153  0.00  0.00    +0.111 A 
ENDBRANCH   4   3
ENDBRANCH  10   9
BRANCH  12  13
ATOM     13  N   UNL     1       7.092  -0.873 -10.351  0.00  0.00    -0.281 N 
ATOM     14  C   UNL     1       6.056  -0.058 -10.778  0.00  0.00    +0.248 C 
ATOM     30  O   UNL     1       5.315  -0.316 -11.715  0.00  0.00    -0.270 OA
ATOM     31  H   UNL     1       7.750  -0.454  -9.693  0.00  0.00    +0.155 HD
BRANCH  14  15
ATOM     15  C   UNL     1       5.818   1.237 -10.072  0.00  0.00    +0.037 A 
ATOM     16  C   UNL     1       4.461   1.742  -9.847  0.00  0.00    +0.013 A 
ATOM     17  C   UNL     1       4.260   3.003  -9.178  0.00  0.00    +0.005 A 
ATOM     18  C   UNL     1       5.421   3.767  -8.727  0.00  0.00    -0.033 A 
ATOM     28  C   UNL     1       6.756   3.241  -8.959  0.00  0.00    +0.005 A 
ATOM     29  C   UNL     1       6.957   2.006  -9.615  0.00  0.00    +0.013 A 
BRANCH  18  19
ATOM     19  C   UNL     1       5.301   5.132  -8.023  0.00  0.00    +0.119 C 
BRANCH  19  20
ATOM     20  N   UNL     1       4.119   5.977  -8.367  0.00  0.00    -0.302 NA
ATOM     21  C   UNL     1       4.527   7.286  -9.050  0.00  0.00    +0.066 C 
ATOM     22  C   UNL     1       3.277   8.147  -9.423  0.00  0.00    -0.064 C 
ATOM     23  N   UNL     1       2.459   8.427  -8.161  0.00  0.00    +0.379 N 
ATOM     24  C   UNL     1       1.314   9.286  -8.498  0.00  0.00    -0.096 C 
ATOM     25  H   UNL     1       3.110   8.993  -7.455  0.00  0.00    -0.082 HD
ATOM     26  C   UNL     1       2.051   7.131  -7.474  0.00  0.00    -0.064 C 
ATOM     27  C   UNL     1       3.299   6.269  -7.134  0.00  0.00    +0.066 C 
ENDBRANCH  19  20
ENDBRANCH  18  19
ENDBRANCH  14  15
ENDBRANCH  12  13
TORSDOF 6
ENDMDL
MODEL 2
REMARK VINA RESULT:      -7.5      1.767      2.324
REMARK  Name = C:\Users\Docking\Desktop\test protocol\1iep_ligandH.pdb
REMARK  8 active torsions:
REMARK  status: ('A' for Active; 'I' for Inactive)
REMARK    1  A    between atoms: _5  and  _11
REMARK    2  A    between atoms: _19  and  _21
REMARK    3  A    between atoms: _22  and  _66
REMARK    4  A    between atoms: _27  and  _30
REMARK    5  A    between atoms: _32  and  _33
REMARK    6  A    between atoms: _38  and  _43
REMARK    7  A    between atoms: _43  and  _46
REMARK    8  A    between atoms: _53  and  _55
REMARK                            x       y       z     vdW  Elec       q    Type
REMARK                         _______ _______ _______ _____ _____    ______ ____
ROOT
ATOM     10  C   UNL     1       8.041  -4.979 -10.353  0.00  0.00    +0.038 A 
ATOM     11  C   UNL     1       7.714  -3.639 -10.024  0.00  0.00    +0.047 A 
ATOM     12  C   UNL     1       7.465  -2.648 -11.060  0.00  0.00    +0.035 A 
ATOM     32  C   UNL     1       7.555  -3.058 -12.422  0.00  0.00    +0.024 A 
ATOM     33  C   UNL     1       7.887  -4.416 -12.775  0.00  0.00    +0.007 A 
ATOM     34  C   UNL     1       8.136  -5.397 -11.757  0.00  0.00    -0.029 A 
ATOM     35  C   UNL     1       8.494  -6.837 -12.194  0.00  0.00    +0.045 C 
ENDROOT
BRANCH  10   9
ATOM      4  C   UNL     1       6.539  -8.287  -7.217  0.00  0.00    +0.077 A 
ATOM      5  C   UNL     1       5.179  -8.175  -7.660  0.00  0.00    +0.048 A 
ATOM      6  C   UNL     1       4.907  -7.249  -8.691  0.00  0.00    +0.116 A 
ATOM      7  N   UNL     1       5.927  -6.497  -9.233  0.00  0.00    -0.223 NA
ATOM      8  C   UNL     1       7.227  -6.629  -8.782  0.00  0.00    +0.220 A 
ATOM      9  N   UNL     1       8.269  -5.889  -9.319  0.00  0.00    -0.283 N 
ATOM     36  H   UNL     1       9.214  -6.010  -8.953  0.00  0.00    +0.155 HD
ATOM     37  N   UNL     1       7.513  -7.505  -7.797  0.00  0.00    -0.214 NA
BRANCH   4   3
ATOM      1  C   UNL     1       8.273 -11.229  -5.308  0.00  0.00    +0.020 A 
ATOM      2  C   UNL     1       7.871 -10.355  -6.386  0.00  0.00    +0.013 A 
ATOM      3  C   UNL     1       6.986  -9.224  -6.138  0.00  0.00    +0.019 A 
ATOM     38  C   UNL     1       6.522  -9.003  -4.776  0.00  0.00    +0.120 A 
ATOM     39  N   UNL     1       6.924  -9.862  -3.758  0.00  0.00    -0.263 NA
ATOM     40  C   UNL     1       7.774 -10.954  -3.986  0.00  0.00    +0.111 A 
ENDBRANCH   4   3
ENDBRANCH  10   9
BRANCH  12  13
ATOM     13  N   UNL     1       7.138  -1.271 -10.786  0.00  0.00    -0.281 N 
ATOM     14  C   UNL     1       5.892  -0.667 -10.831  0.00  0.00    +0.248 C 
ATOM     30  O   UNL     1       4.896  -1.174 -11.324  0.00  0.00    -0.270 OA
ATOM     31  H   UNL     1       7.919  -0.669 -10.527  0.00  0.00    +0.155 HD
BRANCH  14  15
ATOM     15  C   UNL     1       5.734   0.705 -10.258  0.00  0.00    +0.037 A 
ATOM     16  C   UNL     1       4.408   1.291 -10.047  0.00  0.00    +0.013 A 
ATOM     17  C   UNL     1       4.284   2.623  -9.508  0.00  0.00    +0.005 A 
ATOM     18  C   UNL     1       5.491   3.376  -9.176  0.00  0.00    -0.033 A 
ATOM     28  C   UNL     1       6.793   2.768  -9.391  0.00  0.00    +0.005 A 
ATOM     29  C   UNL     1       6.919   1.464  -9.919  0.00  0.00    +0.013 A 
BRANCH  18  19
ATOM     19  C   UNL     1       5.453   4.811  -8.617  0.00  0.00    +0.119 C 
BRANCH  19  20
ATOM     20  N   UNL     1       5.587   5.930  -9.596  0.00  0.00    -0.302 NA
ATOM     21  C   UNL     1       4.869   5.628 -10.915  0.00  0.00    +0.066 C 
ATOM     22  C   UNL     1       5.000   6.819 -11.920  0.00  0.00    -0.064 C 
ATOM     23  N   UNL     1       6.480   7.116 -12.164  0.00  0.00    +0.379 N 
ATOM     24  C   UNL     1       6.607   8.197 -13.153  0.00  0.00    -0.096 C 
ATOM     25  H   UNL     1       6.941   6.200 -12.603  0.00  0.00    -0.082 HD
ATOM     26  C   UNL     1       7.202   7.415 -10.858  0.00  0.00    -0.064 C 
ATOM     27  C   UNL     1       7.041   6.237  -9.856  0.00  0.00    +0.066 C 
ENDBRANCH  19  20
ENDBRANCH  18  19
ENDBRANCH  14  15
ENDBRANCH  12  13
TORSDOF 6
ENDMDL
MODEL 3
REMARK VINA RESULT:      -7.4     12.834     19.339
REMARK  Name = C:\Users\Docking\Desktop\test protocol\1iep_ligandH.pdb
REMARK  8 active torsions:
REMARK  status: ('A' for Active; 'I' for Inactive)
REMARK    1  A    between atoms: _5  and  _11
REMARK    2  A    between atoms: _19  and  _21
REMARK    3  A    between atoms: _22  and  _66
REMARK    4  A    between atoms: _27  and  _30
REMARK    5  A    between atoms: _32  and  _33
REMARK    6  A    between atoms: _38  and  _43
REMARK    7  A    between atoms: _43  and  _46
REMARK    8  A    between atoms: _53  and  _55
REMARK                            x       y       z     vdW  Elec       q    Type
REMARK                         _______ _______ _______ _____ _____    ______ ____
ROOT
ATOM     10  C   UNL     1      -0.003  12.937 -10.939  0.00  0.00    +0.038 A 
ATOM     11  C   UNL     1       0.104  12.215  -9.723  0.00  0.00    +0.047 A 
ATOM     12  C   UNL     1      -0.151  10.783  -9.673  0.00  0.00    +0.035 A 
ATOM     32  C   UNL     1      -0.511  10.119 -10.882  0.00  0.00    +0.024 A 
ATOM     33  C   UNL     1      -0.626  10.838 -12.126  0.00  0.00    +0.007 A 
ATOM     34  C   UNL     1      -0.378  12.250 -12.181  0.00  0.00    -0.029 A 
ATOM     35  C   UNL     1      -0.522  12.971 -13.542  0.00  0.00    +0.045 C 
ENDROOT
BRANCH  10   9
ATOM      4  C   UNL     1      -1.208  17.461  -9.881  0.00  0.00    +0.077 A 
ATOM      5  C   UNL     1      -2.467  17.057  -9.324  0.00  0.00    +0.048 A 
ATOM      6  C   UNL     1      -2.770  15.677  -9.335  0.00  0.00    +0.116 A 
ATOM      7  N   UNL     1      -1.872  14.776  -9.866  0.00  0.00    -0.223 NA
ATOM      8  C   UNL     1      -0.667  15.199 -10.397  0.00  0.00    +0.220 A 
ATOM      9  N   UNL     1       0.253  14.310 -10.930  0.00  0.00    -0.283 N 
ATOM     36  H   UNL     1       1.128  14.662 -11.319  0.00  0.00    +0.155 HD
ATOM     37  N   UNL     1      -0.356  16.512 -10.400  0.00  0.00    -0.214 NA
BRANCH   4   3
ATOM      1  C   UNL     1       1.053  20.642 -10.146  0.00  0.00    +0.020 A 
ATOM      2  C   UNL     1       0.657  19.253 -10.095  0.00  0.00    +0.013 A 
ATOM      3  C   UNL     1      -0.744  18.883  -9.938  0.00  0.00    +0.019 A 
ATOM     38  C   UNL     1      -1.728  19.950  -9.836  0.00  0.00    +0.120 A 
ATOM     39  N   UNL     1      -1.317  21.279  -9.886  0.00  0.00    -0.263 NA
ATOM     40  C   UNL     1       0.029  21.647 -10.035  0.00  0.00    +0.111 A 
ENDBRANCH   4   3
ENDBRANCH  10   9
BRANCH  12  13
ATOM     13  N   UNL     1      -0.066   9.999  -8.466  0.00  0.00    -0.281 N 
ATOM     14  C   UNL     1       1.076   9.579  -7.803  0.00  0.00    +0.248 C 
ATOM     30  O   UNL     1       2.205   9.635  -8.266  0.00  0.00    -0.270 OA
ATOM     31  H   UNL     1      -0.954   9.719  -8.051  0.00  0.00    +0.155 HD
BRANCH  14  15
ATOM     15  C   UNL     1       0.942   9.001  -6.431  0.00  0.00    +0.037 A 
ATOM     16  C   UNL     1       1.047   7.558  -6.201  0.00  0.00    +0.013 A 
ATOM     17  C   UNL     1       0.897   7.025  -4.870  0.00  0.00    +0.005 A 
ATOM     18  C   UNL     1       0.641   7.936  -3.758  0.00  0.00    -0.033 A 
ATOM     28  C   UNL     1       0.545   9.364  -4.014  0.00  0.00    +0.005 A 
ATOM     29  C   UNL     1       0.691   9.890  -5.317  0.00  0.00    +0.013 A 
BRANCH  18  19
ATOM     19  C   UNL     1       0.446   7.453  -2.309  0.00  0.00    +0.119 C 
BRANCH  19  20
ATOM     20  N   UNL     1      -0.948   7.141  -1.873  0.00  0.00    -0.302 NA
ATOM     21  C   UNL     1      -1.188   7.508  -0.406  0.00  0.00    +0.066 C 
ATOM     22  C   UNL     1      -2.657   7.196   0.026  0.00  0.00    -0.064 C 
ATOM     23  N   UNL     1      -2.954   5.715  -0.217  0.00  0.00    +0.379 N 
ATOM     24  C   UNL     1      -4.316   5.406   0.242  0.00  0.00    -0.096 C 
ATOM     25  H   UNL     1      -2.244   5.122   0.404  0.00  0.00    -0.082 HD
ATOM     26  C   UNL     1      -2.716   5.342  -1.673  0.00  0.00    -0.064 C 
ATOM     27  C   UNL     1      -1.261   5.683  -2.101  0.00  0.00    +0.066 C 
ENDBRANCH  19  20
ENDBRANCH  18  19
ENDBRANCH  14  15
ENDBRANCH  12  13
TORSDOF 6
ENDMDL
MODEL 4
REMARK VINA RESULT:      -7.3      2.303     13.142
REMARK  Name = C:\Users\Docking\Desktop\test protocol\1iep_ligandH.pdb
REMARK  8 active torsions:
REMARK  status: ('A' for Active; 'I' for Inactive)
REMARK    1  A    between atoms: _5  and  _11
REMARK    2  A    between atoms: _19  and  _21
REMARK    3  A    between atoms: _22  and  _66
REMARK    4  A    between atoms: _27  and  _30
REMARK    5  A    between atoms: _32  and  _33
REMARK    6  A    between atoms: _38  and  _43
REMARK    7  A    between atoms: _43  and  _46
REMARK    8  A    between atoms: _53  and  _55
REMARK                            x       y       z     vdW  Elec       q    Type
REMARK                         _______ _______ _______ _____ _____    ______ ____
ROOT
ATOM     10  C   UNL     1       5.215   5.148  -8.219  0.00  0.00    +0.038 A 
ATOM     11  C   UNL     1       5.171   3.737  -8.360  0.00  0.00    +0.047 A 
ATOM     12  C   UNL     1       5.934   3.060  -9.397  0.00  0.00    +0.035 A 
ATOM     32  C   UNL     1       6.733   3.851 -10.273  0.00  0.00    +0.024 A 
ATOM     33  C   UNL     1       6.789   5.286 -10.145  0.00  0.00    +0.007 A 
ATOM     34  C   UNL     1       6.037   5.960  -9.125  0.00  0.00    -0.029 A 
ATOM     35  C   UNL     1       6.130   7.501  -9.038  0.00  0.00    +0.045 C 
ENDROOT
BRANCH  10   9
ATOM      4  C   UNL     1       1.301   7.431  -6.639  0.00  0.00    +0.077 A 
ATOM      5  C   UNL     1       0.716   7.460  -7.949  0.00  0.00    +0.048 A 
ATOM      6  C   UNL     1       1.459   6.882  -9.003  0.00  0.00    +0.116 A 
ATOM      7  N   UNL     1       2.692   6.321  -8.754  0.00  0.00    -0.223 NA
ATOM      8  C   UNL     1       3.228   6.312  -7.480  0.00  0.00    +0.220 A 
ATOM      9  N   UNL     1       4.463   5.745  -7.205  0.00  0.00    -0.283 N 
ATOM     36  H   UNL     1       4.827   5.765  -6.253  0.00  0.00    +0.155 HD
ATOM     37  N   UNL     1       2.539   6.858  -6.456  0.00  0.00    -0.214 NA
BRANCH   4   3
ATOM      1  C   UNL     1      -0.043   9.920  -3.937  0.00  0.00    +0.020 A 
ATOM      2  C   UNL     1       0.612   9.425  -5.126  0.00  0.00    +0.013 A 
ATOM      3  C   UNL     1       0.638   7.998  -5.422  0.00  0.00    +0.019 A 
ATOM     38  C   UNL     1      -0.014   7.092  -4.488  0.00  0.00    +0.120 A 
ATOM     39  N   UNL     1      -0.635   7.598  -3.350  0.00  0.00    -0.263 NA
ATOM     40  C   UNL     1      -0.665   8.969  -3.054  0.00  0.00    +0.111 A 
ENDBRANCH   4   3
ENDBRANCH  10   9
BRANCH  12  13
ATOM     13  N   UNL     1       5.922   1.632  -9.593  0.00  0.00    -0.281 N 
ATOM     14  C   UNL     1       5.247   0.911 -10.565  0.00  0.00    +0.248 C 
ATOM     30  O   UNL     1       4.376   1.372 -11.287  0.00  0.00    -0.270 OA
ATOM     31  H   UNL     1       6.479   1.085  -8.936  0.00  0.00    +0.155 HD
BRANCH  14  15
ATOM     15  C   UNL     1       5.578  -0.534 -10.752  0.00  0.00    +0.037 A 
ATOM     16  C   UNL     1       6.895  -1.065 -10.391  0.00  0.00    +0.013 A 
ATOM     17  C   UNL     1       7.194  -2.460 -10.598  0.00  0.00    +0.005 A 
ATOM     18  C   UNL     1       6.172  -3.335 -11.169  0.00  0.00    -0.033 A 
ATOM     28  C   UNL     1       4.872  -2.783 -11.513  0.00  0.00    +0.005 A 
ATOM     29  C   UNL     1       4.576  -1.416 -11.313  0.00  0.00    +0.013 A 
BRANCH  18  19
ATOM     19  C   UNL     1       6.411  -4.831 -11.444  0.00  0.00    +0.119 C 
BRANCH  19  20
ATOM     20  N   UNL     1       6.895  -5.667 -10.305  0.00  0.00    -0.302 NA
ATOM     21  C   UNL     1       7.140  -7.120 -10.722  0.00  0.00    +0.066 C 
ATOM     22  C   UNL     1       7.667  -7.975  -9.524  0.00  0.00    -0.064 C 
ATOM     23  N   UNL     1       6.665  -7.904  -8.371  0.00  0.00    +0.379 N 
ATOM     24  C   UNL     1       7.130  -8.754  -7.264  0.00  0.00    -0.096 C 
ATOM     25  H   UNL     1       5.699  -8.324  -8.736  0.00  0.00    -0.082 HD
ATOM     26  C   UNL     1       6.414  -6.463  -7.951  0.00  0.00    -0.064 C 
ATOM     27  C   UNL     1       5.918  -5.615  -9.156  0.00  0.00    +0.066 C 
ENDBRANCH  19  20
ENDBRANCH  18  19
ENDBRANCH  14  15
ENDBRANCH  12  13
TORSDOF 6
ENDMDL
MODEL 5
REMARK VINA RESULT:      -7.3     34.179     38.378
REMARK  Name = C:\Users\Docking\Desktop\test protocol\1iep_ligandH.pdb
REMARK  8 active torsions:
REMARK  status: ('A' for Active; 'I' for Inactive)
REMARK    1  A    between atoms: _5  and  _11
REMARK    2  A    between atoms: _19  and  _21
REMARK    3  A    between atoms: _22  and  _66
REMARK    4  A    between atoms: _27  and  _30
REMARK    5  A    between atoms: _32  and  _33
REMARK    6  A    between atoms: _38  and  _43
REMARK    7  A    between atoms: _43  and  _46
REMARK    8  A    between atoms: _53  and  _55
REMARK                            x       y       z     vdW  Elec       q    Type
REMARK                         _______ _______ _______ _____ _____    ______ ____
ROOT
ATOM     10  C   UNL     1      23.110  22.180  16.631  0.00  0.00    +0.038 A 
ATOM     11  C   UNL     1      21.766  22.575  16.854  0.00  0.00    +0.047 A 
ATOM     12  C   UNL     1      21.370  23.231  18.090  0.00  0.00    +0.035 A 
ATOM     32  C   UNL     1      22.369  23.472  19.078  0.00  0.00    +0.024 A 
ATOM     33  C   UNL     1      23.740  23.075  18.868  0.00  0.00    +0.007 A 
ATOM     34  C   UNL     1      24.136  22.425  17.652  0.00  0.00    -0.029 A 
ATOM     35  C   UNL     1      25.618  22.016  17.484  0.00  0.00    +0.045 C 
ENDROOT
BRANCH  10   9
ATOM      4  C   UNL     1      23.563  18.274  13.878  0.00  0.00    +0.077 A 
ATOM      5  C   UNL     1      23.142  17.405  14.939  0.00  0.00    +0.048 A 
ATOM      6  C   UNL     1      22.825  18.002  16.179  0.00  0.00    +0.116 A 
ATOM      7  N   UNL     1      22.924  19.368  16.336  0.00  0.00    -0.223 NA
ATOM      8  C   UNL     1      23.335  20.177  15.293  0.00  0.00    +0.220 A 
ATOM      9  N   UNL     1      23.435  21.553  15.426  0.00  0.00    -0.283 N 
ATOM     36  H   UNL     1      23.749  22.115  14.635  0.00  0.00    +0.155 HD
ATOM     37  N   UNL     1      23.645  19.631  14.099  0.00  0.00    -0.214 NA
BRANCH   4   3
ATOM      1  C   UNL     1      23.522  16.402  10.443  0.00  0.00    +0.020 A 
ATOM      2  C   UNL     1      23.124  16.833  11.764  0.00  0.00    +0.013 A 
ATOM      3  C   UNL     1      23.929  17.794  12.508  0.00  0.00    +0.019 A 
ATOM     38  C   UNL     1      25.139  18.305  11.882  0.00  0.00    +0.120 A 
ATOM     39  N   UNL     1      25.498  17.871  10.609  0.00  0.00    -0.263 NA
ATOM     40  C   UNL     1      24.732  16.945   9.885  0.00  0.00    +0.111 A 
ENDBRANCH   4   3
ENDBRANCH  10   9
BRANCH  12  13
ATOM     13  N   UNL     1      20.019  23.648  18.375  0.00  0.00    -0.281 N 
ATOM     14  C   UNL     1      18.839  23.067  17.942  0.00  0.00    +0.248 C 
ATOM     30  O   UNL     1      18.768  22.221  17.063  0.00  0.00    -0.270 OA
ATOM     31  H   UNL     1      19.922  24.472  18.969  0.00  0.00    +0.155 HD
BRANCH  14  15
ATOM     15  C   UNL     1      17.551  23.498  18.565  0.00  0.00    +0.037 A 
ATOM     16  C   UNL     1      16.262  23.157  17.957  0.00  0.00    +0.013 A 
ATOM     17  C   UNL     1      15.034  23.600  18.570  0.00  0.00    +0.005 A 
ATOM     18  C   UNL     1      15.090  24.388  19.799  0.00  0.00    -0.033 A 
ATOM     28  C   UNL     1      16.382  24.707  20.383  0.00  0.00    +0.005 A 
ATOM     29  C   UNL     1      17.588  24.276  19.785  0.00  0.00    +0.013 A 
BRANCH  18  19
ATOM     19  C   UNL     1      13.832  24.920  20.509  0.00  0.00    +0.119 C 
BRANCH  19  20
ATOM     20  N   UNL     1      13.461  26.346  20.266  0.00  0.00    -0.302 NA
ATOM     21  C   UNL     1      13.542  27.187  21.543  0.00  0.00    +0.066 C 
ATOM     22  C   UNL     1      13.173  28.680  21.266  0.00  0.00    -0.064 C 
ATOM     23  N   UNL     1      11.770  28.752  20.658  0.00  0.00    +0.379 N 
ATOM     24  C   UNL     1      11.397  30.159  20.450  0.00  0.00    -0.096 C 
ATOM     25  H   UNL     1      11.059  28.319  21.399  0.00  0.00    -0.082 HD
ATOM     26  C   UNL     1      11.680  27.917  19.389  0.00  0.00    -0.064 C 
ATOM     27  C   UNL     1      12.078  26.440  19.670  0.00  0.00    +0.066 C 
ENDBRANCH  19  20
ENDBRANCH  18  19
ENDBRANCH  14  15
ENDBRANCH  12  13
TORSDOF 6
ENDMDL
