MODEL 1
REMARK VINA RESULT:      -7.2      0.000      0.000
REMARK  Name = C:\Users\Docking\Desktop\test protocol\1iep_ligandH.pdb
REMARK  8 active torsions:
REMARK  status: ('A' for Active; 'I' for Inactive)
REMARK    1  A    between atoms: _5  and  _11
REMARK    2  A    between atoms: _19  and  _21
REMARK    3  A    between atoms: _22  and  _66
REMARK    4  A    between atoms: _27  and  _30
REMARK    5  A    between atoms: _32  and  _33
REMARK    6  A    between atoms: _38  and  _43
REMARK    7  A    between atoms: _43  and  _46
REMARK    8  A    between atoms: _53  and  _55
REMARK                            x       y       z     vdW  Elec       q    Type
REMARK                         _______ _______ _______ _____ _____    ______ ____
ROOT
ATOM     10  C   UNL     1     -32.198 -39.793   0.345  0.00  0.00    +0.038 A 
ATOM     11  C   UNL     1     -32.128 -41.184   0.077  0.00  0.00    +0.047 A 
ATOM     12  C   UNL     1     -31.185 -42.040   0.782  0.00  0.00    +0.035 A 
ATOM     32  C   UNL     1     -30.331 -41.445   1.755  0.00  0.00    +0.024 A 
ATOM     33  C   UNL     1     -30.388 -40.032   2.039  0.00  0.00    +0.007 A 
ATOM     34  C   UNL     1     -31.314 -39.183   1.345  0.00  0.00    -0.029 A 
ATOM     35  C   UNL     1     -31.327 -37.675   1.685  0.00  0.00    +0.045 C 
ENDROOT
BRANCH  10   9
ATOM      4  C   UNL     1     -33.474 -37.130  -3.439  0.00  0.00    +0.077 A 
ATOM      5  C   UNL     1     -32.182 -37.269  -4.047  0.00  0.00    +0.048 A 
ATOM      6  C   UNL     1     -31.215 -38.028  -3.351  0.00  0.00    +0.116 A 
ATOM      7  N   UNL     1     -31.528 -38.601  -2.137  0.00  0.00    -0.223 NA
ATOM      8  C   UNL     1     -32.783 -38.446  -1.577  0.00  0.00    +0.220 A 
ATOM      9  N   UNL     1     -33.122 -39.020  -0.361  0.00  0.00    -0.283 N 
ATOM     36  H   UNL     1     -34.056 -38.875   0.021  0.00  0.00    +0.155 HD
ATOM     37  N   UNL     1     -33.723 -37.724  -2.222  0.00  0.00    -0.214 NA
BRANCH   4   3
ATOM      1  C   UNL     1     -36.056 -35.701  -6.006  0.00  0.00    +0.020 A 
ATOM      2  C   UNL     1     -34.957 -36.465  -5.463  0.00  0.00    +0.013 A 
ATOM      3  C   UNL     1     -34.602 -36.360  -4.053  0.00  0.00    +0.019 A 
ATOM     38  C   UNL     1     -35.385 -35.467  -3.214  0.00  0.00    +0.120 A 
ATOM     39  N   UNL     1     -36.437 -34.742  -3.765  0.00  0.00    -0.263 NA
ATOM     40  C   UNL     1     -36.787 -34.833  -5.120  0.00  0.00    +0.111 A 
ENDBRANCH   4   3
ENDBRANCH  10   9
BRANCH  12  13
ATOM     13  N   UNL     1     -31.063 -43.457   0.547  0.00  0.00    -0.281 N 
ATOM     14  C   UNL     1     -29.946 -44.156   0.121  0.00  0.00    +0.248 C 
ATOM     30  O   UNL     1     -28.936 -43.637  -0.331  0.00  0.00    -0.270 OA
ATOM     31  H   UNL     1     -31.902 -44.012   0.716  0.00  0.00    +0.155 HD
BRANCH  14  15
ATOM     15  C   UNL     1     -29.957 -45.649   0.193  0.00  0.00    +0.037 A 
ATOM     16  C   UNL     1     -29.773 -46.469  -1.007  0.00  0.00    +0.013 A 
ATOM     17  C   UNL     1     -29.805 -47.907  -0.912  0.00  0.00    +0.005 A 
ATOM     18  C   UNL     1     -30.022 -48.534   0.390  0.00  0.00    -0.033 A 
ATOM     28  C   UNL     1     -30.197 -47.697   1.564  0.00  0.00    +0.005 A 
ATOM     29  C   UNL     1     -30.167 -46.287   1.475  0.00  0.00    +0.013 A 
BRANCH  18  19
ATOM     19  C   UNL     1     -30.093 -50.061   0.581  0.00  0.00    +0.119 C 
BRANCH  19  20
ATOM     20  N   UNL     1     -29.245 -50.903  -0.315  0.00  0.00    -0.302 NA
ATOM     21  C   UNL     1     -29.669 -52.374  -0.292  0.00  0.00    +0.066 C 
ATOM     22  C   UNL     1     -28.787 -53.236  -1.253  0.00  0.00    -0.064 C 
ATOM     23  N   UNL     1     -27.316 -53.090  -0.858  0.00  0.00    +0.379 N 
ATOM     24  C   UNL     1     -26.489 -53.944  -1.723  0.00  0.00    -0.096 C 
ATOM     25  H   UNL     1     -27.208 -53.461   0.187  0.00  0.00    -0.082 HD
ATOM     26  C   UNL     1     -26.887 -51.629  -0.876  0.00  0.00    -0.064 C 
ATOM     27  C   UNL     1     -27.789 -50.776   0.059  0.00  0.00    +0.066 C 
ENDBRANCH  19  20
ENDBRANCH  18  19
ENDBRANCH  14  15
ENDBRANCH  12  13
TORSDOF 6
ENDMDL
MODEL 2
REMARK VINA RESULT:      -6.8      1.671      2.317
REMARK  Name = C:\Users\Docking\Desktop\test protocol\1iep_ligandH.pdb
REMARK  8 active torsions:
REMARK  status: ('A' for Active; 'I' for Inactive)
REMARK    1  A    between atoms: _5  and  _11
REMARK    2  A    between atoms: _19  and  _21
REMARK    3  A    between atoms: _22  and  _66
REMARK    4  A    between atoms: _27  and  _30
REMARK    5  A    between atoms: _32  and  _33
REMARK    6  A    between atoms: _38  and  _43
REMARK    7  A    between atoms: _43  and  _46
REMARK    8  A    between atoms: _53  and  _55
REMARK                            x       y       z     vdW  Elec       q    Type
REMARK                         _______ _______ _______ _____ _____    ______ ____
ROOT
ATOM     10  C   UNL     1     -32.337 -40.477  -0.233  0.00  0.00    +0.038 A 
ATOM     11  C   UNL     1     -31.956 -41.805  -0.552  0.00  0.00    +0.047 A 
ATOM     12  C   UNL     1     -31.222 -42.626   0.398  0.00  0.00    +0.035 A 
ATOM     32  C   UNL     1     -30.895 -42.063   1.666  0.00  0.00    +0.024 A 
ATOM     33  C   UNL     1     -31.274 -40.714   2.006  0.00  0.00    +0.007 A 
ATOM     34  C   UNL     1     -31.995 -39.899   1.072  0.00  0.00    -0.029 A 
ATOM     35  C   UNL     1     -32.370 -38.457   1.488  0.00  0.00    +0.045 C 
ENDROOT
BRANCH  10   9
ATOM      4  C   UNL     1     -32.564 -37.139  -3.675  0.00  0.00    +0.077 A 
ATOM      5  C   UNL     1     -31.168 -36.831  -3.551  0.00  0.00    +0.048 A 
ATOM      6  C   UNL     1     -30.429 -37.549  -2.584  0.00  0.00    +0.116 A 
ATOM      7  N   UNL     1     -31.050 -38.502  -1.806  0.00  0.00    -0.223 NA
ATOM      8  C   UNL     1     -32.398 -38.774  -1.950  0.00  0.00    +0.220 A 
ATOM      9  N   UNL     1     -33.041 -39.733  -1.184  0.00  0.00    -0.283 N 
ATOM     36  H   UNL     1     -34.038 -39.899  -1.315  0.00  0.00    +0.155 HD
ATOM     37  N   UNL     1     -33.126 -38.100  -2.865  0.00  0.00    -0.214 NA
BRANCH   4   3
ATOM      1  C   UNL     1     -34.754 -34.468  -5.511  0.00  0.00    +0.020 A 
ATOM      2  C   UNL     1     -33.869 -35.068  -4.540  0.00  0.00    +0.013 A 
ATOM      3  C   UNL     1     -33.478 -36.468  -4.653  0.00  0.00    +0.019 A 
ATOM     38  C   UNL     1     -34.003 -37.238  -5.770  0.00  0.00    +0.120 A 
ATOM     39  N   UNL     1     -34.854 -36.634  -6.690  0.00  0.00    -0.263 NA
ATOM     40  C   UNL     1     -35.239 -35.288  -6.590  0.00  0.00    +0.111 A 
ENDBRANCH   4   3
ENDBRANCH  10   9
BRANCH  12  13
ATOM     13  N   UNL     1     -30.801 -43.978   0.127  0.00  0.00    -0.281 N 
ATOM     14  C   UNL     1     -29.539 -44.422  -0.233  0.00  0.00    +0.248 C 
ATOM     30  O   UNL     1     -28.625 -43.692  -0.587  0.00  0.00    -0.270 OA
ATOM     31  H   UNL     1     -31.521 -44.696   0.211  0.00  0.00    +0.155 HD
BRANCH  14  15
ATOM     15  C   UNL     1     -29.256 -45.889  -0.211  0.00  0.00    +0.037 A 
ATOM     16  C   UNL     1     -28.214 -46.449   0.654  0.00  0.00    +0.013 A 
ATOM     17  C   UNL     1     -27.950 -47.866   0.644  0.00  0.00    +0.005 A 
ATOM     18  C   UNL     1     -28.730 -48.733  -0.235  0.00  0.00    -0.033 A 
ATOM     28  C   UNL     1     -29.761 -48.152  -1.079  0.00  0.00    +0.005 A 
ATOM     29  C   UNL     1     -30.022 -46.764  -1.072  0.00  0.00    +0.013 A 
BRANCH  18  19
ATOM     19  C   UNL     1     -28.501 -50.254  -0.327  0.00  0.00    +0.119 C 
BRANCH  19  20
ATOM     20  N   UNL     1     -28.717 -51.054   0.915  0.00  0.00    -0.302 NA
ATOM     21  C   UNL     1     -28.618 -52.560   0.653  0.00  0.00    +0.066 C 
ATOM     22  C   UNL     1     -28.824 -53.381   1.967  0.00  0.00    -0.064 C 
ATOM     23  N   UNL     1     -30.179 -53.025   2.581  0.00  0.00    +0.379 N 
ATOM     24  C   UNL     1     -30.401 -53.838   3.786  0.00  0.00    -0.096 C 
ATOM     25  H   UNL     1     -30.967 -53.296   1.840  0.00  0.00    -0.082 HD
ATOM     26  C   UNL     1     -30.286 -51.530   2.842  0.00  0.00    -0.064 C 
ATOM     27  C   UNL     1     -30.051 -50.722   1.536  0.00  0.00    +0.066 C 
ENDBRANCH  19  20
ENDBRANCH  18  19
ENDBRANCH  14  15
ENDBRANCH  12  13
TORSDOF 6
ENDMDL
MODEL 3
REMARK VINA RESULT:      -6.8     35.607     38.645
REMARK  Name = C:\Users\Docking\Desktop\test protocol\1iep_ligandH.pdb
REMARK  8 active torsions:
REMARK  status: ('A' for Active; 'I' for Inactive)
REMARK    1  A    between atoms: _5  and  _11
REMARK    2  A    between atoms: _19  and  _21
REMARK    3  A    between atoms: _22  and  _66
REMARK    4  A    between atoms: _27  and  _30
REMARK    5  A    between atoms: _32  and  _33
REMARK    6  A    between atoms: _38  and  _43
REMARK    7  A    between atoms: _43  and  _46
REMARK    8  A    between atoms: _53  and  _55
REMARK                            x       y       z     vdW  Elec       q    Type
REMARK                         _______ _______ _______ _____ _____    ______ ____
ROOT
ATOM     10  C   UNL     1     -43.633 -76.277 -19.080  0.00  0.00    +0.038 A 
ATOM     11  C   UNL     1     -42.851 -76.145 -17.903  0.00  0.00    +0.047 A 
ATOM     12  C   UNL     1     -41.744 -77.048 -17.630  0.00  0.00    +0.035 A 
ATOM     32  C   UNL     1     -41.459 -78.073 -18.579  0.00  0.00    +0.024 A 
ATOM     33  C   UNL     1     -42.244 -78.223 -19.779  0.00  0.00    +0.007 A 
ATOM     34  C   UNL     1     -43.339 -77.336 -20.052  0.00  0.00    -0.029 A 
ATOM     35  C   UNL     1     -44.150 -77.547 -21.352  0.00  0.00    +0.045 C 
ENDROOT
BRANCH  10   9
ATOM      4  C   UNL     1     -48.221 -74.950 -18.608  0.00  0.00    +0.077 A 
ATOM      5  C   UNL     1     -48.558 -76.154 -17.904  0.00  0.00    +0.048 A 
ATOM      6  C   UNL     1     -47.524 -77.092 -17.690  0.00  0.00    +0.116 A 
ATOM      7  N   UNL     1     -46.250 -76.835 -18.150  0.00  0.00    -0.223 NA
ATOM      8  C   UNL     1     -45.959 -75.665 -18.827  0.00  0.00    +0.220 A 
ATOM      9  N   UNL     1     -44.684 -75.382 -19.291  0.00  0.00    -0.283 N 
ATOM     36  H   UNL     1     -44.512 -74.512 -19.793  0.00  0.00    +0.155 HD
ATOM     37  N   UNL     1     -46.930 -74.754 -19.045  0.00  0.00    -0.214 NA
BRANCH   4   3
ATOM      1  C   UNL     1     -49.815 -71.445 -19.295  0.00  0.00    +0.020 A 
ATOM      2  C   UNL     1     -48.827 -72.457 -19.001  0.00  0.00    +0.013 A 
ATOM      3  C   UNL     1     -49.204 -73.862 -18.909  0.00  0.00    +0.019 A 
ATOM     38  C   UNL     1     -50.600 -74.212 -19.122  0.00  0.00    +0.120 A 
ATOM     39  N   UNL     1     -51.530 -73.215 -19.402  0.00  0.00    -0.263 NA
ATOM     40  C   UNL     1     -51.179 -71.860 -19.491  0.00  0.00    +0.111 A 
ENDBRANCH   4   3
ENDBRANCH  10   9
BRANCH  12  13
ATOM     13  N   UNL     1     -40.921 -76.968 -16.450  0.00  0.00    -0.281 N 
ATOM     14  C   UNL     1     -39.937 -76.037 -16.159  0.00  0.00    +0.248 C 
ATOM     30  O   UNL     1     -39.466 -75.253 -16.970  0.00  0.00    -0.270 OA
ATOM     31  H   UNL     1     -41.083 -77.684 -15.742  0.00  0.00    +0.155 HD
BRANCH  14  15
ATOM     15  C   UNL     1     -39.386 -75.977 -14.771  0.00  0.00    +0.037 A 
ATOM     16  C   UNL     1     -39.438 -74.742 -13.985  0.00  0.00    +0.013 A 
ATOM     17  C   UNL     1     -38.884 -74.707 -12.655  0.00  0.00    +0.005 A 
ATOM     18  C   UNL     1     -38.275 -75.914 -12.101  0.00  0.00    -0.033 A 
ATOM     28  C   UNL     1     -38.243 -77.128 -12.900  0.00  0.00    +0.005 A 
ATOM     29  C   UNL     1     -38.783 -77.165 -14.204  0.00  0.00    +0.013 A 
BRANCH  18  19
ATOM     19  C   UNL     1     -37.641 -75.962 -10.698  0.00  0.00    +0.119 C 
BRANCH  19  20
ATOM     20  N   UNL     1     -37.385 -77.311 -10.110  0.00  0.00    -0.302 NA
ATOM     21  C   UNL     1     -38.499 -77.741  -9.151  0.00  0.00    +0.066 C 
ATOM     22  C   UNL     1     -38.226 -79.163  -8.563  0.00  0.00    -0.064 C 
ATOM     23  N   UNL     1     -36.870 -79.167  -7.854  0.00  0.00    +0.379 N 
ATOM     24  C   UNL     1     -36.636 -80.487  -7.249  0.00  0.00    -0.096 C 
ATOM     25  H   UNL     1     -36.919 -78.420  -7.028  0.00  0.00    -0.082 HD
ATOM     26  C   UNL     1     -35.757 -78.738  -8.799  0.00  0.00    -0.064 C 
ATOM     27  C   UNL     1     -36.053 -77.336  -9.401  0.00  0.00    +0.066 C 
ENDBRANCH  19  20
ENDBRANCH  18  19
ENDBRANCH  14  15
ENDBRANCH  12  13
TORSDOF 6
ENDMDL
MODEL 4
REMARK VINA RESULT:      -6.5      5.059     10.561
REMARK  Name = C:\Users\Docking\Desktop\test protocol\1iep_ligandH.pdb
REMARK  8 active torsions:
REMARK  status: ('A' for Active; 'I' for Inactive)
REMARK    1  A    between atoms: _5  and  _11
REMARK    2  A    between atoms: _19  and  _21
REMARK    3  A    between atoms: _22  and  _66
REMARK    4  A    between atoms: _27  and  _30
REMARK    5  A    between atoms: _32  and  _33
REMARK    6  A    between atoms: _38  and  _43
REMARK    7  A    between atoms: _43  and  _46
REMARK    8  A    between atoms: _53  and  _55
REMARK                            x       y       z     vdW  Elec       q    Type
REMARK                         _______ _______ _______ _____ _____    ______ ____
ROOT
ATOM     10  C   UNL     1     -29.996 -50.466   0.019  0.00  0.00    +0.038 A 
ATOM     11  C   UNL     1     -28.912 -50.773  -0.842  0.00  0.00    +0.047 A 
ATOM     12  C   UNL     1     -28.384 -52.125  -0.936  0.00  0.00    +0.035 A 
ATOM     32  C   UNL     1     -28.986 -53.142  -0.139  0.00  0.00    +0.024 A 
ATOM     33  C   UNL     1     -30.088 -52.848   0.743  0.00  0.00    +0.007 A 
ATOM     34  C   UNL     1     -30.612 -51.515   0.841  0.00  0.00    -0.029 A 
ATOM     35  C   UNL     1     -31.790 -51.257   1.809  0.00  0.00    +0.045 C 
ENDROOT
BRANCH  10   9
ATOM      4  C   UNL     1     -29.707 -45.927   1.553  0.00  0.00    +0.077 A 
ATOM      5  C   UNL     1     -28.542 -46.206   2.342  0.00  0.00    +0.048 A 
ATOM      6  C   UNL     1     -28.053 -47.532   2.332  0.00  0.00    +0.116 A 
ATOM      7  N   UNL     1     -28.689 -48.498   1.584  0.00  0.00    -0.223 NA
ATOM      8  C   UNL     1     -29.812 -48.196   0.835  0.00  0.00    +0.220 A 
ATOM      9  N   UNL     1     -30.464 -49.151   0.070  0.00  0.00    -0.283 N 
ATOM     36  H   UNL     1     -31.293 -48.890  -0.463  0.00  0.00    +0.155 HD
ATOM     37  N   UNL     1     -30.300 -46.938   0.830  0.00  0.00    -0.214 NA
BRANCH   4   3
ATOM      1  C   UNL     1     -31.197 -42.431   2.476  0.00  0.00    +0.020 A 
ATOM      2  C   UNL     1     -30.582 -43.730   2.622  0.00  0.00    +0.013 A 
ATOM      3  C   UNL     1     -30.341 -44.575   1.459  0.00  0.00    +0.019 A 
ATOM     38  C   UNL     1     -30.737 -44.071   0.152  0.00  0.00    +0.120 A 
ATOM     39  N   UNL     1     -31.329 -42.817   0.043  0.00  0.00    -0.263 NA
ATOM     40  C   UNL     1     -31.567 -41.995   1.155  0.00  0.00    +0.111 A 
ENDBRANCH   4   3
ENDBRANCH  10   9
BRANCH  12  13
ATOM     13  N   UNL     1     -27.280 -52.493  -1.787  0.00  0.00    -0.281 N 
ATOM     14  C   UNL     1     -25.928 -52.293  -1.563  0.00  0.00    +0.248 C 
ATOM     30  O   UNL     1     -25.472 -51.570  -0.689  0.00  0.00    -0.270 OA
ATOM     31  H   UNL     1     -27.526 -52.959  -2.661  0.00  0.00    +0.155 HD
BRANCH  14  15
ATOM     15  C   UNL     1     -24.939 -52.984  -2.446  0.00  0.00    +0.037 A 
ATOM     16  C   UNL     1     -24.707 -54.426  -2.343  0.00  0.00    +0.013 A 
ATOM     17  C   UNL     1     -23.735 -55.065  -3.195  0.00  0.00    +0.005 A 
ATOM     18  C   UNL     1     -22.989 -54.260  -4.160  0.00  0.00    -0.033 A 
ATOM     28  C   UNL     1     -23.244 -52.831  -4.244  0.00  0.00    +0.005 A 
ATOM     29  C   UNL     1     -24.195 -52.202  -3.410  0.00  0.00    +0.013 A 
BRANCH  18  19
ATOM     19  C   UNL     1     -21.919 -54.854  -5.094  0.00  0.00    +0.119 C 
BRANCH  19  20
ATOM     20  N   UNL     1     -22.279 -55.009  -6.535  0.00  0.00    -0.302 NA
ATOM     21  C   UNL     1     -22.006 -53.733  -7.336  0.00  0.00    +0.066 C 
ATOM     22  C   UNL     1     -22.368 -53.921  -8.846  0.00  0.00    -0.064 C 
ATOM     23  N   UNL     1     -23.835 -54.335  -8.968  0.00  0.00    +0.379 N 
ATOM     24  C   UNL     1     -24.194 -54.456 -10.389  0.00  0.00    -0.096 C 
ATOM     25  H   UNL     1     -24.454 -53.517  -8.532  0.00  0.00    -0.082 HD
ATOM     26  C   UNL     1     -24.116 -55.601  -8.172  0.00  0.00    -0.064 C 
ATOM     27  C   UNL     1     -23.726 -55.414  -6.679  0.00  0.00    +0.066 C 
ENDBRANCH  19  20
ENDBRANCH  18  19
ENDBRANCH  14  15
ENDBRANCH  12  13
TORSDOF 6
ENDMDL
MODEL 5
REMARK VINA RESULT:      -6.5      2.285      3.717
REMARK  Name = C:\Users\Docking\Desktop\test protocol\1iep_ligandH.pdb
REMARK  8 active torsions:
REMARK  status: ('A' for Active; 'I' for Inactive)
REMARK    1  A    between atoms: _5  and  _11
REMARK    2  A    between atoms: _19  and  _21
REMARK    3  A    between atoms: _22  and  _66
REMARK    4  A    between atoms: _27  and  _30
REMARK    5  A    between atoms: _32  and  _33
REMARK    6  A    between atoms: _38  and  _43
REMARK    7  A    between atoms: _43  and  _46
REMARK    8  A    between atoms: _53  and  _55
REMARK                            x       y       z     vdW  Elec       q    Type
REMARK                         _______ _______ _______ _____ _____    ______ ____
ROOT
ATOM     10  C   UNL     1     -31.087 -42.527   1.794  0.00  0.00    +0.038 A 
ATOM     11  C   UNL     1     -30.601 -43.660   1.092  0.00  0.00    +0.047 A 
ATOM     12  C   UNL     1     -30.597 -44.980   1.704  0.00  0.00    +0.035 A 
ATOM     32  C   UNL     1     -31.100 -45.111   3.031  0.00  0.00    +0.024 A 
ATOM     33  C   UNL     1     -31.597 -43.970   3.759  0.00  0.00    +0.007 A 
ATOM     34  C   UNL     1     -31.600 -42.665   3.162  0.00  0.00    -0.029 A 
ATOM     35  C   UNL     1     -32.140 -41.477   3.992  0.00  0.00    +0.045 C 
ENDROOT
BRANCH  10   9
ATOM      4  C   UNL     1     -32.329 -39.584  -1.789  0.00  0.00    +0.077 A 
ATOM      5  C   UNL     1     -33.057 -40.618  -2.465  0.00  0.00    +0.048 A 
ATOM      6  C   UNL     1     -33.082 -41.896  -1.861  0.00  0.00    +0.116 A 
ATOM      7  N   UNL     1     -32.424 -42.111  -0.670  0.00  0.00    -0.223 NA
ATOM      8  C   UNL     1     -31.729 -41.092  -0.045  0.00  0.00    +0.220 A 
ATOM      9  N   UNL     1     -31.067 -41.284   1.158  0.00  0.00    -0.283 N 
ATOM     36  H   UNL     1     -30.559 -40.509   1.584  0.00  0.00    +0.155 HD
ATOM     37  N   UNL     1     -31.689 -39.864  -0.602  0.00  0.00    -0.214 NA
BRANCH   4   3
ATOM      1  C   UNL     1     -30.945 -36.303  -3.406  0.00  0.00    +0.020 A 
ATOM      2  C   UNL     1     -31.005 -37.665  -2.930  0.00  0.00    +0.013 A 
ATOM      3  C   UNL     1     -32.213 -38.181  -2.299  0.00  0.00    +0.019 A 
ATOM     38  C   UNL     1     -33.352 -37.286  -2.165  0.00  0.00    +0.120 A 
ATOM     39  N   UNL     1     -33.264 -35.978  -2.631  0.00  0.00    -0.263 NA
ATOM     40  C   UNL     1     -32.106 -35.470  -3.239  0.00  0.00    +0.111 A 
ENDBRANCH   4   3
ENDBRANCH  10   9
BRANCH  12  13
ATOM     13  N   UNL     1     -30.108 -46.165   1.043  0.00  0.00    -0.281 N 
ATOM     14  C   UNL     1     -28.798 -46.603   0.940  0.00  0.00    +0.248 C 
ATOM     30  O   UNL     1     -27.819 -45.927   1.219  0.00  0.00    -0.270 OA
ATOM     31  H   UNL     1     -30.814 -46.752   0.597  0.00  0.00    +0.155 HD
BRANCH  14  15
ATOM     15  C   UNL     1     -28.538 -47.988   0.441  0.00  0.00    +0.037 A 
ATOM     16  C   UNL     1     -27.260 -48.659   0.696  0.00  0.00    +0.013 A 
ATOM     17  C   UNL     1     -27.028 -49.988   0.189  0.00  0.00    +0.005 A 
ATOM     18  C   UNL     1     -28.078 -50.656  -0.577  0.00  0.00    -0.033 A 
ATOM     28  C   UNL     1     -29.337 -49.969  -0.811  0.00  0.00    +0.005 A 
ATOM     29  C   UNL     1     -29.568 -48.666  -0.316  0.00  0.00    +0.013 A 
BRANCH  18  19
ATOM     19  C   UNL     1     -27.910 -52.066  -1.175  0.00  0.00    +0.119 C 
BRANCH  19  20
ATOM     20  N   UNL     1     -26.601 -52.750  -0.954  0.00  0.00    -0.302 NA
ATOM     21  C   UNL     1     -25.846 -52.983  -2.266  0.00  0.00    +0.066 C 
ATOM     22  C   UNL     1     -24.469 -53.679  -2.015  0.00  0.00    -0.064 C 
ATOM     23  N   UNL     1     -24.695 -55.000  -1.278  0.00  0.00    +0.379 N 
ATOM     24  C   UNL     1     -23.408 -55.685  -1.092  0.00  0.00    -0.096 C 
ATOM     25  H   UNL     1     -25.331 -55.645  -1.929  0.00  0.00    -0.082 HD
ATOM     26  C   UNL     1     -25.448 -54.778   0.026  0.00  0.00    -0.064 C 
ATOM     27  C   UNL     1     -26.801 -54.059  -0.232  0.00  0.00    +0.066 C 
ENDBRANCH  19  20
ENDBRANCH  18  19
ENDBRANCH  14  15
ENDBRANCH  12  13
TORSDOF 6
ENDMDL
