MODEL 1
REMARK VINA RESULT:      -9.2      0.000      0.000
REMARK  Name = C:\Users\Docking\Desktop\test protocol\1iep_ligandH.pdb
REMARK  8 active torsions:
REMARK  status: ('A' for Active; 'I' for Inactive)
REMARK    1  A    between atoms: _5  and  _11
REMARK    2  A    between atoms: _19  and  _21
REMARK    3  A    between atoms: _22  and  _66
REMARK    4  A    between atoms: _27  and  _30
REMARK    5  A    between atoms: _32  and  _33
REMARK    6  A    between atoms: _38  and  _43
REMARK    7  A    between atoms: _43  and  _46
REMARK    8  A    between atoms: _53  and  _55
REMARK                            x       y       z     vdW  Elec       q    Type
REMARK                         _______ _______ _______ _____ _____    ______ ____
ROOT
ATOM     10  C   UNL     1     -19.752  17.595 -19.391  0.00  0.00    +0.038 A 
ATOM     11  C   UNL     1     -18.476  17.882 -18.841  0.00  0.00    +0.047 A 
ATOM     12  C   UNL     1     -17.899  19.214 -18.935  0.00  0.00    +0.035 A 
ATOM     32  C   UNL     1     -18.650  20.231 -19.594  0.00  0.00    +0.024 A 
ATOM     33  C   UNL     1     -19.948  19.956 -20.159  0.00  0.00    +0.007 A 
ATOM     34  C   UNL     1     -20.521  18.643 -20.072  0.00  0.00    -0.029 A 
ATOM     35  C   UNL     1     -21.913  18.404 -20.702  0.00  0.00    +0.045 C 
ENDROOT
BRANCH  10   9
ATOM      4  C   UNL     1     -20.783  13.271 -21.201  0.00  0.00    +0.077 A 
ATOM      5  C   UNL     1     -20.297  13.634 -22.501  0.00  0.00    +0.048 A 
ATOM      6  C   UNL     1     -19.796  14.945 -22.664  0.00  0.00    +0.116 A 
ATOM      7  N   UNL     1     -19.787  15.820 -21.599  0.00  0.00    -0.223 NA
ATOM      8  C   UNL     1     -20.265  15.438 -20.359  0.00  0.00    +0.220 A 
ATOM      9  N   UNL     1     -20.258  16.299 -19.272  0.00  0.00    -0.283 N 
ATOM     36  H   UNL     1     -20.626  15.981 -18.375  0.00  0.00    +0.155 HD
ATOM     37  N   UNL     1     -20.749  14.192 -20.178  0.00  0.00    -0.214 NA
BRANCH   4   3
ATOM      1  C   UNL     1     -21.489   9.855 -19.430  0.00  0.00    +0.020 A 
ATOM      2  C   UNL     1     -20.919  11.155 -19.704  0.00  0.00    +0.013 A 
ATOM      3  C   UNL     1     -21.339  11.921 -20.870  0.00  0.00    +0.019 A 
ATOM     38  C   UNL     1     -22.346  11.340 -21.746  0.00  0.00    +0.120 A 
ATOM     39  N   UNL     1     -22.876  10.086 -21.457  0.00  0.00    -0.263 NA
ATOM     40  C   UNL     1     -22.478   9.339 -20.339  0.00  0.00    +0.111 A 
ENDBRANCH   4   3
ENDBRANCH  10   9
BRANCH  12  13
ATOM     13  N   UNL     1     -16.605  19.563 -18.403  0.00  0.00    -0.281 N 
ATOM     14  C   UNL     1     -16.322  20.352 -17.300  0.00  0.00    +0.248 C 
ATOM     30  O   UNL     1     -17.140  21.056 -16.726  0.00  0.00    -0.270 OA
ATOM     31  H   UNL     1     -15.800  19.183 -18.901  0.00  0.00    +0.155 HD
BRANCH  14  15
ATOM     15  C   UNL     1     -14.926  20.373 -16.766  0.00  0.00    +0.037 A 
ATOM     16  C   UNL     1     -13.794  19.925 -17.581  0.00  0.00    +0.013 A 
ATOM     17  C   UNL     1     -12.460  19.939 -17.036  0.00  0.00    +0.005 A 
ATOM     18  C   UNL     1     -12.251  20.406 -15.668  0.00  0.00    -0.033 A 
ATOM     28  C   UNL     1     -13.391  20.850 -14.883  0.00  0.00    +0.005 A 
ATOM     29  C   UNL     1     -14.700  20.836 -15.414  0.00  0.00    +0.013 A 
BRANCH  18  19
ATOM     19  C   UNL     1     -10.864  20.436 -14.997  0.00  0.00    +0.119 C 
BRANCH  19  20
ATOM     20  N   UNL     1     -10.705  21.308 -13.795  0.00  0.00    -0.302 NA
ATOM     21  C   UNL     1     -10.113  22.675 -14.152  0.00  0.00    +0.066 C 
ATOM     22  C   UNL     1      -9.974  23.582 -12.886  0.00  0.00    -0.064 C 
ATOM     23  N   UNL     1      -9.108  22.872 -11.845  0.00  0.00    +0.379 N 
ATOM     24  C   UNL     1      -8.927  23.747 -10.678  0.00  0.00    -0.096 C 
ATOM     25  H   UNL     1      -8.104  22.703 -12.300  0.00  0.00    -0.082 HD
ATOM     26  C   UNL     1      -9.687  21.511 -11.487  0.00  0.00    -0.064 C 
ATOM     27  C   UNL     1      -9.849  20.628 -12.756  0.00  0.00    +0.066 C 
ENDBRANCH  19  20
ENDBRANCH  18  19
ENDBRANCH  14  15
ENDBRANCH  12  13
TORSDOF 6
ENDMDL
MODEL 2
REMARK VINA RESULT:      -9.2      3.945     15.686
REMARK  Name = C:\Users\Docking\Desktop\test protocol\1iep_ligandH.pdb
REMARK  8 active torsions:
REMARK  status: ('A' for Active; 'I' for Inactive)
REMARK    1  A    between atoms: _5  and  _11
REMARK    2  A    between atoms: _19  and  _21
REMARK    3  A    between atoms: _22  and  _66
REMARK    4  A    between atoms: _27  and  _30
REMARK    5  A    between atoms: _32  and  _33
REMARK    6  A    between atoms: _38  and  _43
REMARK    7  A    between atoms: _43  and  _46
REMARK    8  A    between atoms: _53  and  _55
REMARK                            x       y       z     vdW  Elec       q    Type
REMARK                         _______ _______ _______ _____ _____    ______ ____
ROOT
ATOM     10  C   UNL     1      -8.824  22.612 -13.584  0.00  0.00    +0.038 A 
ATOM     11  C   UNL     1     -10.156  22.542 -14.067  0.00  0.00    +0.047 A 
ATOM     12  C   UNL     1     -10.872  21.277 -14.120  0.00  0.00    +0.035 A 
ATOM     32  C   UNL     1     -10.202  20.102 -13.670  0.00  0.00    +0.024 A 
ATOM     33  C   UNL     1      -8.849  20.155 -13.177  0.00  0.00    +0.007 A 
ATOM     34  C   UNL     1      -8.136  21.399 -13.125  0.00  0.00    -0.029 A 
ATOM     35  C   UNL     1      -6.684  21.395 -12.593  0.00  0.00    +0.045 C 
ENDROOT
BRANCH  10   9
ATOM      4  C   UNL     1      -7.606  26.696 -11.377  0.00  0.00    +0.077 A 
ATOM      5  C   UNL     1      -8.329  26.339 -10.190  0.00  0.00    +0.048 A 
ATOM      6  C   UNL     1      -9.006  25.099 -10.191  0.00  0.00    +0.116 A 
ATOM      7  N   UNL     1      -8.958  24.285 -11.301  0.00  0.00    -0.223 NA
ATOM      8  C   UNL     1      -8.253  24.660 -12.430  0.00  0.00    +0.220 A 
ATOM      9  N   UNL     1      -8.184  23.853 -13.555  0.00  0.00    -0.283 N 
ATOM     36  H   UNL     1      -7.660  24.168 -14.371  0.00  0.00    +0.155 HD
ATOM     37  N   UNL     1      -7.599  25.839 -12.455  0.00  0.00    -0.214 NA
BRANCH   4   3
ATOM      1  C   UNL     1      -6.629  30.388 -12.221  0.00  0.00    +0.020 A 
ATOM      2  C   UNL     1      -7.415  29.182 -12.097  0.00  0.00    +0.013 A 
ATOM      3  C   UNL     1      -6.837  27.972 -11.528  0.00  0.00    +0.019 A 
ATOM     38  C   UNL     1      -5.450  28.015 -11.089  0.00  0.00    +0.120 A 
ATOM     39  N   UNL     1      -4.718  29.191 -11.222  0.00  0.00    -0.263 NA
ATOM     40  C   UNL     1      -5.263  30.361 -11.769  0.00  0.00    +0.111 A 
ENDBRANCH   4   3
ENDBRANCH  10   9
BRANCH  12  13
ATOM     13  N   UNL     1     -12.222  21.144 -14.608  0.00  0.00    -0.281 N 
ATOM     14  C   UNL     1     -13.398  21.499 -13.968  0.00  0.00    +0.248 C 
ATOM     30  O   UNL     1     -13.480  21.790 -12.784  0.00  0.00    -0.270 OA
ATOM     31  H   UNL     1     -12.323  20.739 -15.539  0.00  0.00    +0.155 HD
BRANCH  14  15
ATOM     15  C   UNL     1     -14.670  21.520 -14.753  0.00  0.00    +0.037 A 
ATOM     16  C   UNL     1     -14.972  20.478 -15.738  0.00  0.00    +0.013 A 
ATOM     17  C   UNL     1     -16.199  20.531 -16.493  0.00  0.00    +0.005 A 
ATOM     18  C   UNL     1     -17.133  21.631 -16.266  0.00  0.00    -0.033 A 
ATOM     28  C   UNL     1     -16.811  22.648 -15.279  0.00  0.00    +0.005 A 
ATOM     29  C   UNL     1     -15.609  22.600 -14.537  0.00  0.00    +0.013 A 
BRANCH  18  19
ATOM     19  C   UNL     1     -18.455  21.779 -17.042  0.00  0.00    +0.119 C 
BRANCH  19  20
ATOM     20  N   UNL     1     -18.978  20.566 -17.740  0.00  0.00    -0.302 NA
ATOM     21  C   UNL     1     -18.619  20.561 -19.229  0.00  0.00    +0.066 C 
ATOM     22  C   UNL     1     -19.154  19.275 -19.939  0.00  0.00    -0.064 C 
ATOM     23  N   UNL     1     -20.669  19.183 -19.746  0.00  0.00    +0.379 N 
ATOM     24  C   UNL     1     -21.183  18.006 -20.462  0.00  0.00    -0.096 C 
ATOM     25  H   UNL     1     -21.125  20.087 -20.212  0.00  0.00    -0.082 HD
ATOM     26  C   UNL     1     -21.035  19.190 -18.269  0.00  0.00    -0.064 C 
ATOM     27  C   UNL     1     -20.473  20.458 -17.567  0.00  0.00    +0.066 C 
ENDBRANCH  19  20
ENDBRANCH  18  19
ENDBRANCH  14  15
ENDBRANCH  12  13
TORSDOF 6
ENDMDL
MODEL 3
REMARK VINA RESULT:      -8.9      3.691      6.575
REMARK  Name = C:\Users\Docking\Desktop\test protocol\1iep_ligandH.pdb
REMARK  8 active torsions:
REMARK  status: ('A' for Active; 'I' for Inactive)
REMARK    1  A    between atoms: _5  and  _11
REMARK    2  A    between atoms: _19  and  _21
REMARK    3  A    between atoms: _22  and  _66
REMARK    4  A    between atoms: _27  and  _30
REMARK    5  A    between atoms: _32  and  _33
REMARK    6  A    between atoms: _38  and  _43
REMARK    7  A    between atoms: _43  and  _46
REMARK    8  A    between atoms: _53  and  _55
REMARK                            x       y       z     vdW  Elec       q    Type
REMARK                         _______ _______ _______ _____ _____    ______ ____
ROOT
ATOM     10  C   UNL     1     -20.570  18.909 -18.969  0.00  0.00    +0.038 A 
ATOM     11  C   UNL     1     -19.488  19.350 -18.164  0.00  0.00    +0.047 A 
ATOM     12  C   UNL     1     -18.184  18.711 -18.241  0.00  0.00    +0.035 A 
ATOM     32  C   UNL     1     -18.015  17.627 -19.152  0.00  0.00    +0.024 A 
ATOM     33  C   UNL     1     -19.104  17.166 -19.977  0.00  0.00    +0.007 A 
ATOM     34  C   UNL     1     -20.394  17.791 -19.903  0.00  0.00    -0.029 A 
ATOM     35  C   UNL     1     -21.527  17.250 -20.806  0.00  0.00    +0.045 C 
ENDROOT
BRANCH  10   9
ATOM      4  C   UNL     1     -23.666  22.362 -20.208  0.00  0.00    +0.077 A 
ATOM      5  C   UNL     1     -22.742  22.935 -21.144  0.00  0.00    +0.048 A 
ATOM      6  C   UNL     1     -21.479  22.316 -21.272  0.00  0.00    +0.116 A 
ATOM      7  N   UNL     1     -21.172  21.206 -20.515  0.00  0.00    -0.223 NA
ATOM      8  C   UNL     1     -22.085  20.679 -19.619  0.00  0.00    +0.220 A 
ATOM      9  N   UNL     1     -21.801  19.559 -18.854  0.00  0.00    -0.283 N 
ATOM     36  H   UNL     1     -22.498  19.205 -18.199  0.00  0.00    +0.155 HD
ATOM     37  N   UNL     1     -23.298  21.253 -19.478  0.00  0.00    -0.214 NA
BRANCH   4   3
ATOM      1  C   UNL     1     -27.059  23.296 -18.502  0.00  0.00    +0.020 A 
ATOM      2  C   UNL     1     -25.732  22.757 -18.687  0.00  0.00    +0.013 A 
ATOM      3  C   UNL     1     -25.041  22.900 -19.962  0.00  0.00    +0.019 A 
ATOM     38  C   UNL     1     -25.726  23.601 -21.038  0.00  0.00    +0.120 A 
ATOM     39  N   UNL     1     -27.005  24.108 -20.831  0.00  0.00    -0.263 NA
ATOM     40  C   UNL     1     -27.680  23.975 -19.609  0.00  0.00    +0.111 A 
ENDBRANCH   4   3
ENDBRANCH  10   9
BRANCH  12  13
ATOM     13  N   UNL     1     -17.051  19.109 -17.443  0.00  0.00    -0.281 N 
ATOM     14  C   UNL     1     -16.235  20.216 -17.615  0.00  0.00    +0.248 C 
ATOM     30  O   UNL     1     -16.226  20.919 -18.614  0.00  0.00    -0.270 OA
ATOM     31  H   UNL     1     -16.822  18.502 -16.656  0.00  0.00    +0.155 HD
BRANCH  14  15
ATOM     15  C   UNL     1     -15.281  20.586 -16.525  0.00  0.00    +0.037 A 
ATOM     16  C   UNL     1     -13.858  20.248 -16.614  0.00  0.00    +0.013 A 
ATOM     17  C   UNL     1     -12.963  20.602 -15.541  0.00  0.00    +0.005 A 
ATOM     18  C   UNL     1     -13.489  21.299 -14.370  0.00  0.00    -0.033 A 
ATOM     28  C   UNL     1     -14.904  21.626 -14.310  0.00  0.00    +0.005 A 
ATOM     29  C   UNL     1     -15.785  21.280 -15.359  0.00  0.00    +0.013 A 
BRANCH  18  19
ATOM     19  C   UNL     1     -12.611  21.696 -13.168  0.00  0.00    +0.119 C 
BRANCH  19  20
ATOM     20  N   UNL     1     -11.130  21.606 -13.344  0.00  0.00    -0.302 NA
ATOM     21  C   UNL     1     -10.499  20.593 -12.385  0.00  0.00    +0.066 C 
ATOM     22  C   UNL     1      -8.953  20.494 -12.598  0.00  0.00    -0.064 C 
ATOM     23  N   UNL     1      -8.327  21.878 -12.414  0.00  0.00    +0.379 N 
ATOM     24  C   UNL     1      -6.867  21.778 -12.556  0.00  0.00    -0.096 C 
ATOM     25  H   UNL     1      -8.543  22.210 -11.372  0.00  0.00    -0.082 HD
ATOM     26  C   UNL     1      -8.951  22.892 -13.362  0.00  0.00    -0.064 C 
ATOM     27  C   UNL     1     -10.491  22.960 -13.162  0.00  0.00    +0.066 C 
ENDBRANCH  19  20
ENDBRANCH  18  19
ENDBRANCH  14  15
ENDBRANCH  12  13
TORSDOF 6
ENDMDL
MODEL 4
REMARK VINA RESULT:      -8.9      2.008      2.849
REMARK  Name = C:\Users\Docking\Desktop\test protocol\1iep_ligandH.pdb
REMARK  8 active torsions:
REMARK  status: ('A' for Active; 'I' for Inactive)
REMARK    1  A    between atoms: _5  and  _11
REMARK    2  A    between atoms: _19  and  _21
REMARK    3  A    between atoms: _22  and  _66
REMARK    4  A    between atoms: _27  and  _30
REMARK    5  A    between atoms: _32  and  _33
REMARK    6  A    between atoms: _38  and  _43
REMARK    7  A    between atoms: _43  and  _46
REMARK    8  A    between atoms: _53  and  _55
REMARK                            x       y       z     vdW  Elec       q    Type
REMARK                         _______ _______ _______ _____ _____    ______ ____
ROOT
ATOM     10  C   UNL     1     -19.739  17.557 -19.460  0.00  0.00    +0.038 A 
ATOM     11  C   UNL     1     -18.410  17.811 -19.036  0.00  0.00    +0.047 A 
ATOM     12  C   UNL     1     -17.827  19.140 -19.140  0.00  0.00    +0.035 A 
ATOM     32  C   UNL     1     -18.629  20.188 -19.680  0.00  0.00    +0.024 A 
ATOM     33  C   UNL     1     -19.981  19.947 -20.117  0.00  0.00    +0.007 A 
ATOM     34  C   UNL     1     -20.560  18.638 -20.018  0.00  0.00    -0.029 A 
ATOM     35  C   UNL     1     -22.013  18.436 -20.508  0.00  0.00    +0.045 C 
ENDROOT
BRANCH  10   9
ATOM      4  C   UNL     1     -20.825  13.245 -21.267  0.00  0.00    +0.077 A 
ATOM      5  C   UNL     1     -20.365  13.612 -22.576  0.00  0.00    +0.048 A 
ATOM      6  C   UNL     1     -19.862  14.922 -22.743  0.00  0.00    +0.116 A 
ATOM      7  N   UNL     1     -19.827  15.792 -21.674  0.00  0.00    -0.223 NA
ATOM      8  C   UNL     1     -20.281  15.407 -20.426  0.00  0.00    +0.220 A 
ATOM      9  N   UNL     1     -20.248  16.262 -19.336  0.00  0.00    -0.283 N 
ATOM     36  H   UNL     1     -20.598  15.942 -18.433  0.00  0.00    +0.155 HD
ATOM     37  N   UNL     1     -20.766  14.161 -20.241  0.00  0.00    -0.214 NA
BRANCH   4   3
ATOM      1  C   UNL     1     -22.895   9.928 -21.374  0.00  0.00    +0.020 A 
ATOM      2  C   UNL     1     -22.393  11.232 -21.742  0.00  0.00    +0.013 A 
ATOM      3  C   UNL     1     -21.380  11.896 -20.931  0.00  0.00    +0.019 A 
ATOM     38  C   UNL     1     -20.892  11.209 -19.745  0.00  0.00    +0.120 A 
ATOM     39  N   UNL     1     -21.396   9.954 -19.414  0.00  0.00    -0.263 NA
ATOM     40  C   UNL     1     -22.372   9.306 -20.186  0.00  0.00    +0.111 A 
ENDBRANCH   4   3
ENDBRANCH  10   9
BRANCH  12  13
ATOM     13  N   UNL     1     -16.481  19.456 -18.734  0.00  0.00    -0.281 N 
ATOM     14  C   UNL     1     -16.069  20.107 -17.582  0.00  0.00    +0.248 C 
ATOM     30  O   UNL     1     -16.816  20.709 -16.825  0.00  0.00    -0.270 OA
ATOM     31  H   UNL     1     -15.740  19.164 -19.372  0.00  0.00    +0.155 HD
BRANCH  14  15
ATOM     15  C   UNL     1     -14.617  20.101 -17.228  0.00  0.00    +0.037 A 
ATOM     16  C   UNL     1     -13.600  19.691 -18.200  0.00  0.00    +0.013 A 
ATOM     17  C   UNL     1     -12.208  19.677 -17.827  0.00  0.00    +0.005 A 
ATOM     18  C   UNL     1     -11.824  20.077 -16.475  0.00  0.00    -0.033 A 
ATOM     28  C   UNL     1     -12.854  20.485 -15.533  0.00  0.00    +0.005 A 
ATOM     29  C   UNL     1     -14.219  20.498 -15.894  0.00  0.00    +0.013 A 
BRANCH  18  19
ATOM     19  C   UNL     1     -10.365  20.073 -15.984  0.00  0.00    +0.119 C 
BRANCH  19  20
ATOM     20  N   UNL     1      -9.754  18.748 -15.665  0.00  0.00    -0.302 NA
ATOM     21  C   UNL     1      -9.197  18.701 -14.239  0.00  0.00    +0.066 C 
ATOM     22  C   UNL     1      -8.582  17.301 -13.914  0.00  0.00    -0.064 C 
ATOM     23  N   UNL     1      -7.489  16.977 -14.934  0.00  0.00    +0.379 N 
ATOM     24  C   UNL     1      -6.870  15.687 -14.597  0.00  0.00    -0.096 C 
ATOM     25  H   UNL     1      -6.703  17.763 -14.848  0.00  0.00    -0.082 HD
ATOM     26  C   UNL     1      -8.035  17.024 -16.355  0.00  0.00    -0.064 C 
ATOM     27  C   UNL     1      -8.669  18.410 -16.658  0.00  0.00    +0.066 C 
ENDBRANCH  19  20
ENDBRANCH  18  19
ENDBRANCH  14  15
ENDBRANCH  12  13
TORSDOF 6
ENDMDL
MODEL 5
REMARK VINA RESULT:      -8.8      8.909     12.221
REMARK  Name = C:\Users\Docking\Desktop\test protocol\1iep_ligandH.pdb
REMARK  8 active torsions:
REMARK  status: ('A' for Active; 'I' for Inactive)
REMARK    1  A    between atoms: _5  and  _11
REMARK    2  A    between atoms: _19  and  _21
REMARK    3  A    between atoms: _22  and  _66
REMARK    4  A    between atoms: _27  and  _30
REMARK    5  A    between atoms: _32  and  _33
REMARK    6  A    between atoms: _38  and  _43
REMARK    7  A    between atoms: _43  and  _46
REMARK    8  A    between atoms: _53  and  _55
REMARK                            x       y       z     vdW  Elec       q    Type
REMARK                         _______ _______ _______ _____ _____    ______ ____
ROOT
ATOM     10  C   UNL     1     -12.059  22.541 -14.719  0.00  0.00    +0.038 A 
ATOM     11  C   UNL     1     -11.418  23.803 -14.627  0.00  0.00    +0.047 A 
ATOM     12  C   UNL     1     -12.160  24.998 -14.256  0.00  0.00    +0.035 A 
ATOM     32  C   UNL     1     -13.553  24.870 -13.982  0.00  0.00    +0.024 A 
ATOM     33  C   UNL     1     -14.221  23.595 -14.072  0.00  0.00    +0.007 A 
ATOM     34  C   UNL     1     -13.494  22.414 -14.441  0.00  0.00    -0.029 A 
ATOM     35  C   UNL     1     -14.263  21.074 -14.528  0.00  0.00    +0.045 C 
ENDROOT
BRANCH  10   9
ATOM      4  C   UNL     1      -9.362  18.723 -13.628  0.00  0.00    +0.077 A 
ATOM      5  C   UNL     1      -9.455  18.986 -12.221  0.00  0.00    +0.048 A 
ATOM      6  C   UNL     1     -10.199  20.118 -11.820  0.00  0.00    +0.116 A 
ATOM      7  N   UNL     1     -10.803  20.920 -12.764  0.00  0.00    -0.223 NA
ATOM      8  C   UNL     1     -10.693  20.639 -14.114  0.00  0.00    +0.220 A 
ATOM      9  N   UNL     1     -11.298  21.427 -15.080  0.00  0.00    -0.283 N 
ATOM     36  H   UNL     1     -11.187  21.190 -16.066  0.00  0.00    +0.155 HD
ATOM     37  N   UNL     1      -9.986  19.564 -14.522  0.00  0.00    -0.214 NA
BRANCH   4   3
ATOM      1  C   UNL     1      -8.465  15.182 -15.026  0.00  0.00    +0.020 A 
ATOM      2  C   UNL     1      -9.233  16.269 -14.464  0.00  0.00    +0.013 A 
ATOM      3  C   UNL     1      -8.614  17.564 -14.208  0.00  0.00    +0.019 A 
ATOM     38  C   UNL     1      -7.205  17.726 -14.535  0.00  0.00    +0.120 A 
ATOM     39  N   UNL     1      -6.491  16.661 -15.074  0.00  0.00    -0.263 NA
ATOM     40  C   UNL     1      -7.075  15.410 -15.323  0.00  0.00    +0.111 A 
ENDBRANCH   4   3
ENDBRANCH  10   9
BRANCH  12  13
ATOM     13  N   UNL     1     -11.566  26.307 -14.154  0.00  0.00    -0.281 N 
ATOM     14  C   UNL     1     -10.624  26.746 -13.237  0.00  0.00    +0.248 C 
ATOM     30  O   UNL     1     -10.307  26.137 -12.226  0.00  0.00    -0.270 OA
ATOM     31  H   UNL     1     -11.876  26.994 -14.841  0.00  0.00    +0.155 HD
BRANCH  14  15
ATOM     15  C   UNL     1      -9.948  28.059 -13.468  0.00  0.00    +0.037 A 
ATOM     16  C   UNL     1      -8.703  28.405 -12.778  0.00  0.00    +0.013 A 
ATOM     17  C   UNL     1      -8.080  29.684 -13.007  0.00  0.00    +0.005 A 
ATOM     18  C   UNL     1      -8.702  30.628 -13.932  0.00  0.00    -0.033 A 
ATOM     28  C   UNL     1      -9.935  30.257 -14.608  0.00  0.00    +0.005 A 
ATOM     29  C   UNL     1     -10.548  29.004 -14.385  0.00  0.00    +0.013 A 
BRANCH  18  19
ATOM     19  C   UNL     1      -8.119  32.024 -14.221  0.00  0.00    +0.119 C 
BRANCH  19  20
ATOM     20  N   UNL     1      -6.851  32.087 -15.006  0.00  0.00    -0.302 NA
ATOM     21  C   UNL     1      -6.902  31.199 -16.252  0.00  0.00    +0.066 C 
ATOM     22  C   UNL     1      -5.575  31.294 -17.074  0.00  0.00    -0.064 C 
ATOM     23  N   UNL     1      -4.397  30.904 -16.180  0.00  0.00    +0.379 N 
ATOM     24  C   UNL     1      -3.154  30.936 -16.965  0.00  0.00    -0.096 C 
ATOM     25  H   UNL     1      -4.559  29.853 -15.846  0.00  0.00    -0.082 HD
ATOM     26  C   UNL     1      -4.339  31.780 -14.937  0.00  0.00    -0.064 C 
ATOM     27  C   UNL     1      -5.674  31.701 -14.143  0.00  0.00    +0.066 C 
ENDBRANCH  19  20
ENDBRANCH  18  19
ENDBRANCH  14  15
ENDBRANCH  12  13
TORSDOF 6
ENDMDL
