MODEL 1
REMARK VINA RESULT:      -8.0      0.000      0.000
REMARK  Name = C:\Users\Docking\Desktop\test protocol\1iep_ligandH.pdb
REMARK  8 active torsions:
REMARK  status: ('A' for Active; 'I' for Inactive)
REMARK    1  A    between atoms: _5  and  _11
REMARK    2  A    between atoms: _19  and  _21
REMARK    3  A    between atoms: _22  and  _66
REMARK    4  A    between atoms: _27  and  _30
REMARK    5  A    between atoms: _32  and  _33
REMARK    6  A    between atoms: _38  and  _43
REMARK    7  A    between atoms: _43  and  _46
REMARK    8  A    between atoms: _53  and  _55
REMARK                            x       y       z     vdW  Elec       q    Type
REMARK                         _______ _______ _______ _____ _____    ______ ____
ROOT
ATOM     10  C   UNL     1     -12.992  23.833  25.212  0.00  0.00    +0.038 A 
ATOM     11  C   UNL     1     -13.034  24.996  26.023  0.00  0.00    +0.047 A 
ATOM     12  C   UNL     1     -14.133  25.944  25.922  0.00  0.00    +0.035 A 
ATOM     32  C   UNL     1     -15.174  25.675  24.986  0.00  0.00    +0.024 A 
ATOM     33  C   UNL     1     -15.146  24.497  24.154  0.00  0.00    +0.007 A 
ATOM     34  C   UNL     1     -14.064  23.560  24.247  0.00  0.00    -0.029 A 
ATOM     35  C   UNL     1     -14.083  22.319  23.326  0.00  0.00    +0.045 C 
ENDROOT
BRANCH  10   9
ATOM      4  C   UNL     1      -8.517  22.433  24.185  0.00  0.00    +0.077 A 
ATOM      5  C   UNL     1      -8.322  23.524  23.275  0.00  0.00    +0.048 A 
ATOM      6  C   UNL     1      -9.400  24.419  23.094  0.00  0.00    +0.116 A 
ATOM      7  N   UNL     1     -10.581  24.228  23.778  0.00  0.00    -0.223 NA
ATOM      8  C   UNL     1     -10.737  23.164  24.647  0.00  0.00    +0.220 A 
ATOM      9  N   UNL     1     -11.913  22.957  25.351  0.00  0.00    -0.283 N 
ATOM     36  H   UNL     1     -11.991  22.156  25.977  0.00  0.00    +0.155 HD
ATOM     37  N   UNL     1      -9.723  22.294  24.836  0.00  0.00    -0.214 NA
BRANCH   4   3
ATOM      1  C   UNL     1      -6.696  19.241  25.525  0.00  0.00    +0.020 A 
ATOM      2  C   UNL     1      -7.742  20.203  25.264  0.00  0.00    +0.013 A 
ATOM      3  C   UNL     1      -7.471  21.405  24.485  0.00  0.00    +0.019 A 
ATOM     38  C   UNL     1      -6.121  21.605  23.980  0.00  0.00    +0.120 A 
ATOM     39  N   UNL     1      -5.134  20.662  24.249  0.00  0.00    -0.263 NA
ATOM     40  C   UNL     1      -5.382  19.502  24.998  0.00  0.00    +0.111 A 
ENDBRANCH   4   3
ENDBRANCH  10   9
BRANCH  12  13
ATOM     13  N   UNL     1     -14.226  27.146  26.712  0.00  0.00    -0.281 N 
ATOM     14  C   UNL     1     -13.190  27.921  27.209  0.00  0.00    +0.248 C 
ATOM     30  O   UNL     1     -12.018  27.577  27.228  0.00  0.00    -0.270 OA
ATOM     31  H   UNL     1     -15.169  27.465  26.933  0.00  0.00    +0.155 HD
BRANCH  14  15
ATOM     15  C   UNL     1     -13.505  29.266  27.779  0.00  0.00    +0.037 A 
ATOM     16  C   UNL     1     -14.840  29.855  27.648  0.00  0.00    +0.013 A 
ATOM     17  C   UNL     1     -15.112  31.161  28.193  0.00  0.00    +0.005 A 
ATOM     18  C   UNL     1     -14.044  31.888  28.876  0.00  0.00    -0.033 A 
ATOM     28  C   UNL     1     -12.730  31.279  28.997  0.00  0.00    +0.005 A 
ATOM     29  C   UNL     1     -12.460  29.999  28.463  0.00  0.00    +0.013 A 
BRANCH  18  19
ATOM     19  C   UNL     1     -14.239  33.296  29.469  0.00  0.00    +0.119 C 
BRANCH  19  20
ATOM     20  N   UNL     1     -13.934  33.475  30.920  0.00  0.00    -0.302 NA
ATOM     21  C   UNL     1     -15.050  34.223  31.654  0.00  0.00    +0.066 C 
ATOM     22  C   UNL     1     -14.725  34.382  33.175  0.00  0.00    -0.064 C 
ATOM     23  N   UNL     1     -13.389  35.109  33.335  0.00  0.00    +0.379 N 
ATOM     24  C   UNL     1     -13.109  35.311  34.764  0.00  0.00    -0.096 C 
ATOM     25  H   UNL     1     -13.494  36.115  32.865  0.00  0.00    -0.082 HD
ATOM     26  C   UNL     1     -12.274  34.373  32.606  0.00  0.00    -0.064 C 
ATOM     27  C   UNL     1     -12.620  34.195  31.102  0.00  0.00    +0.066 C 
ENDBRANCH  19  20
ENDBRANCH  18  19
ENDBRANCH  14  15
ENDBRANCH  12  13
TORSDOF 6
ENDMDL
MODEL 2
REMARK VINA RESULT:      -7.8      1.444      2.112
REMARK  Name = C:\Users\Docking\Desktop\test protocol\1iep_ligandH.pdb
REMARK  8 active torsions:
REMARK  status: ('A' for Active; 'I' for Inactive)
REMARK    1  A    between atoms: _5  and  _11
REMARK    2  A    between atoms: _19  and  _21
REMARK    3  A    between atoms: _22  and  _66
REMARK    4  A    between atoms: _27  and  _30
REMARK    5  A    between atoms: _32  and  _33
REMARK    6  A    between atoms: _38  and  _43
REMARK    7  A    between atoms: _43  and  _46
REMARK    8  A    between atoms: _53  and  _55
REMARK                            x       y       z     vdW  Elec       q    Type
REMARK                         _______ _______ _______ _____ _____    ______ ____
ROOT
ATOM     10  C   UNL     1     -12.957  23.850  25.292  0.00  0.00    +0.038 A 
ATOM     11  C   UNL     1     -13.015  25.010  26.106  0.00  0.00    +0.047 A 
ATOM     12  C   UNL     1     -14.126  25.943  26.010  0.00  0.00    +0.035 A 
ATOM     32  C   UNL     1     -15.164  25.662  25.074  0.00  0.00    +0.024 A 
ATOM     33  C   UNL     1     -15.121  24.489  24.237  0.00  0.00    +0.007 A 
ATOM     34  C   UNL     1     -14.026  23.566  24.326  0.00  0.00    -0.029 A 
ATOM     35  C   UNL     1     -14.029  22.328  23.400  0.00  0.00    +0.045 C 
ENDROOT
BRANCH  10   9
ATOM      4  C   UNL     1      -8.529  22.413  24.124  0.00  0.00    +0.077 A 
ATOM      5  C   UNL     1      -8.387  23.451  23.144  0.00  0.00    +0.048 A 
ATOM      6  C   UNL     1      -9.479  24.330  22.966  0.00  0.00    +0.116 A 
ATOM      7  N   UNL     1     -10.623  24.173  23.718  0.00  0.00    -0.223 NA
ATOM      8  C   UNL     1     -10.728  23.160  24.653  0.00  0.00    +0.220 A 
ATOM      9  N   UNL     1     -11.866  22.988  25.426  0.00  0.00    -0.283 N 
ATOM     36  H   UNL     1     -11.907  22.224  26.100  0.00  0.00    +0.155 HD
ATOM     37  N   UNL     1      -9.699  22.307  24.841  0.00  0.00    -0.214 NA
BRANCH   4   3
ATOM      1  C   UNL     1      -6.645  19.259  25.467  0.00  0.00    +0.020 A 
ATOM      2  C   UNL     1      -7.711  20.197  25.200  0.00  0.00    +0.013 A 
ATOM      3  C   UNL     1      -7.461  21.409  24.429  0.00  0.00    +0.019 A 
ATOM     38  C   UNL     1      -6.112  21.643  23.938  0.00  0.00    +0.120 A 
ATOM     39  N   UNL     1      -5.105  20.723  24.212  0.00  0.00    -0.263 NA
ATOM     40  C   UNL     1      -5.333  19.554  24.954  0.00  0.00    +0.111 A 
ENDBRANCH   4   3
ENDBRANCH  10   9
BRANCH  12  13
ATOM     13  N   UNL     1     -14.235  27.141  26.805  0.00  0.00    -0.281 N 
ATOM     14  C   UNL     1     -13.213  27.967  27.244  0.00  0.00    +0.248 C 
ATOM     30  O   UNL     1     -12.026  27.682  27.198  0.00  0.00    -0.270 OA
ATOM     31  H   UNL     1     -15.180  27.412  27.078  0.00  0.00    +0.155 HD
BRANCH  14  15
ATOM     15  C   UNL     1     -13.562  29.296  27.832  0.00  0.00    +0.037 A 
ATOM     16  C   UNL     1     -14.938  29.798  27.814  0.00  0.00    +0.013 A 
ATOM     17  C   UNL     1     -15.244  31.091  28.372  0.00  0.00    +0.005 A 
ATOM     18  C   UNL     1     -14.171  31.891  28.956  0.00  0.00    -0.033 A 
ATOM     28  C   UNL     1     -12.815  31.367  28.966  0.00  0.00    +0.005 A 
ATOM     29  C   UNL     1     -12.511  30.100  28.418  0.00  0.00    +0.013 A 
BRANCH  18  19
ATOM     19  C   UNL     1     -14.402  33.291  29.556  0.00  0.00    +0.119 C 
BRANCH  19  20
ATOM     20  N   UNL     1     -15.812  33.683  29.853  0.00  0.00    -0.302 NA
ATOM     21  C   UNL     1     -16.392  34.603  28.776  0.00  0.00    +0.066 C 
ATOM     22  C   UNL     1     -17.875  34.984  29.091  0.00  0.00    -0.064 C 
ATOM     23  N   UNL     1     -17.946  35.650  30.467  0.00  0.00    +0.379 N 
ATOM     24  C   UNL     1     -19.330  36.062  30.742  0.00  0.00    -0.096 C 
ATOM     25  H   UNL     1     -17.319  36.571  30.429  0.00  0.00    -0.082 HD
ATOM     26  C   UNL     1     -17.368  34.743  31.544  0.00  0.00    -0.064 C 
ATOM     27  C   UNL     1     -15.904  34.346  31.206  0.00  0.00    +0.066 C 
ENDBRANCH  19  20
ENDBRANCH  18  19
ENDBRANCH  14  15
ENDBRANCH  12  13
TORSDOF 6
ENDMDL
MODEL 3
REMARK VINA RESULT:      -7.8      7.582     12.741
REMARK  Name = C:\Users\Docking\Desktop\test protocol\1iep_ligandH.pdb
REMARK  8 active torsions:
REMARK  status: ('A' for Active; 'I' for Inactive)
REMARK    1  A    between atoms: _5  and  _11
REMARK    2  A    between atoms: _19  and  _21
REMARK    3  A    between atoms: _22  and  _66
REMARK    4  A    between atoms: _27  and  _30
REMARK    5  A    between atoms: _32  and  _33
REMARK    6  A    between atoms: _38  and  _43
REMARK    7  A    between atoms: _43  and  _46
REMARK    8  A    between atoms: _53  and  _55
REMARK                            x       y       z     vdW  Elec       q    Type
REMARK                         _______ _______ _______ _____ _____    ______ ____
ROOT
ATOM     10  C   UNL     1      -6.776  15.671  29.509  0.00  0.00    +0.038 A 
ATOM     11  C   UNL     1      -7.177  16.800  28.750  0.00  0.00    +0.047 A 
ATOM     12  C   UNL     1      -6.208  17.589  28.006  0.00  0.00    +0.035 A 
ATOM     32  C   UNL     1      -4.838  17.198  28.055  0.00  0.00    +0.024 A 
ATOM     33  C   UNL     1      -4.413  16.054  28.822  0.00  0.00    +0.007 A 
ATOM     34  C   UNL     1      -5.364  15.273  29.561  0.00  0.00    -0.029 A 
ATOM     35  C   UNL     1      -4.850  14.060  30.371  0.00  0.00    +0.045 C 
ENDROOT
BRANCH  10   9
ATOM      4  C   UNL     1      -9.575  14.943  33.340  0.00  0.00    +0.077 A 
ATOM      5  C   UNL     1      -9.035  16.082  34.025  0.00  0.00    +0.048 A 
ATOM      6  C   UNL     1      -8.033  16.824  33.360  0.00  0.00    +0.116 A 
ATOM      7  N   UNL     1      -7.611  16.447  32.103  0.00  0.00    -0.223 NA
ATOM      8  C   UNL     1      -8.152  15.342  31.472  0.00  0.00    +0.220 A 
ATOM      9  N   UNL     1      -7.749  14.949  30.205  0.00  0.00    -0.283 N 
ATOM     36  H   UNL     1      -8.167  14.124  29.776  0.00  0.00    +0.155 HD
ATOM     37  N   UNL     1      -9.109  14.616  32.086  0.00  0.00    -0.214 NA
BRANCH   4   3
ATOM      1  C   UNL     1     -11.524  12.454  35.643  0.00  0.00    +0.020 A 
ATOM      2  C   UNL     1     -10.462  13.291  35.134  0.00  0.00    +0.013 A 
ATOM      3  C   UNL     1     -10.642  14.061  33.910  0.00  0.00    +0.019 A 
ATOM     38  C   UNL     1     -11.919  13.963  33.220  0.00  0.00    +0.120 A 
ATOM     39  N   UNL     1     -12.923  13.148  33.733  0.00  0.00    -0.263 NA
ATOM     40  C   UNL     1     -12.761  12.401  34.909  0.00  0.00    +0.111 A 
ENDBRANCH   4   3
ENDBRANCH  10   9
BRANCH  12  13
ATOM     13  N   UNL     1      -6.555  18.750  27.224  0.00  0.00    -0.281 N 
ATOM     14  C   UNL     1      -7.304  18.800  26.060  0.00  0.00    +0.248 C 
ATOM     30  O   UNL     1      -7.611  17.823  25.394  0.00  0.00    -0.270 OA
ATOM     31  H   UNL     1      -6.206  19.643  27.572  0.00  0.00    +0.155 HD
BRANCH  14  15
ATOM     15  C   UNL     1      -7.766  20.129  25.555  0.00  0.00    +0.037 A 
ATOM     16  C   UNL     1      -7.084  20.798  24.445  0.00  0.00    +0.013 A 
ATOM     17  C   UNL     1      -7.539  22.088  23.989  0.00  0.00    +0.005 A 
ATOM     18  C   UNL     1      -8.685  22.715  24.643  0.00  0.00    -0.033 A 
ATOM     28  C   UNL     1      -9.346  22.026  25.738  0.00  0.00    +0.005 A 
ATOM     29  C   UNL     1      -8.902  20.763  26.189  0.00  0.00    +0.013 A 
BRANCH  18  19
ATOM     19  C   UNL     1      -9.227  24.098  24.236  0.00  0.00    +0.119 C 
BRANCH  19  20
ATOM     20  N   UNL     1     -10.148  24.154  23.061  0.00  0.00    -0.302 NA
ATOM     21  C   UNL     1      -9.409  24.510  21.768  0.00  0.00    +0.066 C 
ATOM     22  C   UNL     1     -10.384  24.541  20.546  0.00  0.00    -0.064 C 
ATOM     23  N   UNL     1     -11.509  25.541  20.820  0.00  0.00    +0.379 N 
ATOM     24  C   UNL     1     -12.394  25.615  19.649  0.00  0.00    -0.096 C 
ATOM     25  H   UNL     1     -11.043  26.544  20.957  0.00  0.00    -0.082 HD
ATOM     26  C   UNL     1     -12.247  25.196  22.106  0.00  0.00    -0.064 C 
ATOM     27  C   UNL     1     -11.264  25.138  23.309  0.00  0.00    +0.066 C 
ENDBRANCH  19  20
ENDBRANCH  18  19
ENDBRANCH  14  15
ENDBRANCH  12  13
TORSDOF 6
ENDMDL
MODEL 4
REMARK VINA RESULT:      -7.8      5.005     13.878
REMARK  Name = C:\Users\Docking\Desktop\test protocol\1iep_ligandH.pdb
REMARK  8 active torsions:
REMARK  status: ('A' for Active; 'I' for Inactive)
REMARK    1  A    between atoms: _5  and  _11
REMARK    2  A    between atoms: _19  and  _21
REMARK    3  A    between atoms: _22  and  _66
REMARK    4  A    between atoms: _27  and  _30
REMARK    5  A    between atoms: _32  and  _33
REMARK    6  A    between atoms: _38  and  _43
REMARK    7  A    between atoms: _43  and  _46
REMARK    8  A    between atoms: _53  and  _55
REMARK                            x       y       z     vdW  Elec       q    Type
REMARK                         _______ _______ _______ _____ _____    ______ ____
ROOT
ATOM     10  C   UNL     1     -10.282  23.408  25.238  0.00  0.00    +0.038 A 
ATOM     11  C   UNL     1     -10.123  22.266  26.062  0.00  0.00    +0.047 A 
ATOM     12  C   UNL     1      -9.719  20.985  25.504  0.00  0.00    +0.035 A 
ATOM     32  C   UNL     1      -9.481  20.905  24.101  0.00  0.00    +0.024 A 
ATOM     33  C   UNL     1      -9.638  22.056  23.247  0.00  0.00    +0.007 A 
ATOM     34  C   UNL     1     -10.040  23.321  23.792  0.00  0.00    -0.029 A 
ATOM     35  C   UNL     1     -10.200  24.521  22.829  0.00  0.00    +0.045 C 
ENDROOT
BRANCH  10   9
ATOM      4  C   UNL     1     -13.598  26.692  26.361  0.00  0.00    +0.077 A 
ATOM      5  C   UNL     1     -14.635  25.958  25.694  0.00  0.00    +0.048 A 
ATOM      6  C   UNL     1     -14.272  24.744  25.069  0.00  0.00    +0.116 A 
ATOM      7  N   UNL     1     -12.967  24.306  25.113  0.00  0.00    -0.223 NA
ATOM      8  C   UNL     1     -11.990  25.039  25.763  0.00  0.00    +0.220 A 
ATOM      9  N   UNL     1     -10.673  24.613  25.827  0.00  0.00    -0.283 N 
ATOM     36  H   UNL     1      -9.981  25.186  26.309  0.00  0.00    +0.155 HD
ATOM     37  N   UNL     1     -12.311  26.202  26.367  0.00  0.00    -0.214 NA
BRANCH   4   3
ATOM      1  C   UNL     1     -14.794  30.314  27.226  0.00  0.00    +0.020 A 
ATOM      2  C   UNL     1     -14.605  29.080  26.498  0.00  0.00    +0.013 A 
ATOM      3  C   UNL     1     -13.825  27.990  27.071  0.00  0.00    +0.019 A 
ATOM     38  C   UNL     1     -13.247  28.181  28.392  0.00  0.00    +0.120 A 
ATOM     39  N   UNL     1     -13.445  29.381  29.069  0.00  0.00    -0.263 NA
ATOM     40  C   UNL     1     -14.192  30.438  28.527  0.00  0.00    +0.111 A 
ENDBRANCH   4   3
ENDBRANCH  10   9
BRANCH  12  13
ATOM     13  N   UNL     1      -9.549  19.788  26.291  0.00  0.00    -0.281 N 
ATOM     14  C   UNL     1      -8.402  19.027  26.447  0.00  0.00    +0.248 C 
ATOM     30  O   UNL     1      -7.398  19.141  25.759  0.00  0.00    -0.270 OA
ATOM     31  H   UNL     1     -10.375  19.463  26.793  0.00  0.00    +0.155 HD
BRANCH  14  15
ATOM     15  C   UNL     1      -8.371  17.978  27.511  0.00  0.00    +0.037 A 
ATOM     16  C   UNL     1      -9.552  17.164  27.810  0.00  0.00    +0.013 A 
ATOM     17  C   UNL     1      -9.501  16.171  28.853  0.00  0.00    +0.005 A 
ATOM     18  C   UNL     1      -8.261  15.985  29.605  0.00  0.00    -0.033 A 
ATOM     28  C   UNL     1      -7.103  16.803  29.284  0.00  0.00    +0.005 A 
ATOM     29  C   UNL     1      -7.151  17.778  28.262  0.00  0.00    +0.013 A 
BRANCH  18  19
ATOM     19  C   UNL     1      -8.122  14.963  30.749  0.00  0.00    +0.119 C 
BRANCH  19  20
ATOM     20  N   UNL     1      -7.014  13.968  30.645  0.00  0.00    -0.302 NA
ATOM     21  C   UNL     1      -7.048  13.207  29.317  0.00  0.00    +0.066 C 
ATOM     22  C   UNL     1      -5.869  12.185  29.215  0.00  0.00    -0.064 C 
ATOM     23  N   UNL     1      -5.934  11.216  30.397  0.00  0.00    +0.379 N 
ATOM     24  C   UNL     1      -4.861  10.219  30.274  0.00  0.00    -0.096 C 
ATOM     25  H   UNL     1      -6.907  10.675  30.337  0.00  0.00    -0.082 HD
ATOM     26  C   UNL     1      -5.904  11.965  31.722  0.00  0.00    -0.064 C 
ATOM     27  C   UNL     1      -7.062  12.998  31.800  0.00  0.00    +0.066 C 
ENDBRANCH  19  20
ENDBRANCH  18  19
ENDBRANCH  14  15
ENDBRANCH  12  13
TORSDOF 6
ENDMDL
MODEL 5
REMARK VINA RESULT:      -7.7      9.471     15.135
REMARK  Name = C:\Users\Docking\Desktop\test protocol\1iep_ligandH.pdb
REMARK  8 active torsions:
REMARK  status: ('A' for Active; 'I' for Inactive)
REMARK    1  A    between atoms: _5  and  _11
REMARK    2  A    between atoms: _19  and  _21
REMARK    3  A    between atoms: _22  and  _66
REMARK    4  A    between atoms: _27  and  _30
REMARK    5  A    between atoms: _32  and  _33
REMARK    6  A    between atoms: _38  and  _43
REMARK    7  A    between atoms: _43  and  _46
REMARK    8  A    between atoms: _53  and  _55
REMARK                            x       y       z     vdW  Elec       q    Type
REMARK                         _______ _______ _______ _____ _____    ______ ____
ROOT
ATOM     10  C   UNL     1      -6.998  17.511  28.444  0.00  0.00    +0.038 A 
ATOM     11  C   UNL     1      -7.685  17.094  29.612  0.00  0.00    +0.047 A 
ATOM     12  C   UNL     1      -7.362  15.835  30.266  0.00  0.00    +0.035 A 
ATOM     32  C   UNL     1      -6.332  15.027  29.704  0.00  0.00    +0.024 A 
ATOM     33  C   UNL     1      -5.624  15.435  28.516  0.00  0.00    +0.007 A 
ATOM     34  C   UNL     1      -5.940  16.674  27.865  0.00  0.00    -0.029 A 
ATOM     35  C   UNL     1      -5.153  17.058  26.591  0.00  0.00    +0.045 C 
ENDROOT
BRANCH  10   9
ATOM      4  C   UNL     1      -9.671  20.161  25.465  0.00  0.00    +0.077 A 
ATOM      5  C   UNL     1     -10.414  19.018  25.021  0.00  0.00    +0.048 A 
ATOM      6  C   UNL     1     -10.073  17.765  25.578  0.00  0.00    +0.116 A 
ATOM      7  N   UNL     1      -9.062  17.674  26.509  0.00  0.00    -0.223 NA
ATOM      8  C   UNL     1      -8.363  18.796  26.915  0.00  0.00    +0.220 A 
ATOM      9  N   UNL     1      -7.348  18.729  27.857  0.00  0.00    -0.283 N 
ATOM     36  H   UNL     1      -6.852  19.579  28.125  0.00  0.00    +0.155 HD
ATOM     37  N   UNL     1      -8.669  20.004  26.397  0.00  0.00    -0.214 NA
BRANCH   4   3
ATOM      1  C   UNL     1      -9.986  24.056  25.284  0.00  0.00    +0.020 A 
ATOM      2  C   UNL     1      -9.737  22.733  25.809  0.00  0.00    +0.013 A 
ATOM      3  C   UNL     1      -9.916  21.553  24.972  0.00  0.00    +0.019 A 
ATOM     38  C   UNL     1     -10.351  21.748  23.598  0.00  0.00    +0.120 A 
ATOM     39  N   UNL     1     -10.585  23.033  23.120  0.00  0.00    -0.263 NA
ATOM     40  C   UNL     1     -10.418  24.176  23.916  0.00  0.00    +0.111 A 
ENDBRANCH   4   3
ENDBRANCH  10   9
BRANCH  12  13
ATOM     13  N   UNL     1      -8.031  15.356  31.450  0.00  0.00    -0.281 N 
ATOM     14  C   UNL     1      -8.311  16.056  32.612  0.00  0.00    +0.248 C 
ATOM     30  O   UNL     1      -7.837  17.147  32.894  0.00  0.00    -0.270 OA
ATOM     31  H   UNL     1      -8.335  14.383  31.429  0.00  0.00    +0.155 HD
BRANCH  14  15
ATOM     15  C   UNL     1      -9.242  15.451  33.613  0.00  0.00    +0.037 A 
ATOM     16  C   UNL     1      -8.904  15.411  35.038  0.00  0.00    +0.013 A 
ATOM     17  C   UNL     1      -9.812  14.806  35.980  0.00  0.00    +0.005 A 
ATOM     18  C   UNL     1     -11.069  14.238  35.499  0.00  0.00    -0.033 A 
ATOM     28  C   UNL     1     -11.382  14.296  34.081  0.00  0.00    +0.005 A 
ATOM     29  C   UNL     1     -10.494  14.887  33.155  0.00  0.00    +0.013 A 
BRANCH  18  19
ATOM     19  C   UNL     1     -12.088  13.554  36.430  0.00  0.00    +0.119 C 
BRANCH  19  20
ATOM     20  N   UNL     1     -11.699  12.240  37.022  0.00  0.00    -0.302 NA
ATOM     21  C   UNL     1     -12.016  11.071  36.084  0.00  0.00    +0.066 C 
ATOM     22  C   UNL     1     -11.582   9.706  36.710  0.00  0.00    -0.064 C 
ATOM     23  N   UNL     1     -12.278   9.522  38.059  0.00  0.00    +0.379 N 
ATOM     24  C   UNL     1     -11.917   8.213  38.623  0.00  0.00    -0.096 C 
ATOM     25  H   UNL     1     -13.378   9.519  37.874  0.00  0.00    -0.082 HD
ATOM     26  C   UNL     1     -11.971  10.681  38.997  0.00  0.00    -0.064 C 
ATOM     27  C   UNL     1     -12.379  12.035  38.353  0.00  0.00    +0.066 C 
ENDBRANCH  19  20
ENDBRANCH  18  19
ENDBRANCH  14  15
ENDBRANCH  12  13
TORSDOF 6
ENDMDL
