MODEL 1
REMARK VINA RESULT:      -8.2      0.000      0.000
REMARK  Name = C:\Users\Docking\Desktop\test protocol\1iep_ligandH.pdb
REMARK  8 active torsions:
REMARK  status: ('A' for Active; 'I' for Inactive)
REMARK    1  A    between atoms: _5  and  _11
REMARK    2  A    between atoms: _19  and  _21
REMARK    3  A    between atoms: _22  and  _66
REMARK    4  A    between atoms: _27  and  _30
REMARK    5  A    between atoms: _32  and  _33
REMARK    6  A    between atoms: _38  and  _43
REMARK    7  A    between atoms: _43  and  _46
REMARK    8  A    between atoms: _53  and  _55
REMARK                            x       y       z     vdW  Elec       q    Type
REMARK                         _______ _______ _______ _____ _____    ______ ____
ROOT
ATOM     10  C   UNL     1      16.903  34.466  15.215  0.00  0.00    +0.038 A 
ATOM     11  C   UNL     1      16.755  35.847  15.503  0.00  0.00    +0.047 A 
ATOM     12  C   UNL     1      16.254  36.298  16.791  0.00  0.00    +0.035 A 
ATOM     32  C   UNL     1      15.915  35.315  17.766  0.00  0.00    +0.024 A 
ATOM     33  C   UNL     1      16.058  33.907  17.491  0.00  0.00    +0.007 A 
ATOM     34  C   UNL     1      16.549  33.456  16.220  0.00  0.00    -0.029 A 
ATOM     35  C   UNL     1      16.676  31.934  15.978  0.00  0.00    +0.045 C 
ENDROOT
BRANCH  10   9
ATOM      4  C   UNL     1      16.269  32.837  10.745  0.00  0.00    +0.077 A 
ATOM      5  C   UNL     1      14.853  32.700  10.933  0.00  0.00    +0.048 A 
ATOM      6  C   UNL     1      14.329  33.053  12.197  0.00  0.00    +0.116 A 
ATOM      7  N   UNL     1      15.167  33.508  13.191  0.00  0.00    -0.223 NA
ATOM      8  C   UNL     1      16.528  33.626  12.978  0.00  0.00    +0.220 A 
ATOM      9  N   UNL     1      17.389  34.089  13.962  0.00  0.00    -0.283 N 
ATOM     36  H   UNL     1      18.387  34.155  13.767  0.00  0.00    +0.155 HD
ATOM     37  N   UNL     1      17.053  33.294  11.780  0.00  0.00    -0.214 NA
BRANCH   4   3
ATOM      1  C   UNL     1      17.297  32.723   6.973  0.00  0.00    +0.020 A 
ATOM      2  C   UNL     1      16.584  33.074   8.180  0.00  0.00    +0.013 A 
ATOM      3  C   UNL     1      16.972  32.507   9.465  0.00  0.00    +0.019 A 
ATOM     38  C   UNL     1      18.095  31.582   9.496  0.00  0.00    +0.120 A 
ATOM     39  N   UNL     1      18.761  31.261   8.317  0.00  0.00    -0.263 NA
ATOM     40  C   UNL     1      18.396  31.799   7.074  0.00  0.00    +0.111 A 
ENDBRANCH   4   3
ENDBRANCH  10   9
BRANCH  12  13
ATOM     13  N   UNL     1      16.075  37.687  17.137  0.00  0.00    -0.281 N 
ATOM     14  C   UNL     1      17.041  38.678  17.206  0.00  0.00    +0.248 C 
ATOM     30  O   UNL     1      18.245  38.472  17.188  0.00  0.00    -0.270 OA
ATOM     31  H   UNL     1      15.122  37.974  17.358  0.00  0.00    +0.155 HD
BRANCH  14  15
ATOM     15  C   UNL     1      16.605  40.103  17.327  0.00  0.00    +0.037 A 
ATOM     16  C   UNL     1      15.734  40.541  18.421  0.00  0.00    +0.013 A 
ATOM     17  C   UNL     1      15.315  41.918  18.504  0.00  0.00    +0.005 A 
ATOM     18  C   UNL     1      15.768  42.867  17.490  0.00  0.00    -0.033 A 
ATOM     28  C   UNL     1      16.636  42.406  16.419  0.00  0.00    +0.005 A 
ATOM     29  C   UNL     1      17.048  41.058  16.333  0.00  0.00    +0.013 A 
BRANCH  18  19
ATOM     19  C   UNL     1      15.353  44.350  17.488  0.00  0.00    +0.119 C 
BRANCH  19  20
ATOM     20  N   UNL     1      14.090  44.706  16.775  0.00  0.00    -0.302 NA
ATOM     21  C   UNL     1      14.353  45.571  15.539  0.00  0.00    +0.066 C 
ATOM     22  C   UNL     1      13.024  45.915  14.792  0.00  0.00    -0.064 C 
ATOM     23  N   UNL     1      12.070  46.623  15.755  0.00  0.00    +0.379 N 
ATOM     24  C   UNL     1      10.841  47.000  15.040  0.00  0.00    -0.096 C 
ATOM     25  H   UNL     1      12.566  47.563  16.093  0.00  0.00    -0.082 HD
ATOM     26  C   UNL     1      11.805  45.772  16.988  0.00  0.00    -0.064 C 
ATOM     27  C   UNL     1      13.135  45.411  17.707  0.00  0.00    +0.066 C 
ENDBRANCH  19  20
ENDBRANCH  18  19
ENDBRANCH  14  15
ENDBRANCH  12  13
TORSDOF 6
ENDMDL
MODEL 2
REMARK VINA RESULT:      -8.0     20.192     25.677
REMARK  Name = C:\Users\Docking\Desktop\test protocol\1iep_ligandH.pdb
REMARK  8 active torsions:
REMARK  status: ('A' for Active; 'I' for Inactive)
REMARK    1  A    between atoms: _5  and  _11
REMARK    2  A    between atoms: _19  and  _21
REMARK    3  A    between atoms: _22  and  _66
REMARK    4  A    between atoms: _27  and  _30
REMARK    5  A    between atoms: _32  and  _33
REMARK    6  A    between atoms: _38  and  _43
REMARK    7  A    between atoms: _43  and  _46
REMARK    8  A    between atoms: _53  and  _55
REMARK                            x       y       z     vdW  Elec       q    Type
REMARK                         _______ _______ _______ _____ _____    ______ ____
ROOT
ATOM     10  C   UNL     1      18.142  20.823  26.278  0.00  0.00    +0.038 A 
ATOM     11  C   UNL     1      19.306  20.017  26.195  0.00  0.00    +0.047 A 
ATOM     12  C   UNL     1      20.130  20.007  24.996  0.00  0.00    +0.035 A 
ATOM     32  C   UNL     1      19.740  20.832  23.901  0.00  0.00    +0.024 A 
ATOM     33  C   UNL     1      18.559  21.657  23.969  0.00  0.00    +0.007 A 
ATOM     34  C   UNL     1      17.741  21.670  25.148  0.00  0.00    -0.029 A 
ATOM     35  C   UNL     1      16.483  22.568  25.162  0.00  0.00    +0.045 C 
ENDROOT
BRANCH  10   9
ATOM      4  C   UNL     1      14.380  19.330  28.858  0.00  0.00    +0.077 A 
ATOM      5  C   UNL     1      13.858  18.564  27.763  0.00  0.00    +0.048 A 
ATOM      6  C   UNL     1      14.584  18.586  26.552  0.00  0.00    +0.116 A 
ATOM      7  N   UNL     1      15.745  19.323  26.453  0.00  0.00    -0.223 NA
ATOM      8  C   UNL     1      16.219  20.053  27.528  0.00  0.00    +0.220 A 
ATOM      9  N   UNL     1      17.388  20.795  27.454  0.00  0.00    -0.283 N 
ATOM     36  H   UNL     1      17.700  21.325  28.266  0.00  0.00    +0.155 HD
ATOM     37  N   UNL     1      15.543  20.049  28.696  0.00  0.00    -0.214 NA
BRANCH   4   3
ATOM      1  C   UNL     1      13.806  19.593  32.718  0.00  0.00    +0.020 A 
ATOM      2  C   UNL     1      14.484  19.525  31.445  0.00  0.00    +0.013 A 
ATOM      3  C   UNL     1      13.728  19.404  30.204  0.00  0.00    +0.019 A 
ATOM     38  C   UNL     1      12.276  19.356  30.288  0.00  0.00    +0.120 A 
ATOM     39  N   UNL     1      11.651  19.423  31.529  0.00  0.00    -0.263 NA
ATOM     40  C   UNL     1      12.367  19.537  32.729  0.00  0.00    +0.111 A 
ENDBRANCH   4   3
ENDBRANCH  10   9
BRANCH  12  13
ATOM     13  N   UNL     1      21.318  19.203  24.851  0.00  0.00    -0.281 N 
ATOM     14  C   UNL     1      22.206  18.809  25.838  0.00  0.00    +0.248 C 
ATOM     30  O   UNL     1      22.229  19.269  26.970  0.00  0.00    -0.270 OA
ATOM     31  H   UNL     1      21.530  18.886  23.905  0.00  0.00    +0.155 HD
BRANCH  14  15
ATOM     15  C   UNL     1      23.224  17.763  25.518  0.00  0.00    +0.037 A 
ATOM     16  C   UNL     1      22.849  16.353  25.387  0.00  0.00    +0.013 A 
ATOM     17  C   UNL     1      23.854  15.362  25.094  0.00  0.00    +0.005 A 
ATOM     18  C   UNL     1      25.245  15.779  24.930  0.00  0.00    -0.033 A 
ATOM     28  C   UNL     1      25.588  17.185  25.060  0.00  0.00    +0.005 A 
ATOM     29  C   UNL     1      24.606  18.159  25.348  0.00  0.00    +0.013 A 
BRANCH  18  19
ATOM     19  C   UNL     1      26.386  14.787  24.637  0.00  0.00    +0.119 C 
BRANCH  19  20
ATOM     20  N   UNL     1      26.879  14.707  23.230  0.00  0.00    -0.302 NA
ATOM     21  C   UNL     1      28.062  15.647  22.981  0.00  0.00    +0.066 C 
ATOM     22  C   UNL     1      28.579  15.534  21.510  0.00  0.00    -0.064 C 
ATOM     23  N   UNL     1      27.432  15.839  20.544  0.00  0.00    +0.379 N 
ATOM     24  C   UNL     1      27.929  15.791  19.161  0.00  0.00    -0.096 C 
ATOM     25  H   UNL     1      27.090  16.881  20.745  0.00  0.00    -0.082 HD
ATOM     26  C   UNL     1      26.251  14.911  20.787  0.00  0.00    -0.064 C 
ATOM     27  C   UNL     1      25.764  15.009  22.259  0.00  0.00    +0.066 C 
ENDBRANCH  19  20
ENDBRANCH  18  19
ENDBRANCH  14  15
ENDBRANCH  12  13
TORSDOF 6
ENDMDL
MODEL 3
REMARK VINA RESULT:      -7.8     16.118     19.675
REMARK  Name = C:\Users\Docking\Desktop\test protocol\1iep_ligandH.pdb
REMARK  8 active torsions:
REMARK  status: ('A' for Active; 'I' for Inactive)
REMARK    1  A    between atoms: _5  and  _11
REMARK    2  A    between atoms: _19  and  _21
REMARK    3  A    between atoms: _22  and  _66
REMARK    4  A    between atoms: _27  and  _30
REMARK    5  A    between atoms: _32  and  _33
REMARK    6  A    between atoms: _38  and  _43
REMARK    7  A    between atoms: _43  and  _46
REMARK    8  A    between atoms: _53  and  _55
REMARK                            x       y       z     vdW  Elec       q    Type
REMARK                         _______ _______ _______ _____ _____    ______ ____
ROOT
ATOM     10  C   UNL     1      22.354  23.083  18.393  0.00  0.00    +0.038 A 
ATOM     11  C   UNL     1      21.555  22.365  19.319  0.00  0.00    +0.047 A 
ATOM     12  C   UNL     1      20.738  23.057  20.303  0.00  0.00    +0.035 A 
ATOM     32  C   UNL     1      20.757  24.482  20.315  0.00  0.00    +0.024 A 
ATOM     33  C   UNL     1      21.564  25.228  19.382  0.00  0.00    +0.007 A 
ATOM     34  C   UNL     1      22.374  24.551  18.410  0.00  0.00    -0.029 A 
ATOM     35  C   UNL     1      23.225  25.402  17.439  0.00  0.00    +0.045 C 
ENDROOT
BRANCH  10   9
ATOM      4  C   UNL     1      23.070  21.224  14.026  0.00  0.00    +0.077 A 
ATOM      5  C   UNL     1      21.800  21.694  13.553  0.00  0.00    +0.048 A 
ATOM      6  C   UNL     1      20.990  22.405  14.467  0.00  0.00    +0.116 A 
ATOM      7  N   UNL     1      21.427  22.622  15.756  0.00  0.00    -0.223 NA
ATOM      8  C   UNL     1      22.656  22.153  16.180  0.00  0.00    +0.220 A 
ATOM      9  N   UNL     1      23.120  22.368  17.469  0.00  0.00    -0.283 N 
ATOM     36  H   UNL     1      24.029  21.999  17.746  0.00  0.00    +0.155 HD
ATOM     37  N   UNL     1      23.448  21.471  15.327  0.00  0.00    -0.214 NA
BRANCH   4   3
ATOM      1  C   UNL     1      25.896  20.324  11.475  0.00  0.00    +0.020 A 
ATOM      2  C   UNL     1      24.979  21.108  12.271  0.00  0.00    +0.013 A 
ATOM      3  C   UNL     1      24.040  20.461  13.179  0.00  0.00    +0.019 A 
ATOM     38  C   UNL     1      24.055  19.008  13.259  0.00  0.00    +0.120 A 
ATOM     39  N   UNL     1      24.948  18.279  12.479  0.00  0.00    -0.263 NA
ATOM     40  C   UNL     1      25.855  18.891  11.601  0.00  0.00    +0.111 A 
ENDBRANCH   4   3
ENDBRANCH  10   9
BRANCH  12  13
ATOM     13  N   UNL     1      19.913  22.380  21.273  0.00  0.00    -0.281 N 
ATOM     14  C   UNL     1      20.193  22.137  22.608  0.00  0.00    +0.248 C 
ATOM     30  O   UNL     1      21.294  22.277  23.120  0.00  0.00    -0.270 OA
ATOM     31  H   UNL     1      19.013  22.040  20.935  0.00  0.00    +0.155 HD
BRANCH  14  15
ATOM     15  C   UNL     1      19.095  21.655  23.500  0.00  0.00    +0.037 A 
ATOM     16  C   UNL     1      18.805  22.317  24.774  0.00  0.00    +0.013 A 
ATOM     17  C   UNL     1      17.752  21.820  25.624  0.00  0.00    +0.005 A 
ATOM     18  C   UNL     1      16.979  20.655  25.200  0.00  0.00    -0.033 A 
ATOM     28  C   UNL     1      17.284  20.021  23.928  0.00  0.00    +0.005 A 
ATOM     29  C   UNL     1      18.317  20.504  23.094  0.00  0.00    +0.013 A 
BRANCH  18  19
ATOM     19  C   UNL     1      15.851  20.045  26.053  0.00  0.00    +0.119 C 
BRANCH  19  20
ATOM     20  N   UNL     1      16.051  20.016  27.532  0.00  0.00    -0.302 NA
ATOM     21  C   UNL     1      17.104  18.986  27.950  0.00  0.00    +0.066 C 
ATOM     22  C   UNL     1      17.317  18.985  29.498  0.00  0.00    -0.064 C 
ATOM     23  N   UNL     1      15.983  18.708  30.194  0.00  0.00    +0.379 N 
ATOM     24  C   UNL     1      16.191  18.649  31.648  0.00  0.00    -0.096 C 
ATOM     25  H   UNL     1      15.631  17.704  29.861  0.00  0.00    -0.082 HD
ATOM     26  C   UNL     1      14.929  19.726  29.782  0.00  0.00    -0.064 C 
ATOM     27  C   UNL     1      14.747  19.739  28.239  0.00  0.00    +0.066 C 
ENDBRANCH  19  20
ENDBRANCH  18  19
ENDBRANCH  14  15
ENDBRANCH  12  13
TORSDOF 6
ENDMDL
MODEL 4
REMARK VINA RESULT:      -7.8     19.674     24.047
REMARK  Name = C:\Users\Docking\Desktop\test protocol\1iep_ligandH.pdb
REMARK  8 active torsions:
REMARK  status: ('A' for Active; 'I' for Inactive)
REMARK    1  A    between atoms: _5  and  _11
REMARK    2  A    between atoms: _19  and  _21
REMARK    3  A    between atoms: _22  and  _66
REMARK    4  A    between atoms: _27  and  _30
REMARK    5  A    between atoms: _32  and  _33
REMARK    6  A    between atoms: _38  and  _43
REMARK    7  A    between atoms: _43  and  _46
REMARK    8  A    between atoms: _53  and  _55
REMARK                            x       y       z     vdW  Elec       q    Type
REMARK                         _______ _______ _______ _____ _____    ______ ____
ROOT
ATOM     10  C   UNL     1      19.402  20.591  24.728  0.00  0.00    +0.038 A 
ATOM     11  C   UNL     1      18.526  20.291  25.802  0.00  0.00    +0.047 A 
ATOM     12  C   UNL     1      17.406  21.161  26.125  0.00  0.00    +0.035 A 
ATOM     32  C   UNL     1      17.205  22.328  25.332  0.00  0.00    +0.024 A 
ATOM     33  C   UNL     1      18.087  22.649  24.237  0.00  0.00    +0.007 A 
ATOM     34  C   UNL     1      19.195  21.796  23.915  0.00  0.00    -0.029 A 
ATOM     35  C   UNL     1      20.111  22.193  22.734  0.00  0.00    +0.045 C 
ENDROOT
BRANCH  10   9
ATOM      4  C   UNL     1      22.908  17.634  26.142  0.00  0.00    +0.077 A 
ATOM      5  C   UNL     1      22.622  17.864  27.529  0.00  0.00    +0.048 A 
ATOM      6  C   UNL     1      21.570  18.755  27.836  0.00  0.00    +0.116 A 
ATOM      7  N   UNL     1      20.862  19.366  26.824  0.00  0.00    -0.223 NA
ATOM      8  C   UNL     1      21.165  19.124  25.496  0.00  0.00    +0.220 A 
ATOM      9  N   UNL     1      20.461  19.721  24.462  0.00  0.00    -0.283 N 
ATOM     36  H   UNL     1      20.720  19.522  23.495  0.00  0.00    +0.155 HD
ATOM     37  N   UNL     1      22.166  18.278  25.177  0.00  0.00    -0.214 NA
BRANCH   4   3
ATOM      1  C   UNL     1      25.242  15.507  23.834  0.00  0.00    +0.020 A 
ATOM      2  C   UNL     1      24.184  16.399  24.249  0.00  0.00    +0.013 A 
ATOM      3  C   UNL     1      23.988  16.717  25.657  0.00  0.00    +0.019 A 
ATOM     38  C   UNL     1      24.887  16.113  26.628  0.00  0.00    +0.120 A 
ATOM     39  N   UNL     1      25.897  15.257  26.199  0.00  0.00    -0.263 NA
ATOM     40  C   UNL     1      26.094  14.942  24.847  0.00  0.00    +0.111 A 
ENDBRANCH   4   3
ENDBRANCH  10   9
BRANCH  12  13
ATOM     13  N   UNL     1      16.488  20.911  27.209  0.00  0.00    -0.281 N 
ATOM     14  C   UNL     1      15.333  20.146  27.188  0.00  0.00    +0.248 C 
ATOM     30  O   UNL     1      14.797  19.732  26.171  0.00  0.00    -0.270 OA
ATOM     31  H   UNL     1      16.717  21.352  28.100  0.00  0.00    +0.155 HD
BRANCH  14  15
ATOM     15  C   UNL     1      14.670  19.805  28.483  0.00  0.00    +0.037 A 
ATOM     16  C   UNL     1      13.219  19.616  28.568  0.00  0.00    +0.013 A 
ATOM     17  C   UNL     1      12.603  19.303  29.833  0.00  0.00    +0.005 A 
ATOM     18  C   UNL     1      13.439  19.177  31.025  0.00  0.00    -0.033 A 
ATOM     28  C   UNL     1      14.875  19.365  30.912  0.00  0.00    +0.005 A 
ATOM     29  C   UNL     1      15.483  19.672  29.673  0.00  0.00    +0.013 A 
BRANCH  18  19
ATOM     19  C   UNL     1      12.864  18.867  32.420  0.00  0.00    +0.119 C 
BRANCH  19  20
ATOM     20  N   UNL     1      12.497  20.029  33.282  0.00  0.00    -0.302 NA
ATOM     21  C   UNL     1      13.418  20.156  34.499  0.00  0.00    +0.066 C 
ATOM     22  C   UNL     1      13.034  21.391  35.377  0.00  0.00    -0.064 C 
ATOM     23  N   UNL     1      11.573  21.267  35.814  0.00  0.00    +0.379 N 
ATOM     24  C   UNL     1      11.225  22.397  36.688  0.00  0.00    -0.096 C 
ATOM     25  H   UNL     1      11.477  20.333  36.415  0.00  0.00    -0.082 HD
ATOM     26  C   UNL     1      10.650  21.138  34.611  0.00  0.00    -0.064 C 
ATOM     27  C   UNL     1      11.059  19.926  33.728  0.00  0.00    +0.066 C 
ENDBRANCH  19  20
ENDBRANCH  18  19
ENDBRANCH  14  15
ENDBRANCH  12  13
TORSDOF 6
ENDMDL
MODEL 5
REMARK VINA RESULT:      -7.8      7.877     15.951
REMARK  Name = C:\Users\Docking\Desktop\test protocol\1iep_ligandH.pdb
REMARK  8 active torsions:
REMARK  status: ('A' for Active; 'I' for Inactive)
REMARK    1  A    between atoms: _5  and  _11
REMARK    2  A    between atoms: _19  and  _21
REMARK    3  A    between atoms: _22  and  _66
REMARK    4  A    between atoms: _27  and  _30
REMARK    5  A    between atoms: _32  and  _33
REMARK    6  A    between atoms: _38  and  _43
REMARK    7  A    between atoms: _43  and  _46
REMARK    8  A    between atoms: _53  and  _55
REMARK                            x       y       z     vdW  Elec       q    Type
REMARK                         _______ _______ _______ _____ _____    ______ ____
ROOT
ATOM     10  C   UNL     1      18.172  31.288  13.311  0.00  0.00    +0.038 A 
ATOM     11  C   UNL     1      18.561  30.092  13.966  0.00  0.00    +0.047 A 
ATOM     12  C   UNL     1      18.365  28.794  13.340  0.00  0.00    +0.035 A 
ATOM     32  C   UNL     1      17.771  28.751  12.045  0.00  0.00    +0.024 A 
ATOM     33  C   UNL     1      17.368  29.957  11.366  0.00  0.00    +0.007 A 
ATOM     34  C   UNL     1      17.557  31.240  11.979  0.00  0.00    -0.029 A 
ATOM     35  C   UNL     1      17.100  32.500  11.207  0.00  0.00    +0.045 C 
ENDROOT
BRANCH  10   9
ATOM      4  C   UNL     1      16.952  34.650  16.512  0.00  0.00    +0.077 A 
ATOM      5  C   UNL     1      15.777  33.929  16.910  0.00  0.00    +0.048 A 
ATOM      6  C   UNL     1      15.519  32.701  16.261  0.00  0.00    +0.116 A 
ATOM      7  N   UNL     1      16.379  32.237  15.289  0.00  0.00    -0.223 NA
ATOM      8  C   UNL     1      17.502  32.958  14.928  0.00  0.00    +0.220 A 
ATOM      9  N   UNL     1      18.384  32.508  13.958  0.00  0.00    -0.283 N 
ATOM     36  H   UNL     1      19.198  33.073  13.715  0.00  0.00    +0.155 HD
ATOM     37  N   UNL     1      17.770  34.135  15.531  0.00  0.00    -0.214 NA
BRANCH   4   3
ATOM      1  C   UNL     1      16.937  38.375  17.707  0.00  0.00    +0.020 A 
ATOM      2  C   UNL     1      16.493  37.132  17.119  0.00  0.00    +0.013 A 
ATOM      3  C   UNL     1      17.361  35.962  17.107  0.00  0.00    +0.019 A 
ATOM     38  C   UNL     1      18.683  36.083  17.704  0.00  0.00    +0.120 A 
ATOM     39  N   UNL     1      19.084  37.293  18.261  0.00  0.00    -0.263 NA
ATOM     40  C   UNL     1      18.257  38.427  18.276  0.00  0.00    +0.111 A 
ENDBRANCH   4   3
ENDBRANCH  10   9
BRANCH  12  13
ATOM     13  N   UNL     1      18.733  27.545  13.960  0.00  0.00    -0.281 N 
ATOM     14  C   UNL     1      19.876  26.792  13.745  0.00  0.00    +0.248 C 
ATOM     30  O   UNL     1      20.660  26.972  12.825  0.00  0.00    -0.270 OA
ATOM     31  H   UNL     1      18.070  27.170  14.639  0.00  0.00    +0.155 HD
BRANCH  14  15
ATOM     15  C   UNL     1      20.185  25.667  14.680  0.00  0.00    +0.037 A 
ATOM     16  C   UNL     1      20.200  25.867  16.131  0.00  0.00    +0.013 A 
ATOM     17  C   UNL     1      20.518  24.769  17.009  0.00  0.00    +0.005 A 
ATOM     18  C   UNL     1      20.824  23.460  16.437  0.00  0.00    -0.033 A 
ATOM     28  C   UNL     1      20.797  23.288  14.994  0.00  0.00    +0.005 A 
ATOM     29  C   UNL     1      20.487  24.362  14.130  0.00  0.00    +0.013 A 
BRANCH  18  19
ATOM     19  C   UNL     1      21.195  22.238  17.297  0.00  0.00    +0.119 C 
BRANCH  19  20
ATOM     20  N   UNL     1      22.616  21.779  17.256  0.00  0.00    -0.302 NA
ATOM     21  C   UNL     1      22.798  20.553  16.357  0.00  0.00    +0.066 C 
ATOM     22  C   UNL     1      24.293  20.100  16.308  0.00  0.00    -0.064 C 
ATOM     23  N   UNL     1      24.781  19.807  17.727  0.00  0.00    +0.379 N 
ATOM     24  C   UNL     1      26.170  19.326  17.679  0.00  0.00    -0.096 C 
ATOM     25  H   UNL     1      24.152  18.984  18.138  0.00  0.00    -0.082 HD
ATOM     26  C   UNL     1      24.601  21.020  18.629  0.00  0.00    -0.064 C 
ATOM     27  C   UNL     1      23.117  21.480  18.648  0.00  0.00    +0.066 C 
ENDBRANCH  19  20
ENDBRANCH  18  19
ENDBRANCH  14  15
ENDBRANCH  12  13
TORSDOF 6
ENDMDL
