MODEL 1
REMARK VINA RESULT:      -9.5      0.000      0.000
REMARK  Name = C:\Users\Docking\Desktop\test protocol\1iep_ligandH.pdb
REMARK  8 active torsions:
REMARK  status: ('A' for Active; 'I' for Inactive)
REMARK    1  A    between atoms: _5  and  _11
REMARK    2  A    between atoms: _19  and  _21
REMARK    3  A    between atoms: _22  and  _66
REMARK    4  A    between atoms: _27  and  _30
REMARK    5  A    between atoms: _32  and  _33
REMARK    6  A    between atoms: _38  and  _43
REMARK    7  A    between atoms: _43  and  _46
REMARK    8  A    between atoms: _53  and  _55
REMARK                            x       y       z     vdW  Elec       q    Type
REMARK                         _______ _______ _______ _____ _____    ______ ____
ROOT
ATOM     10  C   UNL     1      -4.047  33.391  10.862  0.00  0.00    +0.038 A 
ATOM     11  C   UNL     1      -3.613  34.716  10.601  0.00  0.00    +0.047 A 
ATOM     12  C   UNL     1      -4.367  35.864  11.081  0.00  0.00    +0.035 A 
ATOM     32  C   UNL     1      -5.559  35.625  11.826  0.00  0.00    +0.024 A 
ATOM     33  C   UNL     1      -6.016  34.285  12.099  0.00  0.00    +0.007 A 
ATOM     34  C   UNL     1      -5.277  33.149  11.626  0.00  0.00    -0.029 A 
ATOM     35  C   UNL     1      -5.817  31.735  11.943  0.00  0.00    +0.045 C 
ENDROOT
BRANCH  10   9
ATOM      4  C   UNL     1      -2.903  30.207   7.457  0.00  0.00    +0.077 A 
ATOM      5  C   UNL     1      -3.931  30.688   6.580  0.00  0.00    +0.048 A 
ATOM      6  C   UNL     1      -4.737  31.751   7.045  0.00  0.00    +0.116 A 
ATOM      7  N   UNL     1      -4.522  32.286   8.297  0.00  0.00    -0.223 NA
ATOM      8  C   UNL     1      -3.523  31.798   9.119  0.00  0.00    +0.220 A 
ATOM      9  N   UNL     1      -3.284  32.327  10.378  0.00  0.00    -0.283 N 
ATOM     36  H   UNL     1      -2.542  31.934  10.957  0.00  0.00    +0.155 HD
ATOM     37  N   UNL     1      -2.741  30.783   8.698  0.00  0.00    -0.214 NA
BRANCH   4   3
ATOM      1  C   UNL     1      -1.084  27.324   5.540  0.00  0.00    +0.020 A 
ATOM      2  C   UNL     1      -2.011  28.394   5.829  0.00  0.00    +0.013 A 
ATOM      3  C   UNL     1      -1.968  29.092   7.108  0.00  0.00    +0.019 A 
ATOM     38  C   UNL     1      -0.968  28.679   8.080  0.00  0.00    +0.120 A 
ATOM     39  N   UNL     1      -0.090  27.644   7.776  0.00  0.00    -0.263 NA
ATOM     40  C   UNL     1      -0.122  26.964   6.549  0.00  0.00    +0.111 A 
ENDBRANCH   4   3
ENDBRANCH  10   9
BRANCH  12  13
ATOM     13  N   UNL     1      -3.980  37.231  10.840  0.00  0.00    -0.281 N 
ATOM     14  C   UNL     1      -3.177  38.040  11.628  0.00  0.00    +0.248 C 
ATOM     30  O   UNL     1      -2.843  37.777  12.773  0.00  0.00    -0.270 OA
ATOM     31  H   UNL     1      -4.341  37.655   9.985  0.00  0.00    +0.155 HD
BRANCH  14  15
ATOM     15  C   UNL     1      -2.687  39.336  11.067  0.00  0.00    +0.037 A 
ATOM     16  C   UNL     1      -1.958  40.297  11.899  0.00  0.00    +0.013 A 
ATOM     17  C   UNL     1      -1.511  41.547  11.338  0.00  0.00    +0.005 A 
ATOM     18  C   UNL     1      -1.792  41.843   9.935  0.00  0.00    -0.033 A 
ATOM     28  C   UNL     1      -2.513  40.870   9.131  0.00  0.00    +0.005 A 
ATOM     29  C   UNL     1      -2.954  39.644   9.678  0.00  0.00    +0.013 A 
BRANCH  18  19
ATOM     19  C   UNL     1      -1.372  43.161   9.258  0.00  0.00    +0.119 C 
BRANCH  19  20
ATOM     20  N   UNL     1      -0.119  43.144   8.446  0.00  0.00    -0.302 NA
ATOM     21  C   UNL     1      -0.394  42.828   6.973  0.00  0.00    +0.066 C 
ATOM     22  C   UNL     1       0.925  42.836   6.133  0.00  0.00    -0.064 C 
ATOM     23  N   UNL     1       1.911  41.829   6.728  0.00  0.00    +0.379 N 
ATOM     24  C   UNL     1       3.130  41.791   5.907  0.00  0.00    -0.096 C 
ATOM     25  H   UNL     1       1.437  40.821   6.676  0.00  0.00    -0.082 HD
ATOM     26  C   UNL     1       2.188  42.134   8.193  0.00  0.00    -0.064 C 
ATOM     27  C   UNL     1       0.867  42.153   9.013  0.00  0.00    +0.066 C 
ENDBRANCH  19  20
ENDBRANCH  18  19
ENDBRANCH  14  15
ENDBRANCH  12  13
TORSDOF 6
ENDMDL
MODEL 2
REMARK VINA RESULT:      -9.3      1.461      2.108
REMARK  Name = C:\Users\Docking\Desktop\test protocol\1iep_ligandH.pdb
REMARK  8 active torsions:
REMARK  status: ('A' for Active; 'I' for Inactive)
REMARK    1  A    between atoms: _5  and  _11
REMARK    2  A    between atoms: _19  and  _21
REMARK    3  A    between atoms: _22  and  _66
REMARK    4  A    between atoms: _27  and  _30
REMARK    5  A    between atoms: _32  and  _33
REMARK    6  A    between atoms: _38  and  _43
REMARK    7  A    between atoms: _43  and  _46
REMARK    8  A    between atoms: _53  and  _55
REMARK                            x       y       z     vdW  Elec       q    Type
REMARK                         _______ _______ _______ _____ _____    ______ ____
ROOT
ATOM     10  C   UNL     1      -4.736  32.511   9.626  0.00  0.00    +0.038 A 
ATOM     11  C   UNL     1      -4.277  33.853   9.613  0.00  0.00    +0.047 A 
ATOM     12  C   UNL     1      -4.837  34.849  10.514  0.00  0.00    +0.035 A 
ATOM     32  C   UNL     1      -5.863  34.442  11.416  0.00  0.00    +0.024 A 
ATOM     33  C   UNL     1      -6.342  33.082  11.442  0.00  0.00    +0.007 A 
ATOM     34  C   UNL     1      -5.794  32.096  10.555  0.00  0.00    -0.029 A 
ATOM     35  C   UNL     1      -6.351  30.655  10.621  0.00  0.00    +0.045 C 
ENDROOT
BRANCH  10   9
ATOM      4  C   UNL     1      -1.200  29.547   8.303  0.00  0.00    +0.077 A 
ATOM      5  C   UNL     1      -0.417  29.868   9.462  0.00  0.00    +0.048 A 
ATOM      6  C   UNL     1      -0.958  30.806  10.370  0.00  0.00    +0.116 A 
ATOM      7  N   UNL     1      -2.189  31.374  10.128  0.00  0.00    -0.223 NA
ATOM      8  C   UNL     1      -2.917  31.044   8.999  0.00  0.00    +0.220 A 
ATOM      9  N   UNL     1      -4.162  31.597   8.740  0.00  0.00    -0.283 N 
ATOM     36  H   UNL     1      -4.664  31.333   7.893  0.00  0.00    +0.155 HD
ATOM     37  N   UNL     1      -2.423  30.152   8.116  0.00  0.00    -0.214 NA
BRANCH   4   3
ATOM      1  C   UNL     1      -1.032  26.434   5.940  0.00  0.00    +0.020 A 
ATOM      2  C   UNL     1      -1.493  27.342   6.965  0.00  0.00    +0.013 A 
ATOM      3  C   UNL     1      -0.766  28.572   7.253  0.00  0.00    +0.019 A 
ATOM     38  C   UNL     1       0.432  28.857   6.478  0.00  0.00    +0.120 A 
ATOM     39  N   UNL     1       0.853  27.963   5.498  0.00  0.00    -0.263 NA
ATOM     40  C   UNL     1       0.163  26.776   5.214  0.00  0.00    +0.111 A 
ENDBRANCH   4   3
ENDBRANCH  10   9
BRANCH  12  13
ATOM     13  N   UNL     1      -4.417  36.228  10.540  0.00  0.00    -0.281 N 
ATOM     14  C   UNL     1      -3.748  36.895  11.554  0.00  0.00    +0.248 C 
ATOM     30  O   UNL     1      -3.597  36.459  12.685  0.00  0.00    -0.270 OA
ATOM     31  H   UNL     1      -4.640  36.779   9.712  0.00  0.00    +0.155 HD
BRANCH  14  15
ATOM     15  C   UNL     1      -3.177  38.247  11.273  0.00  0.00    +0.037 A 
ATOM     16  C   UNL     1      -3.010  39.237  12.340  0.00  0.00    +0.013 A 
ATOM     17  C   UNL     1      -2.471  40.540  12.039  0.00  0.00    +0.005 A 
ATOM     18  C   UNL     1      -2.095  40.860  10.664  0.00  0.00    -0.033 A 
ATOM     28  C   UNL     1      -2.266  39.857   9.627  0.00  0.00    +0.005 A 
ATOM     29  C   UNL     1      -2.794  38.579   9.917  0.00  0.00    +0.013 A 
BRANCH  18  19
ATOM     19  C   UNL     1      -1.533  42.232  10.249  0.00  0.00    +0.119 C 
BRANCH  19  20
ATOM     20  N   UNL     1      -0.220  42.246   9.537  0.00  0.00    -0.302 NA
ATOM     21  C   UNL     1       0.873  42.934  10.360  0.00  0.00    +0.066 C 
ATOM     22  C   UNL     1       2.245  42.920   9.611  0.00  0.00    -0.064 C 
ATOM     23  N   UNL     1       2.085  43.597   8.248  0.00  0.00    +0.379 N 
ATOM     24  C   UNL     1       3.387  43.637   7.565  0.00  0.00    -0.096 C 
ATOM     25  H   UNL     1       1.766  44.650   8.430  0.00  0.00    -0.082 HD
ATOM     26  C   UNL     1       0.999  42.920   7.424  0.00  0.00    -0.064 C 
ATOM     27  C   UNL     1      -0.353  42.914   8.191  0.00  0.00    +0.066 C 
ENDBRANCH  19  20
ENDBRANCH  18  19
ENDBRANCH  14  15
ENDBRANCH  12  13
TORSDOF 6
ENDMDL
MODEL 3
REMARK VINA RESULT:      -9.0     11.760     18.484
REMARK  Name = C:\Users\Docking\Desktop\test protocol\1iep_ligandH.pdb
REMARK  8 active torsions:
REMARK  status: ('A' for Active; 'I' for Inactive)
REMARK    1  A    between atoms: _5  and  _11
REMARK    2  A    between atoms: _19  and  _21
REMARK    3  A    between atoms: _22  and  _66
REMARK    4  A    between atoms: _27  and  _30
REMARK    5  A    between atoms: _32  and  _33
REMARK    6  A    between atoms: _38  and  _43
REMARK    7  A    between atoms: _43  and  _46
REMARK    8  A    between atoms: _53  and  _55
REMARK                            x       y       z     vdW  Elec       q    Type
REMARK                         _______ _______ _______ _____ _____    ______ ____
ROOT
ATOM     10  C   UNL     1      12.203  41.887   1.260  0.00  0.00    +0.038 A 
ATOM     11  C   UNL     1      11.679  40.866   2.092  0.00  0.00    +0.047 A 
ATOM     12  C   UNL     1      11.060  41.181   3.371  0.00  0.00    +0.035 A 
ATOM     32  C   UNL     1      10.989  42.548   3.769  0.00  0.00    +0.024 A 
ATOM     33  C   UNL     1      11.518  43.598   2.935  0.00  0.00    +0.007 A 
ATOM     34  C   UNL     1      12.132  43.294   1.674  0.00  0.00    -0.029 A 
ATOM     35  C   UNL     1      12.687  44.460   0.824  0.00  0.00    +0.045 C 
ENDROOT
BRANCH  10   9
ATOM      4  C   UNL     1      15.851  40.165  -1.340  0.00  0.00    +0.077 A 
ATOM      5  C   UNL     1      16.675  39.991  -0.179  0.00  0.00    +0.048 A 
ATOM      6  C   UNL     1      16.124  40.364   1.068  0.00  0.00    +0.116 A 
ATOM      7  N   UNL     1      14.845  40.871   1.136  0.00  0.00    -0.223 NA
ATOM      8  C   UNL     1      14.078  41.028  -0.004  0.00  0.00    +0.220 A 
ATOM      9  N   UNL     1      12.786  41.528   0.043  0.00  0.00    -0.283 N 
ATOM     36  H   UNL     1      12.256  41.635  -0.822  0.00  0.00    +0.155 HD
ATOM     37  N   UNL     1      14.581  40.681  -1.206  0.00  0.00    -0.214 NA
BRANCH   4   3
ATOM      1  C   UNL     1      17.909  38.792  -4.370  0.00  0.00    +0.020 A 
ATOM      2  C   UNL     1      17.532  39.106  -3.012  0.00  0.00    +0.013 A 
ATOM      3  C   UNL     1      16.290  39.815  -2.728  0.00  0.00    +0.019 A 
ATOM     38  C   UNL     1      15.445  40.193  -3.851  0.00  0.00    +0.120 A 
ATOM     39  N   UNL     1      15.835  39.878  -5.149  0.00  0.00    -0.263 NA
ATOM     40  C   UNL     1      17.029  39.198  -5.434  0.00  0.00    +0.111 A 
ENDBRANCH   4   3
ENDBRANCH  10   9
BRANCH  12  13
ATOM     13  N   UNL     1      10.517  40.185   4.262  0.00  0.00    -0.281 N 
ATOM     14  C   UNL     1      11.207  39.340   5.115  0.00  0.00    +0.248 C 
ATOM     30  O   UNL     1      12.416  39.163   5.084  0.00  0.00    -0.270 OA
ATOM     31  H   UNL     1       9.501  40.093   4.264  0.00  0.00    +0.155 HD
BRANCH  14  15
ATOM     15  C   UNL     1      10.442  38.568   6.141  0.00  0.00    +0.037 A 
ATOM     16  C   UNL     1      11.044  37.430   6.840  0.00  0.00    +0.013 A 
ATOM     17  C   UNL     1      10.278  36.692   7.814  0.00  0.00    +0.005 A 
ATOM     18  C   UNL     1       8.902  37.093   8.095  0.00  0.00    -0.033 A 
ATOM     28  C   UNL     1       8.331  38.229   7.391  0.00  0.00    +0.005 A 
ATOM     29  C   UNL     1       9.079  38.954   6.435  0.00  0.00    +0.013 A 
BRANCH  18  19
ATOM     19  C   UNL     1       8.004  36.350   9.102  0.00  0.00    +0.119 C 
BRANCH  19  20
ATOM     20  N   UNL     1       6.852  35.577   8.551  0.00  0.00    -0.302 NA
ATOM     21  C   UNL     1       5.557  35.845   9.323  0.00  0.00    +0.066 C 
ATOM     22  C   UNL     1       4.357  35.045   8.719  0.00  0.00    -0.064 C 
ATOM     23  N   UNL     1       4.690  33.552   8.722  0.00  0.00    +0.379 N 
ATOM     24  C   UNL     1       3.541  32.792   8.208  0.00  0.00    -0.096 C 
ATOM     25  H   UNL     1       4.853  33.244   9.781  0.00  0.00    -0.082 HD
ATOM     26  C   UNL     1       5.978  33.277   7.958  0.00  0.00    -0.064 C 
ATOM     27  C   UNL     1       7.157  34.099   8.548  0.00  0.00    +0.066 C 
ENDBRANCH  19  20
ENDBRANCH  18  19
ENDBRANCH  14  15
ENDBRANCH  12  13
TORSDOF 6
ENDMDL
MODEL 4
REMARK VINA RESULT:      -8.9     13.099     19.588
REMARK  Name = C:\Users\Docking\Desktop\test protocol\1iep_ligandH.pdb
REMARK  8 active torsions:
REMARK  status: ('A' for Active; 'I' for Inactive)
REMARK    1  A    between atoms: _5  and  _11
REMARK    2  A    between atoms: _19  and  _21
REMARK    3  A    between atoms: _22  and  _66
REMARK    4  A    between atoms: _27  and  _30
REMARK    5  A    between atoms: _32  and  _33
REMARK    6  A    between atoms: _38  and  _43
REMARK    7  A    between atoms: _43  and  _46
REMARK    8  A    between atoms: _53  and  _55
REMARK                            x       y       z     vdW  Elec       q    Type
REMARK                         _______ _______ _______ _____ _____    ______ ____
ROOT
ATOM     10  C   UNL     1      15.429  41.127   2.586  0.00  0.00    +0.038 A 
ATOM     11  C   UNL     1      14.499  40.324   3.293  0.00  0.00    +0.047 A 
ATOM     12  C   UNL     1      14.397  40.389   4.743  0.00  0.00    +0.035 A 
ATOM     32  C   UNL     1      15.258  41.286   5.441  0.00  0.00    +0.024 A 
ATOM     33  C   UNL     1      16.210  42.109   4.738  0.00  0.00    +0.007 A 
ATOM     34  C   UNL     1      16.316  42.047   3.308  0.00  0.00    -0.029 A 
ATOM     35  C   UNL     1      17.360  42.948   2.607  0.00  0.00    +0.045 C 
ENDROOT
BRANCH  10   9
ATOM      4  C   UNL     1      17.384  39.440  -1.460  0.00  0.00    +0.077 A 
ATOM      5  C   UNL     1      18.399  38.725  -0.741  0.00  0.00    +0.048 A 
ATOM      6  C   UNL     1      18.387  38.822   0.668  0.00  0.00    +0.116 A 
ATOM      7  N   UNL     1      17.427  39.582   1.301  0.00  0.00    -0.223 NA
ATOM      8  C   UNL     1      16.464  40.261   0.578  0.00  0.00    +0.220 A 
ATOM      9  N   UNL     1      15.484  41.025   1.194  0.00  0.00    -0.283 N 
ATOM     36  H   UNL     1      14.796  41.516   0.625  0.00  0.00    +0.155 HD
ATOM     37  N   UNL     1      16.454  40.185  -0.769  0.00  0.00    -0.214 NA
BRANCH   4   3
ATOM      1  C   UNL     1      18.244  39.356  -5.275  0.00  0.00    +0.020 A 
ATOM      2  C   UNL     1      18.416  39.360  -3.841  0.00  0.00    +0.013 A 
ATOM      3  C   UNL     1      17.263  39.433  -2.952  0.00  0.00    +0.019 A 
ATOM     38  C   UNL     1      15.939  39.500  -3.552  0.00  0.00    +0.120 A 
ATOM     39  N   UNL     1      15.804  39.496  -4.937  0.00  0.00    -0.263 NA
ATOM     40  C   UNL     1      16.907  39.427  -5.802  0.00  0.00    +0.111 A 
ENDBRANCH   4   3
ENDBRANCH  10   9
BRANCH  12  13
ATOM     13  N   UNL     1      13.477  39.591   5.515  0.00  0.00    -0.281 N 
ATOM     14  C   UNL     1      12.116  39.427   5.315  0.00  0.00    +0.248 C 
ATOM     30  O   UNL     1      11.441  40.115   4.564  0.00  0.00    -0.270 OA
ATOM     31  H   UNL     1      13.878  39.087   6.306  0.00  0.00    +0.155 HD
BRANCH  14  15
ATOM     15  C   UNL     1      11.400  38.354   6.069  0.00  0.00    +0.037 A 
ATOM     16  C   UNL     1      12.134  37.286   6.752  0.00  0.00    +0.013 A 
ATOM     17  C   UNL     1      11.417  36.253   7.458  0.00  0.00    +0.005 A 
ATOM     18  C   UNL     1       9.957  36.285   7.485  0.00  0.00    -0.033 A 
ATOM     28  C   UNL     1       9.254  37.359   6.803  0.00  0.00    +0.005 A 
ATOM     29  C   UNL     1       9.953  38.372   6.109  0.00  0.00    +0.013 A 
BRANCH  18  19
ATOM     19  C   UNL     1       9.110  35.212   8.195  0.00  0.00    +0.119 C 
BRANCH  19  20
ATOM     20  N   UNL     1       7.689  35.555   8.499  0.00  0.00    -0.302 NA
ATOM     21  C   UNL     1       7.554  36.342   9.806  0.00  0.00    +0.066 C 
ATOM     22  C   UNL     1       6.063  36.711  10.097  0.00  0.00    -0.064 C 
ATOM     23  N   UNL     1       5.225  35.433  10.147  0.00  0.00    +0.379 N 
ATOM     24  C   UNL     1       3.833  35.772  10.478  0.00  0.00    -0.096 C 
ATOM     25  H   UNL     1       5.624  34.799  10.972  0.00  0.00    -0.082 HD
ATOM     26  C   UNL     1       5.355  34.642   8.853  0.00  0.00    -0.064 C 
ATOM     27  C   UNL     1       6.843  34.306   8.557  0.00  0.00    +0.066 C 
ENDBRANCH  19  20
ENDBRANCH  18  19
ENDBRANCH  14  15
ENDBRANCH  12  13
TORSDOF 6
ENDMDL
MODEL 5
REMARK VINA RESULT:      -8.5      8.322     14.235
REMARK  Name = C:\Users\Docking\Desktop\test protocol\1iep_ligandH.pdb
REMARK  8 active torsions:
REMARK  status: ('A' for Active; 'I' for Inactive)
REMARK    1  A    between atoms: _5  and  _11
REMARK    2  A    between atoms: _19  and  _21
REMARK    3  A    between atoms: _22  and  _66
REMARK    4  A    between atoms: _27  and  _30
REMARK    5  A    between atoms: _32  and  _33
REMARK    6  A    between atoms: _38  and  _43
REMARK    7  A    between atoms: _43  and  _46
REMARK    8  A    between atoms: _53  and  _55
REMARK                            x       y       z     vdW  Elec       q    Type
REMARK                         _______ _______ _______ _____ _____    ______ ____
ROOT
ATOM     10  C   UNL     1       5.382  37.946   7.931  0.00  0.00    +0.038 A 
ATOM     11  C   UNL     1       6.479  38.682   7.414  0.00  0.00    +0.047 A 
ATOM     12  C   UNL     1       7.663  38.009   6.903  0.00  0.00    +0.035 A 
ATOM     32  C   UNL     1       7.695  36.584   6.931  0.00  0.00    +0.024 A 
ATOM     33  C   UNL     1       6.590  35.821   7.455  0.00  0.00    +0.007 A 
ATOM     34  C   UNL     1       5.420  36.479   7.962  0.00  0.00    -0.029 A 
ATOM     35  C   UNL     1       4.268  35.610   8.517  0.00  0.00    +0.045 C 
ENDROOT
BRANCH  10   9
ATOM      4  C   UNL     1       2.443  41.741   7.924  0.00  0.00    +0.077 A 
ATOM      5  C   UNL     1       3.202  42.401   6.901  0.00  0.00    +0.048 A 
ATOM      6  C   UNL     1       4.345  41.733   6.408  0.00  0.00    +0.116 A 
ATOM      7  N   UNL     1       4.695  40.498   6.908  0.00  0.00    -0.223 NA
ATOM      8  C   UNL     1       3.942  39.890   7.896  0.00  0.00    +0.220 A 
ATOM      9  N   UNL     1       4.271  38.644   8.409  0.00  0.00    -0.283 N 
ATOM     36  H   UNL     1       3.694  38.233   9.142  0.00  0.00    +0.155 HD
ATOM     37  N   UNL     1       2.847  40.507   8.384  0.00  0.00    -0.214 NA
BRANCH   4   3
ATOM      1  C   UNL     1      -0.052  43.365  10.460  0.00  0.00    +0.020 A 
ATOM      2  C   UNL     1       1.167  42.818   9.911  0.00  0.00    +0.013 A 
ATOM      3  C   UNL     1       1.208  42.317   8.543  0.00  0.00    +0.019 A 
ATOM     38  C   UNL     1      -0.012  42.385   7.751  0.00  0.00    +0.120 A 
ATOM     39  N   UNL     1      -1.171  42.916   8.308  0.00  0.00    -0.263 NA
ATOM     40  C   UNL     1      -1.223  43.400   9.624  0.00  0.00    +0.111 A 
ENDBRANCH   4   3
ENDBRANCH  10   9
BRANCH  12  13
ATOM     13  N   UNL     1       8.810  38.703   6.373  0.00  0.00    -0.281 N 
ATOM     14  C   UNL     1      10.112  38.683   6.847  0.00  0.00    +0.248 C 
ATOM     30  O   UNL     1      10.445  38.230   7.932  0.00  0.00    -0.270 OA
ATOM     31  H   UNL     1       8.643  39.280   5.549  0.00  0.00    +0.155 HD
BRANCH  14  15
ATOM     15  C   UNL     1      11.198  39.262   6.000  0.00  0.00    +0.037 A 
ATOM     16  C   UNL     1      11.006  40.519   5.272  0.00  0.00    +0.013 A 
ATOM     17  C   UNL     1      12.064  41.047   4.448  0.00  0.00    +0.005 A 
ATOM     18  C   UNL     1      13.326  40.318   4.349  0.00  0.00    -0.033 A 
ATOM     28  C   UNL     1      13.492  39.076   5.086  0.00  0.00    +0.005 A 
ATOM     29  C   UNL     1      12.457  38.555   5.894  0.00  0.00    +0.013 A 
BRANCH  18  19
ATOM     19  C   UNL     1      14.502  40.796   3.477  0.00  0.00    +0.119 C 
BRANCH  19  20
ATOM     20  N   UNL     1      14.498  40.388   2.040  0.00  0.00    -0.302 NA
ATOM     21  C   UNL     1      15.802  40.766   1.332  0.00  0.00    +0.066 C 
ATOM     22  C   UNL     1      15.790  40.311  -0.164  0.00  0.00    -0.064 C 
ATOM     23  N   UNL     1      14.588  40.936  -0.874  0.00  0.00    +0.379 N 
ATOM     24  C   UNL     1      14.606  40.558  -2.294  0.00  0.00    -0.096 C 
ATOM     25  H   UNL     1      14.700  42.044  -0.817  0.00  0.00    -0.082 HD
ATOM     26  C   UNL     1      13.287  40.568  -0.174  0.00  0.00    -0.064 C 
ATOM     27  C   UNL     1      13.321  40.997   1.319  0.00  0.00    +0.066 C 
ENDBRANCH  19  20
ENDBRANCH  18  19
ENDBRANCH  14  15
ENDBRANCH  12  13
TORSDOF 6
ENDMDL
