MODEL 1
REMARK VINA RESULT:      -9.3      0.000      0.000
REMARK  Name = C:\Users\Docking\Desktop\test protocol\1iep_ligandH.pdb
REMARK  8 active torsions:
REMARK  status: ('A' for Active; 'I' for Inactive)
REMARK    1  A    between atoms: _5  and  _11
REMARK    2  A    between atoms: _19  and  _21
REMARK    3  A    between atoms: _22  and  _66
REMARK    4  A    between atoms: _27  and  _30
REMARK    5  A    between atoms: _32  and  _33
REMARK    6  A    between atoms: _38  and  _43
REMARK    7  A    between atoms: _43  and  _46
REMARK    8  A    between atoms: _53  and  _55
REMARK                            x       y       z     vdW  Elec       q    Type
REMARK                         _______ _______ _______ _____ _____    ______ ____
ROOT
ATOM     10  C   UNL     1       2.657  33.255 -11.928  0.00  0.00    +0.038 A 
ATOM     11  C   UNL     1       2.324  34.576 -11.533  0.00  0.00    +0.047 A 
ATOM     12  C   UNL     1       3.199  35.696 -11.840  0.00  0.00    +0.035 A 
ATOM     32  C   UNL     1       4.405  35.436 -12.553  0.00  0.00    +0.024 A 
ATOM     33  C   UNL     1       4.760  34.099 -12.961  0.00  0.00    +0.007 A 
ATOM     34  C   UNL     1       3.902  32.990 -12.659  0.00  0.00    -0.029 A 
ATOM     35  C   UNL     1       4.336  31.577 -13.115  0.00  0.00    +0.045 C 
ENDROOT
BRANCH  10   9
ATOM      4  C   UNL     1       1.026  29.858  -8.954  0.00  0.00    +0.077 A 
ATOM      5  C   UNL     1       2.023  30.160  -7.968  0.00  0.00    +0.048 A 
ATOM      6  C   UNL     1       2.941  31.192  -8.267  0.00  0.00    +0.116 A 
ATOM      7  N   UNL     1       2.859  31.865  -9.467  0.00  0.00    -0.223 NA
ATOM      8  C   UNL     1       1.886  31.548 -10.397  0.00  0.00    +0.220 A 
ATOM      9  N   UNL     1       1.780  32.217 -11.607  0.00  0.00    -0.283 N 
ATOM     36  H   UNL     1       1.053  31.948 -12.270  0.00  0.00    +0.155 HD
ATOM     37  N   UNL     1       0.998  30.565 -10.136  0.00  0.00    -0.214 NA
BRANCH   4   3
ATOM      1  C   UNL     1      -1.013  26.815  -7.582  0.00  0.00    +0.020 A 
ATOM      2  C   UNL     1       0.019  27.819  -7.703  0.00  0.00    +0.013 A 
ATOM      3  C   UNL     1      -0.016  28.797  -8.783  0.00  0.00    +0.019 A 
ATOM     38  C   UNL     1      -1.119  28.732  -9.731  0.00  0.00    +0.120 A 
ATOM     39  N   UNL     1      -2.097  27.754  -9.590  0.00  0.00    -0.263 NA
ATOM     40  C   UNL     1      -2.073  26.806  -8.556  0.00  0.00    +0.111 A 
ENDBRANCH   4   3
ENDBRANCH  10   9
BRANCH  12  13
ATOM     13  N   UNL     1       2.917  37.058 -11.458  0.00  0.00    -0.281 N 
ATOM     14  C   UNL     1       2.439  38.085 -12.255  0.00  0.00    +0.248 C 
ATOM     30  O   UNL     1       2.383  38.044 -13.475  0.00  0.00    -0.270 OA
ATOM     31  H   UNL     1       3.091  37.293 -10.480  0.00  0.00    +0.155 HD
BRANCH  14  15
ATOM     15  C   UNL     1       1.968  39.345 -11.604  0.00  0.00    +0.037 A 
ATOM     16  C   UNL     1       2.288  39.644 -10.206  0.00  0.00    +0.013 A 
ATOM     17  C   UNL     1       1.808  40.859  -9.598  0.00  0.00    +0.005 A 
ATOM     18  C   UNL     1       1.002  41.786 -10.389  0.00  0.00    -0.033 A 
ATOM     28  C   UNL     1       0.704  41.467 -11.776  0.00  0.00    +0.005 A 
ATOM     29  C   UNL     1       1.172  40.277 -12.375  0.00  0.00    +0.013 A 
BRANCH  18  19
ATOM     19  C   UNL     1       0.429  43.096  -9.816  0.00  0.00    +0.119 C 
BRANCH  19  20
ATOM     20  N   UNL     1      -0.870  43.011  -9.084  0.00  0.00    -0.302 NA
ATOM     21  C   UNL     1      -2.064  43.309  -9.996  0.00  0.00    +0.066 C 
ATOM     22  C   UNL     1      -3.416  43.194  -9.220  0.00  0.00    -0.064 C 
ATOM     23  N   UNL     1      -3.397  44.148  -8.025  0.00  0.00    +0.379 N 
ATOM     24  C   UNL     1      -4.689  44.085  -7.326  0.00  0.00    -0.096 C 
ATOM     25  H   UNL     1      -3.276  45.183  -8.420  0.00  0.00    -0.082 HD
ATOM     26  C   UNL     1      -2.212  43.861  -7.114  0.00  0.00    -0.064 C 
ATOM     27  C   UNL     1      -0.875  43.949  -7.902  0.00  0.00    +0.066 C 
ENDBRANCH  19  20
ENDBRANCH  18  19
ENDBRANCH  14  15
ENDBRANCH  12  13
TORSDOF 6
ENDMDL
MODEL 2
REMARK VINA RESULT:      -9.3      1.543      2.004
REMARK  Name = C:\Users\Docking\Desktop\test protocol\1iep_ligandH.pdb
REMARK  8 active torsions:
REMARK  status: ('A' for Active; 'I' for Inactive)
REMARK    1  A    between atoms: _5  and  _11
REMARK    2  A    between atoms: _19  and  _21
REMARK    3  A    between atoms: _22  and  _66
REMARK    4  A    between atoms: _27  and  _30
REMARK    5  A    between atoms: _32  and  _33
REMARK    6  A    between atoms: _38  and  _43
REMARK    7  A    between atoms: _43  and  _46
REMARK    8  A    between atoms: _53  and  _55
REMARK                            x       y       z     vdW  Elec       q    Type
REMARK                         _______ _______ _______ _____ _____    ______ ____
ROOT
ATOM     10  C   UNL     1       3.363  33.321  -9.305  0.00  0.00    +0.038 A 
ATOM     11  C   UNL     1       2.811  34.621  -9.429  0.00  0.00    +0.047 A 
ATOM     12  C   UNL     1       3.521  35.676 -10.137  0.00  0.00    +0.035 A 
ATOM     32  C   UNL     1       4.790  35.370 -10.708  0.00  0.00    +0.024 A 
ATOM     33  C   UNL     1       5.367  34.053 -10.591  0.00  0.00    +0.007 A 
ATOM     34  C   UNL     1       4.672  33.010  -9.892  0.00  0.00    -0.029 A 
ATOM     35  C   UNL     1       5.341  31.619  -9.792  0.00  0.00    +0.045 C 
ENDROOT
BRANCH  10   9
ATOM      4  C   UNL     1      -0.035  29.938  -9.085  0.00  0.00    +0.077 A 
ATOM      5  C   UNL     1      -0.416  30.148 -10.452  0.00  0.00    +0.048 A 
ATOM      6  C   UNL     1       0.283  31.141 -11.175  0.00  0.00    +0.116 A 
ATOM      7  N   UNL     1       1.286  31.863 -10.566  0.00  0.00    -0.223 NA
ATOM      8  C   UNL     1       1.627  31.637  -9.246  0.00  0.00    +0.220 A 
ATOM      9  N   UNL     1       2.638  32.346  -8.616  0.00  0.00    -0.283 N 
ATOM     36  H   UNL     1       2.855  32.155  -7.638  0.00  0.00    +0.155 HD
ATOM     37  N   UNL     1       0.974  30.695  -8.533  0.00  0.00    -0.214 NA
BRANCH   4   3
ATOM      1  C   UNL     1      -1.008  26.562  -7.365  0.00  0.00    +0.020 A 
ATOM      2  C   UNL     1      -0.359  27.501  -8.251  0.00  0.00    +0.013 A 
ATOM      3  C   UNL     1      -0.676  28.922  -8.191  0.00  0.00    +0.019 A 
ATOM     38  C   UNL     1      -1.661  29.364  -7.215  0.00  0.00    +0.120 A 
ATOM     39  N   UNL     1      -2.270  28.436  -6.376  0.00  0.00    -0.263 NA
ATOM     40  C   UNL     1      -1.974  27.066  -6.426  0.00  0.00    +0.111 A 
ENDBRANCH   4   3
ENDBRANCH  10   9
BRANCH  12  13
ATOM     13  N   UNL     1       3.014  37.017 -10.288  0.00  0.00    -0.281 N 
ATOM     14  C   UNL     1       2.454  37.594 -11.416  0.00  0.00    +0.248 C 
ATOM     30  O   UNL     1       2.499  37.107 -12.536  0.00  0.00    -0.270 OA
ATOM     31  H   UNL     1       3.076  37.614  -9.463  0.00  0.00    +0.155 HD
BRANCH  14  15
ATOM     15  C   UNL     1       1.755  38.909 -11.283  0.00  0.00    +0.037 A 
ATOM     16  C   UNL     1       1.585  39.798 -12.435  0.00  0.00    +0.013 A 
ATOM     17  C   UNL     1       0.922  41.068 -12.276  0.00  0.00    +0.005 A 
ATOM     18  C   UNL     1       0.422  41.456 -10.959  0.00  0.00    -0.033 A 
ATOM     28  C   UNL     1       0.600  40.551  -9.834  0.00  0.00    +0.005 A 
ATOM     29  C   UNL     1       1.250  39.306  -9.986  0.00  0.00    +0.013 A 
BRANCH  18  19
ATOM     19  C   UNL     1      -0.278  42.801 -10.692  0.00  0.00    +0.119 C 
BRANCH  19  20
ATOM     20  N   UNL     1      -1.306  42.834  -9.609  0.00  0.00    -0.302 NA
ATOM     21  C   UNL     1      -2.645  43.387 -10.104  0.00  0.00    +0.066 C 
ATOM     22  C   UNL     1      -3.715  43.393  -8.963  0.00  0.00    -0.064 C 
ATOM     23  N   UNL     1      -3.193  44.215  -7.783  0.00  0.00    +0.379 N 
ATOM     24  C   UNL     1      -4.219  44.271  -6.732  0.00  0.00    -0.096 C 
ATOM     25  H   UNL     1      -3.021  45.255  -8.145  0.00  0.00    -0.082 HD
ATOM     26  C   UNL     1      -1.859  43.673  -7.287  0.00  0.00    -0.064 C 
ATOM     27  C   UNL     1      -0.812  43.644  -8.435  0.00  0.00    +0.066 C 
ENDBRANCH  19  20
ENDBRANCH  18  19
ENDBRANCH  14  15
ENDBRANCH  12  13
TORSDOF 6
ENDMDL
MODEL 3
REMARK VINA RESULT:      -8.8      7.313     15.245
REMARK  Name = C:\Users\Docking\Desktop\test protocol\1iep_ligandH.pdb
REMARK  8 active torsions:
REMARK  status: ('A' for Active; 'I' for Inactive)
REMARK    1  A    between atoms: _5  and  _11
REMARK    2  A    between atoms: _19  and  _21
REMARK    3  A    between atoms: _22  and  _66
REMARK    4  A    between atoms: _27  and  _30
REMARK    5  A    between atoms: _32  and  _33
REMARK    6  A    between atoms: _38  and  _43
REMARK    7  A    between atoms: _43  and  _46
REMARK    8  A    between atoms: _53  and  _55
REMARK                            x       y       z     vdW  Elec       q    Type
REMARK                         _______ _______ _______ _____ _____    ______ ____
ROOT
ATOM     10  C   UNL     1     -10.820  38.895  -6.681  0.00  0.00    +0.038 A 
ATOM     11  C   UNL     1      -9.750  38.227  -7.329  0.00  0.00    +0.047 A 
ATOM     12  C   UNL     1      -9.881  36.847  -7.770  0.00  0.00    +0.035 A 
ATOM     32  C   UNL     1     -11.118  36.178  -7.536  0.00  0.00    +0.024 A 
ATOM     33  C   UNL     1     -12.216  36.841  -6.877  0.00  0.00    +0.007 A 
ATOM     34  C   UNL     1     -12.091  38.202  -6.439  0.00  0.00    -0.029 A 
ATOM     35  C   UNL     1     -13.299  38.861  -5.732  0.00  0.00    +0.045 C 
ENDROOT
BRANCH  10   9
ATOM      4  C   UNL     1      -9.702  42.206  -3.391  0.00  0.00    +0.077 A 
ATOM      5  C   UNL     1      -9.484  41.212  -2.379  0.00  0.00    +0.048 A 
ATOM      6  C   UNL     1      -9.678  39.861  -2.744  0.00  0.00    +0.116 A 
ATOM      7  N   UNL     1     -10.060  39.539  -4.029  0.00  0.00    -0.223 NA
ATOM      8  C   UNL     1     -10.263  40.522  -4.980  0.00  0.00    +0.220 A 
ATOM      9  N   UNL     1     -10.640  40.221  -6.280  0.00  0.00    -0.283 N 
ATOM     36  H   UNL     1     -10.787  40.975  -6.950  0.00  0.00    +0.155 HD
ATOM     37  N   UNL     1     -10.086  41.820  -4.656  0.00  0.00    -0.214 NA
BRANCH   4   3
ATOM      1  C   UNL     1     -10.381  45.933  -2.419  0.00  0.00    +0.020 A 
ATOM      2  C   UNL     1     -10.594  44.519  -2.623  0.00  0.00    +0.013 A 
ATOM      3  C   UNL     1      -9.534  43.675  -3.160  0.00  0.00    +0.019 A 
ATOM     38  C   UNL     1      -8.259  44.299  -3.482  0.00  0.00    +0.120 A 
ATOM     39  N   UNL     1      -8.083  45.663  -3.276  0.00  0.00    -0.263 NA
ATOM     40  C   UNL     1      -9.097  46.486  -2.761  0.00  0.00    +0.111 A 
ENDBRANCH   4   3
ENDBRANCH  10   9
BRANCH  12  13
ATOM     13  N   UNL     1      -8.827  36.114  -8.426  0.00  0.00    -0.281 N 
ATOM     14  C   UNL     1      -7.464  36.361  -8.382  0.00  0.00    +0.248 C 
ATOM     30  O   UNL     1      -6.961  37.383  -7.941  0.00  0.00    -0.270 OA
ATOM     31  H   UNL     1      -9.120  35.318  -8.991  0.00  0.00    +0.155 HD
BRANCH  14  15
ATOM     15  C   UNL     1      -6.526  35.328  -8.919  0.00  0.00    +0.037 A 
ATOM     16  C   UNL     1      -6.267  35.211 -10.356  0.00  0.00    +0.013 A 
ATOM     17  C   UNL     1      -5.371  34.195 -10.849  0.00  0.00    +0.005 A 
ATOM     18  C   UNL     1      -4.726  33.288  -9.902  0.00  0.00    -0.033 A 
ATOM     28  C   UNL     1      -4.997  33.430  -8.481  0.00  0.00    +0.005 A 
ATOM     29  C   UNL     1      -5.876  34.424  -7.994  0.00  0.00    +0.013 A 
BRANCH  18  19
ATOM     19  C   UNL     1      -3.772  32.161 -10.340  0.00  0.00    +0.119 C 
BRANCH  19  20
ATOM     20  N   UNL     1      -2.611  31.864  -9.450  0.00  0.00    -0.302 NA
ATOM     21  C   UNL     1      -1.272  32.065 -10.165  0.00  0.00    +0.066 C 
ATOM     22  C   UNL     1      -0.067  31.771  -9.212  0.00  0.00    -0.064 C 
ATOM     23  N   UNL     1      -0.184  30.345  -8.672  0.00  0.00    +0.379 N 
ATOM     24  C   UNL     1       0.977  30.045  -7.822  0.00  0.00    -0.096 C 
ATOM     25  H   UNL     1      -0.154  29.650  -9.544  0.00  0.00    -0.082 HD
ATOM     26  C   UNL     1      -1.514  30.135  -7.962  0.00  0.00    -0.064 C 
ATOM     27  C   UNL     1      -2.703  30.458  -8.908  0.00  0.00    +0.066 C 
ENDBRANCH  19  20
ENDBRANCH  18  19
ENDBRANCH  14  15
ENDBRANCH  12  13
TORSDOF 6
ENDMDL
MODEL 4
REMARK VINA RESULT:      -8.7      1.530      2.107
REMARK  Name = C:\Users\Docking\Desktop\test protocol\1iep_ligandH.pdb
REMARK  8 active torsions:
REMARK  status: ('A' for Active; 'I' for Inactive)
REMARK    1  A    between atoms: _5  and  _11
REMARK    2  A    between atoms: _19  and  _21
REMARK    3  A    between atoms: _22  and  _66
REMARK    4  A    between atoms: _27  and  _30
REMARK    5  A    between atoms: _32  and  _33
REMARK    6  A    between atoms: _38  and  _43
REMARK    7  A    between atoms: _43  and  _46
REMARK    8  A    between atoms: _53  and  _55
REMARK                            x       y       z     vdW  Elec       q    Type
REMARK                         _______ _______ _______ _____ _____    ______ ____
ROOT
ATOM     10  C   UNL     1       2.335  33.236 -10.745  0.00  0.00    +0.038 A 
ATOM     11  C   UNL     1       1.980  34.548 -10.337  0.00  0.00    +0.047 A 
ATOM     12  C   UNL     1       2.290  35.703 -11.164  0.00  0.00    +0.035 A 
ATOM     32  C   UNL     1       2.959  35.486 -12.404  0.00  0.00    +0.024 A 
ATOM     33  C   UNL     1       3.328  34.160 -12.834  0.00  0.00    +0.007 A 
ATOM     34  C   UNL     1       3.027  33.017 -12.020  0.00  0.00    -0.029 A 
ATOM     35  C   UNL     1       3.452  31.620 -12.529  0.00  0.00    +0.045 C 
ENDROOT
BRANCH  10   9
ATOM      4  C   UNL     1      -0.825  30.219  -8.759  0.00  0.00    +0.077 A 
ATOM      5  C   UNL     1      -1.932  30.851  -9.417  0.00  0.00    +0.048 A 
ATOM      6  C   UNL     1      -1.646  31.954 -10.253  0.00  0.00    +0.116 A 
ATOM      7  N   UNL     1      -0.347  32.384 -10.411  0.00  0.00    -0.223 NA
ATOM      8  C   UNL     1       0.698  31.753  -9.760  0.00  0.00    +0.220 A 
ATOM      9  N   UNL     1       2.013  32.163  -9.911  0.00  0.00    -0.283 N 
ATOM     36  H   UNL     1       2.754  31.676  -9.408  0.00  0.00    +0.155 HD
ATOM     37  N   UNL     1       0.451  30.698  -8.956  0.00  0.00    -0.214 NA
BRANCH   4   3
ATOM      1  C   UNL     1      -2.338  27.354  -6.567  0.00  0.00    +0.020 A 
ATOM      2  C   UNL     1      -2.258  28.495  -7.450  0.00  0.00    +0.013 A 
ATOM      3  C   UNL     1      -0.966  29.040  -7.847  0.00  0.00    +0.019 A 
ATOM     38  C   UNL     1       0.235  28.403  -7.328  0.00  0.00    +0.120 A 
ATOM     39  N   UNL     1       0.127  27.307  -6.478  0.00  0.00    -0.263 NA
ATOM     40  C   UNL     1      -1.111  26.774  -6.088  0.00  0.00    +0.111 A 
ENDBRANCH   4   3
ENDBRANCH  10   9
BRANCH  12  13
ATOM     13  N   UNL     1       1.962  37.059 -10.798  0.00  0.00    -0.281 N 
ATOM     14  C   UNL     1       2.758  38.187 -10.908  0.00  0.00    +0.248 C 
ATOM     30  O   UNL     1       3.957  38.166 -11.142  0.00  0.00    -0.270 OA
ATOM     31  H   UNL     1       1.030  37.204 -10.410  0.00  0.00    +0.155 HD
BRANCH  14  15
ATOM     15  C   UNL     1       2.135  39.532 -10.717  0.00  0.00    +0.037 A 
ATOM     16  C   UNL     1       2.319  40.285  -9.474  0.00  0.00    +0.013 A 
ATOM     17  C   UNL     1       1.692  41.572  -9.309  0.00  0.00    +0.005 A 
ATOM     18  C   UNL     1       0.877  42.116 -10.392  0.00  0.00    -0.033 A 
ATOM     28  C   UNL     1       0.715  41.351 -11.617  0.00  0.00    +0.005 A 
ATOM     29  C   UNL     1       1.327  40.088 -11.782  0.00  0.00    +0.013 A 
BRANCH  18  19
ATOM     19  C   UNL     1       0.154  43.473 -10.295  0.00  0.00    +0.119 C 
BRANCH  19  20
ATOM     20  N   UNL     1      -1.056  43.542  -9.423  0.00  0.00    -0.302 NA
ATOM     21  C   UNL     1      -0.691  43.719  -7.946  0.00  0.00    +0.066 C 
ATOM     22  C   UNL     1      -1.970  43.812  -7.051  0.00  0.00    -0.064 C 
ATOM     23  N   UNL     1      -2.821  42.557  -7.251  0.00  0.00    +0.379 N 
ATOM     24  C   UNL     1      -3.995  42.615  -6.367  0.00  0.00    -0.096 C 
ATOM     25  H   UNL     1      -2.208  41.679  -6.942  0.00  0.00    -0.082 HD
ATOM     26  C   UNL     1      -3.187  42.372  -8.717  0.00  0.00    -0.064 C 
ATOM     27  C   UNL     1      -1.910  42.310  -9.601  0.00  0.00    +0.066 C 
ENDBRANCH  19  20
ENDBRANCH  18  19
ENDBRANCH  14  15
ENDBRANCH  12  13
TORSDOF 6
ENDMDL
MODEL 5
REMARK VINA RESULT:      -8.5      6.262     11.319
REMARK  Name = C:\Users\Docking\Desktop\test protocol\1iep_ligandH.pdb
REMARK  8 active torsions:
REMARK  status: ('A' for Active; 'I' for Inactive)
REMARK    1  A    between atoms: _5  and  _11
REMARK    2  A    between atoms: _19  and  _21
REMARK    3  A    between atoms: _22  and  _66
REMARK    4  A    between atoms: _27  and  _30
REMARK    5  A    between atoms: _32  and  _33
REMARK    6  A    between atoms: _38  and  _43
REMARK    7  A    between atoms: _43  and  _46
REMARK    8  A    between atoms: _53  and  _55
REMARK                            x       y       z     vdW  Elec       q    Type
REMARK                         _______ _______ _______ _____ _____    ______ ____
ROOT
ATOM     10  C   UNL     1      -0.597  42.436  -7.796  0.00  0.00    +0.038 A 
ATOM     11  C   UNL     1      -1.894  42.141  -7.302  0.00  0.00    +0.047 A 
ATOM     12  C   UNL     1      -2.689  43.152  -6.623  0.00  0.00    +0.035 A 
ATOM     32  C   UNL     1      -2.133  44.456  -6.467  0.00  0.00    +0.024 A 
ATOM     33  C   UNL     1      -0.816  44.772  -6.962  0.00  0.00    +0.007 A 
ATOM     34  C   UNL     1      -0.026  43.778  -7.630  0.00  0.00    -0.029 A 
ATOM     35  C   UNL     1       1.381  44.172  -8.134  0.00  0.00    +0.045 C 
ENDROOT
BRANCH  10   9
ATOM      4  C   UNL     1       1.103  40.315 -11.752  0.00  0.00    +0.077 A 
ATOM      5  C   UNL     1       0.484  41.284 -12.609  0.00  0.00    +0.048 A 
ATOM      6  C   UNL     1      -0.269  42.308 -11.993  0.00  0.00    +0.116 A 
ATOM      7  N   UNL     1      -0.387  42.351 -10.620  0.00  0.00    -0.223 NA
ATOM      8  C   UNL     1       0.221  41.399  -9.823  0.00  0.00    +0.220 A 
ATOM      9  N   UNL     1       0.122  41.427  -8.440  0.00  0.00    -0.283 N 
ATOM     36  H   UNL     1       0.579  40.702  -7.887  0.00  0.00    +0.155 HD
ATOM     37  N   UNL     1       0.945  40.410 -10.387  0.00  0.00    -0.214 NA
BRANCH   4   3
ATOM      1  C   UNL     1       3.878  37.577 -12.074  0.00  0.00    +0.020 A 
ATOM      2  C   UNL     1       3.111  38.682 -11.547  0.00  0.00    +0.013 A 
ATOM      3  C   UNL     1       1.934  39.174 -12.252  0.00  0.00    +0.019 A 
ATOM     38  C   UNL     1       1.558  38.521 -13.497  0.00  0.00    +0.120 A 
ATOM     39  N   UNL     1       2.317  37.460 -13.981  0.00  0.00    -0.263 NA
ATOM     40  C   UNL     1       3.452  36.979 -13.312  0.00  0.00    +0.111 A 
ENDBRANCH   4   3
ENDBRANCH  10   9
BRANCH  12  13
ATOM     13  N   UNL     1      -4.007  42.909  -6.094  0.00  0.00    -0.281 N 
ATOM     14  C   UNL     1      -5.188  43.557  -6.418  0.00  0.00    +0.248 C 
ATOM     30  O   UNL     1      -5.254  44.594  -7.061  0.00  0.00    -0.270 OA
ATOM     31  H   UNL     1      -4.079  42.169  -5.395  0.00  0.00    +0.155 HD
BRANCH  14  15
ATOM     15  C   UNL     1      -6.483  42.976  -5.949  0.00  0.00    +0.037 A 
ATOM     16  C   UNL     1      -6.666  42.554  -4.558  0.00  0.00    +0.013 A 
ATOM     17  C   UNL     1      -7.920  41.981  -4.135  0.00  0.00    +0.005 A 
ATOM     18  C   UNL     1      -9.001  41.828  -5.106  0.00  0.00    -0.033 A 
ATOM     28  C   UNL     1      -8.794  42.260  -6.478  0.00  0.00    +0.005 A 
ATOM     29  C   UNL     1      -7.566  42.821  -6.896  0.00  0.00    +0.013 A 
BRANCH  18  19
ATOM     19  C   UNL     1     -10.364  41.208  -4.748  0.00  0.00    +0.119 C 
BRANCH  19  20
ATOM     20  N   UNL     1     -10.916  40.183  -5.684  0.00  0.00    -0.302 NA
ATOM     21  C   UNL     1     -12.173  39.511  -5.124  0.00  0.00    +0.066 C 
ATOM     22  C   UNL     1     -12.749  38.458  -6.126  0.00  0.00    -0.064 C 
ATOM     23  N   UNL     1     -11.674  37.417  -6.442  0.00  0.00    +0.379 N 
ATOM     24  C   UNL     1     -12.231  36.393  -7.338  0.00  0.00    -0.096 C 
ATOM     25  H   UNL     1     -11.397  36.915  -5.486  0.00  0.00    -0.082 HD
ATOM     26  C   UNL     1     -10.419  38.077  -6.997  0.00  0.00    -0.064 C 
ATOM     27  C   UNL     1      -9.872  39.143  -6.007  0.00  0.00    +0.066 C 
ENDBRANCH  19  20
ENDBRANCH  18  19
ENDBRANCH  14  15
ENDBRANCH  12  13
TORSDOF 6
ENDMDL
