MODEL 1
REMARK VINA RESULT:      -9.6      0.000      0.000
REMARK  Name = C:\Users\Docking\Desktop\test protocol\1iep_ligandH.pdb
REMARK  8 active torsions:
REMARK  status: ('A' for Active; 'I' for Inactive)
REMARK    1  A    between atoms: _5  and  _11
REMARK    2  A    between atoms: _19  and  _21
REMARK    3  A    between atoms: _22  and  _66
REMARK    4  A    between atoms: _27  and  _30
REMARK    5  A    between atoms: _32  and  _33
REMARK    6  A    between atoms: _38  and  _43
REMARK    7  A    between atoms: _43  and  _46
REMARK    8  A    between atoms: _53  and  _55
REMARK                            x       y       z     vdW  Elec       q    Type
REMARK                         _______ _______ _______ _____ _____    ______ ____
ROOT
ATOM     10  C   UNL     1       2.676  33.019 -10.638  0.00  0.00    +0.038 A 
ATOM     11  C   UNL     1       2.274  34.360 -10.404  0.00  0.00    +0.047 A 
ATOM     12  C   UNL     1       3.191  35.468 -10.621  0.00  0.00    +0.035 A 
ATOM     32  C   UNL     1       4.509  35.176 -11.078  0.00  0.00    +0.024 A 
ATOM     33  C   UNL     1       4.934  33.819 -11.320  0.00  0.00    +0.007 A 
ATOM     34  C   UNL     1       4.035  32.722 -11.106  0.00  0.00    -0.029 A 
ATOM     35  C   UNL     1       4.547  31.287 -11.375  0.00  0.00    +0.045 C 
ENDROOT
BRANCH  10   9
ATOM      4  C   UNL     1       0.491  29.843  -7.779  0.00  0.00    +0.077 A 
ATOM      5  C   UNL     1       1.269  30.242  -6.642  0.00  0.00    +0.048 A 
ATOM      6  C   UNL     1       2.225  31.264  -6.836  0.00  0.00    +0.116 A 
ATOM      7  N   UNL     1       2.384  31.836  -8.080  0.00  0.00    -0.223 NA
ATOM      8  C   UNL     1       1.618  31.426  -9.156  0.00  0.00    +0.220 A 
ATOM      9  N   UNL     1       1.755  31.994 -10.414  0.00  0.00    -0.283 N 
ATOM     36  H   UNL     1       1.176  31.658 -11.184  0.00  0.00    +0.155 HD
ATOM     37  N   UNL     1       0.699  30.452  -8.996  0.00  0.00    -0.214 NA
BRANCH   4   3
ATOM      1  C   UNL     1      -1.683  26.789  -6.662  0.00  0.00    +0.020 A 
ATOM      2  C   UNL     1      -0.646  27.795  -6.661  0.00  0.00    +0.013 A 
ATOM      3  C   UNL     1      -0.562  28.779  -7.732  0.00  0.00    +0.019 A 
ATOM     38  C   UNL     1      -1.551  28.718  -8.798  0.00  0.00    +0.120 A 
ATOM     39  N   UNL     1      -2.537  27.737  -8.774  0.00  0.00    -0.263 NA
ATOM     40  C   UNL     1      -2.627  26.783  -7.749  0.00  0.00    +0.111 A 
ENDBRANCH   4   3
ENDBRANCH  10   9
BRANCH  12  13
ATOM     13  N   UNL     1       2.842  36.849 -10.393  0.00  0.00    -0.281 N 
ATOM     14  C   UNL     1       2.143  37.700 -11.232  0.00  0.00    +0.248 C 
ATOM     30  O   UNL     1       1.895  37.464 -12.405  0.00  0.00    -0.270 OA
ATOM     31  H   UNL     1       3.148  37.246  -9.504  0.00  0.00    +0.155 HD
BRANCH  14  15
ATOM     15  C   UNL     1       1.663  39.010 -10.695  0.00  0.00    +0.037 A 
ATOM     16  C   UNL     1       1.253  40.094 -11.591  0.00  0.00    +0.013 A 
ATOM     17  C   UNL     1       0.810  41.353 -11.047  0.00  0.00    +0.005 A 
ATOM     18  C   UNL     1       0.772  41.534  -9.598  0.00  0.00    -0.033 A 
ATOM     28  C   UNL     1       1.179  40.439  -8.732  0.00  0.00    +0.005 A 
ATOM     29  C   UNL     1       1.615  39.204  -9.262  0.00  0.00    +0.013 A 
BRANCH  18  19
ATOM     19  C   UNL     1       0.333  42.850  -8.930  0.00  0.00    +0.119 C 
BRANCH  19  20
ATOM     20  N   UNL     1      -1.032  42.888  -8.324  0.00  0.00    -0.302 NA
ATOM     21  C   UNL     1      -1.024  42.436  -6.862  0.00  0.00    +0.066 C 
ATOM     22  C   UNL     1      -2.456  42.503  -6.237  0.00  0.00    -0.064 C 
ATOM     23  N   UNL     1      -3.411  41.641  -7.066  0.00  0.00    +0.379 N 
ATOM     24  C   UNL     1      -4.745  41.656  -6.448  0.00  0.00    -0.096 C 
ATOM     25  H   UNL     1      -3.034  40.593  -7.033  0.00  0.00    -0.082 HD
ATOM     26  C   UNL     1      -3.423  42.083  -8.522  0.00  0.00    -0.064 C 
ATOM     27  C   UNL     1      -1.990  42.040  -9.124  0.00  0.00    +0.066 C 
ENDBRANCH  19  20
ENDBRANCH  18  19
ENDBRANCH  14  15
ENDBRANCH  12  13
TORSDOF 6
ENDMDL
MODEL 2
REMARK VINA RESULT:      -8.9      4.991     10.835
REMARK  Name = C:\Users\Docking\Desktop\test protocol\1iep_ligandH.pdb
REMARK  8 active torsions:
REMARK  status: ('A' for Active; 'I' for Inactive)
REMARK    1  A    between atoms: _5  and  _11
REMARK    2  A    between atoms: _19  and  _21
REMARK    3  A    between atoms: _22  and  _66
REMARK    4  A    between atoms: _27  and  _30
REMARK    5  A    between atoms: _32  and  _33
REMARK    6  A    between atoms: _38  and  _43
REMARK    7  A    between atoms: _43  and  _46
REMARK    8  A    between atoms: _53  and  _55
REMARK                            x       y       z     vdW  Elec       q    Type
REMARK                         _______ _______ _______ _____ _____    ______ ____
ROOT
ATOM     10  C   UNL     1      -6.383  41.796  -5.443  0.00  0.00    +0.038 A 
ATOM     11  C   UNL     1      -5.296  41.362  -6.245  0.00  0.00    +0.047 A 
ATOM     12  C   UNL     1      -4.025  42.069  -6.234  0.00  0.00    +0.035 A 
ATOM     32  C   UNL     1      -3.894  43.212  -5.393  0.00  0.00    +0.024 A 
ATOM     33  C   UNL     1      -4.989  43.667  -4.572  0.00  0.00    +0.007 A 
ATOM     34  C   UNL     1      -6.246  42.976  -4.581  0.00  0.00    -0.029 A 
ATOM     35  C   UNL     1      -7.388  43.513  -3.686  0.00  0.00    +0.045 C 
ENDROOT
BRANCH  10   9
ATOM      4  C   UNL     1      -8.948  37.910  -6.610  0.00  0.00    +0.077 A 
ATOM      5  C   UNL     1      -7.810  37.262  -7.195  0.00  0.00    +0.048 A 
ATOM      6  C   UNL     1      -6.584  37.965  -7.181  0.00  0.00    +0.116 A 
ATOM      7  N   UNL     1      -6.514  39.223  -6.622  0.00  0.00    -0.223 NA
ATOM      8  C   UNL     1      -7.631  39.820  -6.068  0.00  0.00    +0.220 A 
ATOM      9  N   UNL     1      -7.582  41.081  -5.493  0.00  0.00    -0.283 N 
ATOM     36  H   UNL     1      -8.430  41.490  -5.101  0.00  0.00    +0.155 HD
ATOM     37  N   UNL     1      -8.813  39.170  -6.069  0.00  0.00    -0.214 NA
BRANCH   4   3
ATOM      1  C   UNL     1     -11.909  35.365  -6.838  0.00  0.00    +0.020 A 
ATOM      2  C   UNL     1     -10.574  35.911  -6.920  0.00  0.00    +0.013 A 
ATOM      3  C   UNL     1     -10.311  37.295  -6.545  0.00  0.00    +0.019 A 
ATOM     38  C   UNL     1     -11.429  38.105  -6.086  0.00  0.00    +0.120 A 
ATOM     39  N   UNL     1     -12.705  37.552  -6.019  0.00  0.00    -0.263 NA
ATOM     40  C   UNL     1     -12.970  36.222  -6.379  0.00  0.00    +0.111 A 
ENDBRANCH   4   3
ENDBRANCH  10   9
BRANCH  12  13
ATOM     13  N   UNL     1      -2.889  41.679  -7.032  0.00  0.00    -0.281 N 
ATOM     14  C   UNL     1      -2.648  41.963  -8.366  0.00  0.00    +0.248 C 
ATOM     30  O   UNL     1      -3.481  42.415  -9.138  0.00  0.00    -0.270 OA
ATOM     31  H   UNL     1      -2.175  41.128  -6.555  0.00  0.00    +0.155 HD
BRANCH  14  15
ATOM     15  C   UNL     1      -1.291  41.690  -8.929  0.00  0.00    +0.037 A 
ATOM     16  C   UNL     1      -0.918  42.148 -10.270  0.00  0.00    +0.013 A 
ATOM     17  C   UNL     1       0.392  41.857 -10.796  0.00  0.00    +0.005 A 
ATOM     18  C   UNL     1       1.341  41.105  -9.978  0.00  0.00    -0.033 A 
ATOM     28  C   UNL     1       0.947  40.667  -8.649  0.00  0.00    +0.005 A 
ATOM     29  C   UNL     1      -0.337  40.949  -8.131  0.00  0.00    +0.013 A 
BRANCH  18  19
ATOM     19  C   UNL     1       2.753  40.731 -10.466  0.00  0.00    +0.119 C 
BRANCH  19  20
ATOM     20  N   UNL     1       2.953  39.344 -10.983  0.00  0.00    -0.302 NA
ATOM     21  C   UNL     1       1.673  38.770 -11.597  0.00  0.00    +0.066 C 
ATOM     22  C   UNL     1       1.906  37.327 -12.153  0.00  0.00    -0.064 C 
ATOM     23  N   UNL     1       2.418  36.426 -11.028  0.00  0.00    +0.379 N 
ATOM     24  C   UNL     1       2.583  35.056 -11.533  0.00  0.00    -0.096 C 
ATOM     25  H   UNL     1       1.638  36.402 -10.232  0.00  0.00    -0.082 HD
ATOM     26  C   UNL     1       3.689  36.992 -10.410  0.00  0.00    -0.064 C 
ATOM     27  C   UNL     1       3.455  38.436  -9.887  0.00  0.00    +0.066 C 
ENDBRANCH  19  20
ENDBRANCH  18  19
ENDBRANCH  14  15
ENDBRANCH  12  13
TORSDOF 6
ENDMDL
MODEL 3
REMARK VINA RESULT:      -8.3      9.390     15.355
REMARK  Name = C:\Users\Docking\Desktop\test protocol\1iep_ligandH.pdb
REMARK  8 active torsions:
REMARK  status: ('A' for Active; 'I' for Inactive)
REMARK    1  A    between atoms: _5  and  _11
REMARK    2  A    between atoms: _19  and  _21
REMARK    3  A    between atoms: _22  and  _66
REMARK    4  A    between atoms: _27  and  _30
REMARK    5  A    between atoms: _32  and  _33
REMARK    6  A    between atoms: _38  and  _43
REMARK    7  A    between atoms: _43  and  _46
REMARK    8  A    between atoms: _53  and  _55
REMARK                            x       y       z     vdW  Elec       q    Type
REMARK                         _______ _______ _______ _____ _____    ______ ____
ROOT
ATOM     10  C   UNL     1      -8.275  37.558  -7.200  0.00  0.00    +0.038 A 
ATOM     11  C   UNL     1      -9.359  38.156  -6.508  0.00  0.00    +0.047 A 
ATOM     12  C   UNL     1     -10.641  37.478  -6.387  0.00  0.00    +0.035 A 
ATOM     32  C   UNL     1     -10.782  36.190  -6.980  0.00  0.00    +0.024 A 
ATOM     33  C   UNL     1      -9.691  35.567  -7.688  0.00  0.00    +0.007 A 
ATOM     34  C   UNL     1      -8.426  36.233  -7.813  0.00  0.00    -0.029 A 
ATOM     35  C   UNL     1      -7.293  35.521  -8.589  0.00  0.00    +0.045 C 
ENDROOT
BRANCH  10   9
ATOM      4  C   UNL     1      -5.431  41.255  -6.070  0.00  0.00    +0.077 A 
ATOM      5  C   UNL     1      -6.447  41.866  -5.261  0.00  0.00    +0.048 A 
ATOM      6  C   UNL     1      -7.690  41.200  -5.168  0.00  0.00    +0.116 A 
ATOM      7  N   UNL     1      -7.890  40.012  -5.837  0.00  0.00    -0.223 NA
ATOM      8  C   UNL     1      -6.890  39.451  -6.610  0.00  0.00    +0.220 A 
ATOM      9  N   UNL     1      -7.067  38.254  -7.286  0.00  0.00    -0.283 N 
ATOM     36  H   UNL     1      -6.307  37.877  -7.851  0.00  0.00    +0.155 HD
ATOM     37  N   UNL     1      -5.695  40.068  -6.716  0.00  0.00    -0.214 NA
BRANCH   4   3
ATOM      1  C   UNL     1      -2.048  42.383  -7.677  0.00  0.00    +0.020 A 
ATOM      2  C   UNL     1      -3.367  41.808  -7.543  0.00  0.00    +0.013 A 
ATOM      3  C   UNL     1      -4.065  41.836  -6.264  0.00  0.00    +0.019 A 
ATOM     38  C   UNL     1      -3.396  42.459  -5.132  0.00  0.00    +0.120 A 
ATOM     39  N   UNL     1      -2.126  43.004  -5.290  0.00  0.00    -0.263 NA
ATOM     40  C   UNL     1      -1.443  42.981  -6.516  0.00  0.00    +0.111 A 
ENDBRANCH   4   3
ENDBRANCH  10   9
BRANCH  12  13
ATOM     13  N   UNL     1     -11.779  38.039  -5.703  0.00  0.00    -0.281 N 
ATOM     14  C   UNL     1     -11.900  38.343  -4.357  0.00  0.00    +0.248 C 
ATOM     30  O   UNL     1     -11.116  37.977  -3.493  0.00  0.00    -0.270 OA
ATOM     31  H   UNL     1     -12.596  38.236  -6.282  0.00  0.00    +0.155 HD
BRANCH  14  15
ATOM     15  C   UNL     1     -13.067  39.158  -3.902  0.00  0.00    +0.037 A 
ATOM     16  C   UNL     1     -14.443  38.710  -4.132  0.00  0.00    +0.013 A 
ATOM     17  C   UNL     1     -15.551  39.524  -3.699  0.00  0.00    +0.005 A 
ATOM     18  C   UNL     1     -15.287  40.795  -3.029  0.00  0.00    -0.033 A 
ATOM     28  C   UNL     1     -13.912  41.213  -2.809  0.00  0.00    +0.005 A 
ATOM     29  C   UNL     1     -12.824  40.418  -3.233  0.00  0.00    +0.013 A 
BRANCH  18  19
ATOM     19  C   UNL     1     -16.407  41.737  -2.552  0.00  0.00    +0.119 C 
BRANCH  19  20
ATOM     20  N   UNL     1     -17.291  41.247  -1.452  0.00  0.00    -0.302 NA
ATOM     21  C   UNL     1     -16.577  40.237  -0.549  0.00  0.00    +0.066 C 
ATOM     22  C   UNL     1     -17.509  39.752   0.610  0.00  0.00    -0.064 C 
ATOM     23  N   UNL     1     -18.781  39.144   0.017  0.00  0.00    +0.379 N 
ATOM     24  C   UNL     1     -19.633  38.634   1.101  0.00  0.00    -0.096 C 
ATOM     25  H   UNL     1     -18.479  38.275  -0.613  0.00  0.00    -0.082 HD
ATOM     26  C   UNL     1     -19.495  40.141  -0.885  0.00  0.00    -0.064 C 
ATOM     27  C   UNL     1     -18.552  40.639  -2.015  0.00  0.00    +0.066 C 
ENDBRANCH  19  20
ENDBRANCH  18  19
ENDBRANCH  14  15
ENDBRANCH  12  13
TORSDOF 6
ENDMDL
MODEL 4
REMARK VINA RESULT:      -8.2     12.377     18.936
REMARK  Name = C:\Users\Docking\Desktop\test protocol\1iep_ligandH.pdb
REMARK  8 active torsions:
REMARK  status: ('A' for Active; 'I' for Inactive)
REMARK    1  A    between atoms: _5  and  _11
REMARK    2  A    between atoms: _19  and  _21
REMARK    3  A    between atoms: _22  and  _66
REMARK    4  A    between atoms: _27  and  _30
REMARK    5  A    between atoms: _32  and  _33
REMARK    6  A    between atoms: _38  and  _43
REMARK    7  A    between atoms: _43  and  _46
REMARK    8  A    between atoms: _53  and  _55
REMARK                            x       y       z     vdW  Elec       q    Type
REMARK                         _______ _______ _______ _____ _____    ______ ____
ROOT
ATOM     10  C   UNL     1     -15.706  40.457  -2.120  0.00  0.00    +0.038 A 
ATOM     11  C   UNL     1     -14.823  39.921  -3.091  0.00  0.00    +0.047 A 
ATOM     12  C   UNL     1     -13.445  40.375  -3.188  0.00  0.00    +0.035 A 
ATOM     32  C   UNL     1     -12.998  41.376  -2.276  0.00  0.00    +0.024 A 
ATOM     33  C   UNL     1     -13.883  41.933  -1.283  0.00  0.00    +0.007 A 
ATOM     34  C   UNL     1     -15.244  41.490  -1.185  0.00  0.00    -0.029 A 
ATOM     35  C   UNL     1     -16.150  42.127  -0.105  0.00  0.00    +0.045 C 
ENDROOT
BRANCH  10   9
ATOM      4  C   UNL     1     -20.338  40.692  -3.359  0.00  0.00    +0.077 A 
ATOM      5  C   UNL     1     -20.128  41.873  -4.146  0.00  0.00    +0.048 A 
ATOM      6  C   UNL     1     -18.815  42.392  -4.201  0.00  0.00    +0.116 A 
ATOM      7  N   UNL     1     -17.795  41.769  -3.515  0.00  0.00    -0.223 NA
ATOM      8  C   UNL     1     -18.032  40.632  -2.763  0.00  0.00    +0.220 A 
ATOM      9  N   UNL     1     -17.020  39.984  -2.072  0.00  0.00    -0.283 N 
ATOM     36  H   UNL     1     -17.237  39.153  -1.523  0.00  0.00    +0.155 HD
ATOM     37  N   UNL     1     -19.277  40.118  -2.694  0.00  0.00    -0.214 NA
BRANCH   4   3
ATOM      1  C   UNL     1     -24.132  39.806  -3.699  0.00  0.00    +0.020 A 
ATOM      2  C   UNL     1     -22.872  40.490  -3.880  0.00  0.00    +0.013 A 
ATOM      3  C   UNL     1     -21.668  40.023  -3.206  0.00  0.00    +0.019 A 
ATOM     38  C   UNL     1     -21.773  38.851  -2.349  0.00  0.00    +0.120 A 
ATOM     39  N   UNL     1     -23.000  38.215  -2.192  0.00  0.00    -0.263 NA
ATOM     40  C   UNL     1     -24.166  38.656  -2.834  0.00  0.00    +0.111 A 
ENDBRANCH   4   3
ENDBRANCH  10   9
BRANCH  12  13
ATOM     13  N   UNL     1     -12.504  39.874  -4.159  0.00  0.00    -0.281 N 
ATOM     14  C   UNL     1     -11.489  38.952  -3.963  0.00  0.00    +0.248 C 
ATOM     30  O   UNL     1     -11.096  38.578  -2.868  0.00  0.00    -0.270 OA
ATOM     31  H   UNL     1     -12.599  40.242  -5.105  0.00  0.00    +0.155 HD
BRANCH  14  15
ATOM     15  C   UNL     1     -10.799  38.374  -5.157  0.00  0.00    +0.037 A 
ATOM     16  C   UNL     1     -11.342  37.208  -5.858  0.00  0.00    +0.013 A 
ATOM     17  C   UNL     1     -10.648  36.660  -6.996  0.00  0.00    +0.005 A 
ATOM     18  C   UNL     1      -9.402  37.280  -7.441  0.00  0.00    -0.033 A 
ATOM     28  C   UNL     1      -8.888  38.439  -6.731  0.00  0.00    +0.005 A 
ATOM     29  C   UNL     1      -9.565  38.978  -5.614  0.00  0.00    +0.013 A 
BRANCH  18  19
ATOM     19  C   UNL     1      -8.583  36.749  -8.633  0.00  0.00    +0.119 C 
BRANCH  19  20
ATOM     20  N   UNL     1      -7.889  35.439  -8.456  0.00  0.00    -0.302 NA
ATOM     21  C   UNL     1      -7.183  35.341  -7.100  0.00  0.00    +0.066 C 
ATOM     22  C   UNL     1      -6.481  33.955  -6.923  0.00  0.00    -0.064 C 
ATOM     23  N   UNL     1      -5.489  33.739  -8.066  0.00  0.00    +0.379 N 
ATOM     24  C   UNL     1      -4.785  32.464  -7.871  0.00  0.00    -0.096 C 
ATOM     25  H   UNL     1      -4.731  34.555  -8.015  0.00  0.00    -0.082 HD
ATOM     26  C   UNL     1      -6.181  33.838  -9.418  0.00  0.00    -0.064 C 
ATOM     27  C   UNL     1      -6.900  35.207  -9.572  0.00  0.00    +0.066 C 
ENDBRANCH  19  20
ENDBRANCH  18  19
ENDBRANCH  14  15
ENDBRANCH  12  13
TORSDOF 6
ENDMDL
MODEL 5
REMARK VINA RESULT:      -8.2      7.322     12.081
REMARK  Name = C:\Users\Docking\Desktop\test protocol\1iep_ligandH.pdb
REMARK  8 active torsions:
REMARK  status: ('A' for Active; 'I' for Inactive)
REMARK    1  A    between atoms: _5  and  _11
REMARK    2  A    between atoms: _19  and  _21
REMARK    3  A    between atoms: _22  and  _66
REMARK    4  A    between atoms: _27  and  _30
REMARK    5  A    between atoms: _32  and  _33
REMARK    6  A    between atoms: _38  and  _43
REMARK    7  A    between atoms: _43  and  _46
REMARK    8  A    between atoms: _53  and  _55
REMARK                            x       y       z     vdW  Elec       q    Type
REMARK                         _______ _______ _______ _____ _____    ______ ____
ROOT
ATOM     10  C   UNL     1      -0.709  43.031  -5.663  0.00  0.00    +0.038 A 
ATOM     11  C   UNL     1      -1.970  42.382  -5.611  0.00  0.00    +0.047 A 
ATOM     12  C   UNL     1      -3.126  43.031  -5.013  0.00  0.00    +0.035 A 
ATOM     32  C   UNL     1      -2.964  44.343  -4.480  0.00  0.00    +0.024 A 
ATOM     33  C   UNL     1      -1.690  45.017  -4.523  0.00  0.00    +0.007 A 
ATOM     34  C   UNL     1      -0.545  44.381  -5.110  0.00  0.00    -0.029 A 
ATOM     35  C   UNL     1       0.798  45.148  -5.123  0.00  0.00    +0.045 C 
ENDROOT
BRANCH  10   9
ATOM      4  C   UNL     1       1.659  41.355  -9.486  0.00  0.00    +0.077 A 
ATOM      5  C   UNL     1       0.654  41.831 -10.392  0.00  0.00    +0.048 A 
ATOM      6  C   UNL     1      -0.461  42.495  -9.833  0.00  0.00    +0.116 A 
ATOM      7  N   UNL     1      -0.552  42.666  -8.468  0.00  0.00    -0.223 NA
ATOM      8  C   UNL     1       0.435  42.194  -7.623  0.00  0.00    +0.220 A 
ATOM      9  N   UNL     1       0.367  42.361  -6.248  0.00  0.00    -0.283 N 
ATOM     36  H   UNL     1       1.112  41.991  -5.658  0.00  0.00    +0.155 HD
ATOM     37  N   UNL     1       1.508  41.554  -8.132  0.00  0.00    -0.214 NA
BRANCH   4   3
ATOM      1  C   UNL     1       5.400  40.317  -9.969  0.00  0.00    +0.020 A 
ATOM      2  C   UNL     1       4.236  41.045  -9.518  0.00  0.00    +0.013 A 
ATOM      3  C   UNL     1       2.898  40.637  -9.924  0.00  0.00    +0.019 A 
ATOM     38  C   UNL     1       2.769  39.477 -10.793  0.00  0.00    +0.120 A 
ATOM     39  N   UNL     1       3.908  38.795 -11.213  0.00  0.00    -0.263 NA
ATOM     40  C   UNL     1       5.201  39.180 -10.830  0.00  0.00    +0.111 A 
ENDBRANCH   4   3
ENDBRANCH  10   9
BRANCH  12  13
ATOM     13  N   UNL     1      -4.428  42.419  -4.924  0.00  0.00    -0.281 N 
ATOM     14  C   UNL     1      -5.137  42.087  -3.782  0.00  0.00    +0.248 C 
ATOM     30  O   UNL     1      -4.665  42.072  -2.655  0.00  0.00    -0.270 OA
ATOM     31  H   UNL     1      -4.883  42.204  -5.812  0.00  0.00    +0.155 HD
BRANCH  14  15
ATOM     15  C   UNL     1      -6.576  41.703  -3.911  0.00  0.00    +0.037 A 
ATOM     16  C   UNL     1      -7.390  41.399  -2.731  0.00  0.00    +0.013 A 
ATOM     17  C   UNL     1      -8.771  41.015  -2.885  0.00  0.00    +0.005 A 
ATOM     18  C   UNL     1      -9.347  40.933  -4.225  0.00  0.00    -0.033 A 
ATOM     28  C   UNL     1      -8.518  41.245  -5.377  0.00  0.00    +0.005 A 
ATOM     29  C   UNL     1      -7.164  41.622  -5.231  0.00  0.00    +0.013 A 
BRANCH  18  19
ATOM     19  C   UNL     1     -10.805  40.511  -4.484  0.00  0.00    +0.119 C 
BRANCH  19  20
ATOM     20  N   UNL     1     -11.058  39.067  -4.768  0.00  0.00    -0.302 NA
ATOM     21  C   UNL     1     -10.607  38.670  -6.177  0.00  0.00    +0.066 C 
ATOM     22  C   UNL     1     -10.859  37.151  -6.449  0.00  0.00    -0.064 C 
ATOM     23  N   UNL     1     -12.343  36.839  -6.247  0.00  0.00    +0.379 N 
ATOM     24  C   UNL     1     -12.593  35.424  -6.559  0.00  0.00    -0.096 C 
ATOM     25  H   UNL     1     -12.919  37.454  -6.977  0.00  0.00    -0.082 HD
ATOM     26  C   UNL     1     -12.800  37.233  -4.850  0.00  0.00    -0.064 C 
ATOM     27  C   UNL     1     -12.519  38.737  -4.579  0.00  0.00    +0.066 C 
ENDBRANCH  19  20
ENDBRANCH  18  19
ENDBRANCH  14  15
ENDBRANCH  12  13
TORSDOF 6
ENDMDL
