MODEL 1
REMARK VINA RESULT:     -10.3      0.000      0.000
REMARK  Name = C:\Users\Docking\Desktop\test protocol\1iep_ligandH.pdb
REMARK  8 active torsions:
REMARK  status: ('A' for Active; 'I' for Inactive)
REMARK    1  A    between atoms: _5  and  _11
REMARK    2  A    between atoms: _19  and  _21
REMARK    3  A    between atoms: _22  and  _66
REMARK    4  A    between atoms: _27  and  _30
REMARK    5  A    between atoms: _32  and  _33
REMARK    6  A    between atoms: _38  and  _43
REMARK    7  A    between atoms: _43  and  _46
REMARK    8  A    between atoms: _53  and  _55
REMARK                            x       y       z     vdW  Elec       q    Type
REMARK                         _______ _______ _______ _____ _____    ______ ____
ROOT
ATOM     10  C   UNL     1      51.293  40.010  27.707  0.00  0.00    +0.038 A 
ATOM     11  C   UNL     1      51.549  40.396  29.048  0.00  0.00    +0.047 A 
ATOM     12  C   UNL     1      51.500  41.793  29.451  0.00  0.00    +0.035 A 
ATOM     32  C   UNL     1      51.186  42.771  28.464  0.00  0.00    +0.024 A 
ATOM     33  C   UNL     1      50.925  42.397  27.096  0.00  0.00    +0.007 A 
ATOM     34  C   UNL     1      50.973  41.021  26.691  0.00  0.00    -0.029 A 
ATOM     35  C   UNL     1      50.691  40.678  25.210  0.00  0.00    +0.045 C 
ENDROOT
BRANCH  10   9
ATOM      4  C   UNL     1      53.735  35.986  26.771  0.00  0.00    +0.077 A 
ATOM      5  C   UNL     1      54.999  36.645  26.931  0.00  0.00    +0.048 A 
ATOM      6  C   UNL     1      54.977  38.022  27.247  0.00  0.00    +0.116 A 
ATOM      7  N   UNL     1      53.775  38.680  27.390  0.00  0.00    -0.223 NA
ATOM      8  C   UNL     1      52.574  38.015  27.227  0.00  0.00    +0.220 A 
ATOM      9  N   UNL     1      51.353  38.655  27.375  0.00  0.00    -0.283 N 
ATOM     36  H   UNL     1      50.489  38.131  27.239  0.00  0.00    +0.155 HD
ATOM     37  N   UNL     1      52.568  36.700  26.924  0.00  0.00    -0.214 NA
BRANCH   4   3
ATOM      1  C   UNL     1      53.085  32.641  24.850  0.00  0.00    +0.020 A 
ATOM      2  C   UNL     1      53.207  34.056  25.118  0.00  0.00    +0.013 A 
ATOM      3  C   UNL     1      53.594  34.533  26.439  0.00  0.00    +0.019 A 
ATOM     38  C   UNL     1      53.853  33.545  27.476  0.00  0.00    +0.120 A 
ATOM     39  N   UNL     1      53.726  32.189  27.189  0.00  0.00    -0.263 NA
ATOM     40  C   UNL     1      53.353  31.718  25.921  0.00  0.00    +0.111 A 
ENDBRANCH   4   3
ENDBRANCH  10   9
BRANCH  12  13
ATOM     13  N   UNL     1      51.758  42.244  30.796  0.00  0.00    -0.281 N 
ATOM     14  C   UNL     1      50.836  42.575  31.775  0.00  0.00    +0.248 C 
ATOM     30  O   UNL     1      49.641  42.736  31.573  0.00  0.00    -0.270 OA
ATOM     31  H   UNL     1      52.740  42.331  31.058  0.00  0.00    +0.155 HD
BRANCH  14  15
ATOM     15  C   UNL     1      51.311  42.767  33.179  0.00  0.00    +0.037 A 
ATOM     16  C   UNL     1      50.952  43.963  33.946  0.00  0.00    +0.013 A 
ATOM     17  C   UNL     1      51.438  44.132  35.293  0.00  0.00    +0.005 A 
ATOM     18  C   UNL     1      52.287  43.099  35.882  0.00  0.00    -0.033 A 
ATOM     28  C   UNL     1      52.623  41.920  35.101  0.00  0.00    +0.005 A 
ATOM     29  C   UNL     1      52.150  41.752  33.781  0.00  0.00    +0.013 A 
BRANCH  18  19
ATOM     19  C   UNL     1      52.868  43.206  37.305  0.00  0.00    +0.119 C 
BRANCH  19  20
ATOM     20  N   UNL     1      52.447  42.169  38.294  0.00  0.00    -0.302 NA
ATOM     21  C   UNL     1      51.116  42.521  38.964  0.00  0.00    +0.066 C 
ATOM     22  C   UNL     1      50.680  41.415  39.979  0.00  0.00    -0.064 C 
ATOM     23  N   UNL     1      51.779  41.225  41.026  0.00  0.00    +0.379 N 
ATOM     24  C   UNL     1      51.347  40.227  42.015  0.00  0.00    -0.096 C 
ATOM     25  H   UNL     1      51.909  42.196  41.559  0.00  0.00    -0.082 HD
ATOM     26  C   UNL     1      53.107  40.878  40.368  0.00  0.00    -0.064 C 
ATOM     27  C   UNL     1      53.517  41.969  39.340  0.00  0.00    +0.066 C 
ENDBRANCH  19  20
ENDBRANCH  18  19
ENDBRANCH  14  15
ENDBRANCH  12  13
TORSDOF 6
ENDMDL
MODEL 2
REMARK VINA RESULT:      -9.9      2.029      2.318
REMARK  Name = C:\Users\Docking\Desktop\test protocol\1iep_ligandH.pdb
REMARK  8 active torsions:
REMARK  status: ('A' for Active; 'I' for Inactive)
REMARK    1  A    between atoms: _5  and  _11
REMARK    2  A    between atoms: _19  and  _21
REMARK    3  A    between atoms: _22  and  _66
REMARK    4  A    between atoms: _27  and  _30
REMARK    5  A    between atoms: _32  and  _33
REMARK    6  A    between atoms: _38  and  _43
REMARK    7  A    between atoms: _43  and  _46
REMARK    8  A    between atoms: _53  and  _55
REMARK                            x       y       z     vdW  Elec       q    Type
REMARK                         _______ _______ _______ _____ _____    ______ ____
ROOT
ATOM     10  C   UNL     1      51.647  39.817  27.644  0.00  0.00    +0.038 A 
ATOM     11  C   UNL     1      52.040  39.903  29.004  0.00  0.00    +0.047 A 
ATOM     12  C   UNL     1      51.955  41.159  29.734  0.00  0.00    +0.035 A 
ATOM     32  C   UNL     1      51.463  42.307  29.047  0.00  0.00    +0.024 A 
ATOM     33  C   UNL     1      51.061  42.237  27.664  0.00  0.00    +0.007 A 
ATOM     34  C   UNL     1      51.144  41.002  26.939  0.00  0.00    -0.029 A 
ATOM     35  C   UNL     1      50.705  40.987  25.456  0.00  0.00    +0.045 C 
ENDROOT
BRANCH  10   9
ATOM      4  C   UNL     1      53.207  35.285  27.377  0.00  0.00    +0.077 A 
ATOM      5  C   UNL     1      53.899  35.387  28.630  0.00  0.00    +0.048 A 
ATOM      6  C   UNL     1      53.835  36.625  29.307  0.00  0.00    +0.116 A 
ATOM      7  N   UNL     1      53.128  37.676  28.764  0.00  0.00    -0.223 NA
ATOM      8  C   UNL     1      52.473  37.545  27.553  0.00  0.00    +0.220 A 
ATOM      9  N   UNL     1      51.750  38.586  26.992  0.00  0.00    -0.283 N 
ATOM     36  H   UNL     1      51.287  38.451  26.094  0.00  0.00    +0.155 HD
ATOM     37  N   UNL     1      52.521  36.373  26.886  0.00  0.00    -0.214 NA
BRANCH   4   3
ATOM      1  C   UNL     1      52.858  32.820  24.360  0.00  0.00    +0.020 A 
ATOM      2  C   UNL     1      52.871  34.050  25.119  0.00  0.00    +0.013 A 
ATOM      3  C   UNL     1      53.179  34.042  26.544  0.00  0.00    +0.019 A 
ATOM     38  C   UNL     1      53.471  32.763  27.175  0.00  0.00    +0.120 A 
ATOM     39  N   UNL     1      53.449  31.596  26.419  0.00  0.00    -0.263 NA
ATOM     40  C   UNL     1      53.153  31.591  25.047  0.00  0.00    +0.111 A 
ENDBRANCH   4   3
ENDBRANCH  10   9
BRANCH  12  13
ATOM     13  N   UNL     1      52.347  41.309  31.113  0.00  0.00    -0.281 N 
ATOM     14  C   UNL     1      51.601  41.826  32.159  0.00  0.00    +0.248 C 
ATOM     30  O   UNL     1      50.552  42.438  32.023  0.00  0.00    -0.270 OA
ATOM     31  H   UNL     1      53.290  40.996  31.347  0.00  0.00    +0.155 HD
BRANCH  14  15
ATOM     15  C   UNL     1      52.098  41.649  33.557  0.00  0.00    +0.037 A 
ATOM     16  C   UNL     1      52.545  42.794  34.355  0.00  0.00    +0.013 A 
ATOM     17  C   UNL     1      53.036  42.594  35.695  0.00  0.00    +0.005 A 
ATOM     18  C   UNL     1      53.081  41.242  36.247  0.00  0.00    -0.033 A 
ATOM     28  C   UNL     1      52.627  40.125  35.436  0.00  0.00    +0.005 A 
ATOM     29  C   UNL     1      52.146  40.317  34.121  0.00  0.00    +0.013 A 
BRANCH  18  19
ATOM     19  C   UNL     1      53.610  40.933  37.660  0.00  0.00    +0.119 C 
BRANCH  19  20
ATOM     20  N   UNL     1      53.748  39.495  38.039  0.00  0.00    -0.302 NA
ATOM     21  C   UNL     1      53.299  39.235  39.480  0.00  0.00    +0.066 C 
ATOM     22  C   UNL     1      53.429  37.722  39.852  0.00  0.00    -0.064 C 
ATOM     23  N   UNL     1      54.877  37.272  39.647  0.00  0.00    +0.379 N 
ATOM     24  C   UNL     1      55.015  35.865  40.051  0.00  0.00    -0.096 C 
ATOM     25  H   UNL     1      55.520  37.883  40.322  0.00  0.00    -0.082 HD
ATOM     26  C   UNL     1      55.332  37.530  38.217  0.00  0.00    -0.064 C 
ATOM     27  C   UNL     1      55.171  39.031  37.848  0.00  0.00    +0.066 C 
ENDBRANCH  19  20
ENDBRANCH  18  19
ENDBRANCH  14  15
ENDBRANCH  12  13
TORSDOF 6
ENDMDL
MODEL 3
REMARK VINA RESULT:      -8.7     12.919     15.823
REMARK  Name = C:\Users\Docking\Desktop\test protocol\1iep_ligandH.pdb
REMARK  8 active torsions:
REMARK  status: ('A' for Active; 'I' for Inactive)
REMARK    1  A    between atoms: _5  and  _11
REMARK    2  A    between atoms: _19  and  _21
REMARK    3  A    between atoms: _22  and  _66
REMARK    4  A    between atoms: _27  and  _30
REMARK    5  A    between atoms: _32  and  _33
REMARK    6  A    between atoms: _38  and  _43
REMARK    7  A    between atoms: _43  and  _46
REMARK    8  A    between atoms: _53  and  _55
REMARK                            x       y       z     vdW  Elec       q    Type
REMARK                         _______ _______ _______ _____ _____    ______ ____
ROOT
ATOM     10  C   UNL     1      49.240  26.578  37.419  0.00  0.00    +0.038 A 
ATOM     11  C   UNL     1      48.358  27.455  38.100  0.00  0.00    +0.047 A 
ATOM     12  C   UNL     1      48.779  28.790  38.493  0.00  0.00    +0.035 A 
ATOM     32  C   UNL     1      50.106  29.202  38.173  0.00  0.00    +0.024 A 
ATOM     33  C   UNL     1      51.016  28.323  37.481  0.00  0.00    +0.007 A 
ATOM     34  C   UNL     1      50.607  27.003  37.094  0.00  0.00    -0.029 A 
ATOM     35  C   UNL     1      51.627  26.102  36.360  0.00  0.00    +0.045 C 
ENDROOT
BRANCH  10   9
ATOM      4  C   UNL     1      48.401  21.956  38.406  0.00  0.00    +0.077 A 
ATOM      5  C   UNL     1      48.943  22.079  39.729  0.00  0.00    +0.048 A 
ATOM      6  C   UNL     1      49.434  23.347  40.114  0.00  0.00    +0.116 A 
ATOM      7  N   UNL     1      49.381  24.406  39.233  0.00  0.00    -0.223 NA
ATOM      8  C   UNL     1      48.853  24.253  37.964  0.00  0.00    +0.220 A 
ATOM      9  N   UNL     1      48.783  25.306  37.065  0.00  0.00    -0.283 N 
ATOM     36  H   UNL     1      48.393  25.151  36.136  0.00  0.00    +0.155 HD
ATOM     37  N   UNL     1      48.379  23.052  37.573  0.00  0.00    -0.214 NA
BRANCH   4   3
ATOM      1  C   UNL     1      45.932  19.246  37.042  0.00  0.00    +0.020 A 
ATOM      2  C   UNL     1      46.422  20.497  37.575  0.00  0.00    +0.013 A 
ATOM      3  C   UNL     1      47.840  20.683  37.855  0.00  0.00    +0.019 A 
ATOM     38  C   UNL     1      48.743  19.575  37.581  0.00  0.00    +0.120 A 
ATOM     39  N   UNL     1      48.243  18.382  37.069  0.00  0.00    -0.263 NA
ATOM     40  C   UNL     1      46.879  18.191  36.798  0.00  0.00    +0.111 A 
ENDBRANCH   4   3
ENDBRANCH  10   9
BRANCH  12  13
ATOM     13  N   UNL     1      47.930  29.722  39.194  0.00  0.00    -0.281 N 
ATOM     14  C   UNL     1      47.495  29.655  40.507  0.00  0.00    +0.248 C 
ATOM     30  O   UNL     1      47.597  28.667  41.220  0.00  0.00    -0.270 OA
ATOM     31  H   UNL     1      47.611  30.528  38.656  0.00  0.00    +0.155 HD
BRANCH  14  15
ATOM     15  C   UNL     1      46.838  30.854  41.112  0.00  0.00    +0.037 A 
ATOM     16  C   UNL     1      46.685  32.099  40.356  0.00  0.00    +0.013 A 
ATOM     17  C   UNL     1      46.063  33.246  40.969  0.00  0.00    +0.005 A 
ATOM     18  C   UNL     1      45.589  33.152  42.347  0.00  0.00    -0.033 A 
ATOM     28  C   UNL     1      45.749  31.902  43.073  0.00  0.00    +0.005 A 
ATOM     29  C   UNL     1      46.359  30.777  42.476  0.00  0.00    +0.013 A 
BRANCH  18  19
ATOM     19  C   UNL     1      44.933  34.332  43.089  0.00  0.00    +0.119 C 
BRANCH  19  20
ATOM     20  N   UNL     1      45.832  35.423  43.569  0.00  0.00    -0.302 NA
ATOM     21  C   UNL     1      46.468  36.195  42.409  0.00  0.00    +0.066 C 
ATOM     22  C   UNL     1      47.389  37.347  42.929  0.00  0.00    -0.064 C 
ATOM     23  N   UNL     1      48.465  36.762  43.845  0.00  0.00    +0.379 N 
ATOM     24  C   UNL     1      49.367  37.835  44.290  0.00  0.00    -0.096 C 
ATOM     25  H   UNL     1      49.066  36.042  43.243  0.00  0.00    -0.082 HD
ATOM     26  C   UNL     1      47.841  35.990  45.000  0.00  0.00    -0.064 C 
ATOM     27  C   UNL     1      46.906  34.867  44.472  0.00  0.00    +0.066 C 
ENDBRANCH  19  20
ENDBRANCH  18  19
ENDBRANCH  14  15
ENDBRANCH  12  13
TORSDOF 6
ENDMDL
MODEL 4
REMARK VINA RESULT:      -8.5     15.180     20.114
REMARK  Name = C:\Users\Docking\Desktop\test protocol\1iep_ligandH.pdb
REMARK  8 active torsions:
REMARK  status: ('A' for Active; 'I' for Inactive)
REMARK    1  A    between atoms: _5  and  _11
REMARK    2  A    between atoms: _19  and  _21
REMARK    3  A    between atoms: _22  and  _66
REMARK    4  A    between atoms: _27  and  _30
REMARK    5  A    between atoms: _32  and  _33
REMARK    6  A    between atoms: _38  and  _43
REMARK    7  A    between atoms: _43  and  _46
REMARK    8  A    between atoms: _53  and  _55
REMARK                            x       y       z     vdW  Elec       q    Type
REMARK                         _______ _______ _______ _____ _____    ______ ____
ROOT
ATOM     10  C   UNL     1      53.673  24.900  34.225  0.00  0.00    +0.038 A 
ATOM     11  C   UNL     1      54.262  24.589  32.973  0.00  0.00    +0.047 A 
ATOM     12  C   UNL     1      55.447  25.289  32.503  0.00  0.00    +0.035 A 
ATOM     32  C   UNL     1      56.009  26.300  33.336  0.00  0.00    +0.024 A 
ATOM     33  C   UNL     1      55.423  26.630  34.611  0.00  0.00    +0.007 A 
ATOM     34  C   UNL     1      54.253  25.945  35.079  0.00  0.00    -0.029 A 
ATOM     35  C   UNL     1      53.664  26.345  36.452  0.00  0.00    +0.045 C 
ENDROOT
BRANCH  10   9
ATOM      4  C   UNL     1      51.540  21.134  36.298  0.00  0.00    +0.077 A 
ATOM      5  C   UNL     1      52.796  20.502  36.581  0.00  0.00    +0.048 A 
ATOM      6  C   UNL     1      53.968  21.176  36.169  0.00  0.00    +0.116 A 
ATOM      7  N   UNL     1      53.878  22.391  35.525  0.00  0.00    -0.223 NA
ATOM      8  C   UNL     1      52.650  22.972  35.267  0.00  0.00    +0.220 A 
ATOM      9  N   UNL     1      52.536  24.196  34.627  0.00  0.00    -0.283 N 
ATOM     36  H   UNL     1      51.612  24.588  34.448  0.00  0.00    +0.155 HD
ATOM     37  N   UNL     1      51.516  22.347  35.648  0.00  0.00    -0.214 NA
BRANCH   4   3
ATOM      1  C   UNL     1      47.810  20.746  37.411  0.00  0.00    +0.020 A 
ATOM      2  C   UNL     1      49.068  21.362  37.059  0.00  0.00    +0.013 A 
ATOM      3  C   UNL     1      50.214  20.548  36.673  0.00  0.00    +0.019 A 
ATOM     38  C   UNL     1      50.051  19.102  36.652  0.00  0.00    +0.120 A 
ATOM     39  N   UNL     1      48.827  18.537  36.998  0.00  0.00    -0.263 NA
ATOM     40  C   UNL     1      47.719  19.310  37.373  0.00  0.00    +0.111 A 
ENDBRANCH   4   3
ENDBRANCH  10   9
BRANCH  12  13
ATOM     13  N   UNL     1      56.083  25.021  31.237  0.00  0.00    -0.281 N 
ATOM     14  C   UNL     1      57.102  24.122  30.969  0.00  0.00    +0.248 C 
ATOM     30  O   UNL     1      57.771  23.561  31.825  0.00  0.00    -0.270 OA
ATOM     31  H   UNL     1      55.740  25.560  30.441  0.00  0.00    +0.155 HD
BRANCH  14  15
ATOM     15  C   UNL     1      57.436  23.811  29.546  0.00  0.00    +0.037 A 
ATOM     16  C   UNL     1      56.977  22.574  28.910  0.00  0.00    +0.013 A 
ATOM     17  C   UNL     1      57.328  22.291  27.541  0.00  0.00    +0.005 A 
ATOM     18  C   UNL     1      58.142  23.250  26.797  0.00  0.00    -0.033 A 
ATOM     28  C   UNL     1      58.579  24.472  27.451  0.00  0.00    +0.005 A 
ATOM     29  C   UNL     1      58.239  24.752  28.793  0.00  0.00    +0.013 A 
BRANCH  18  19
ATOM     19  C   UNL     1      58.581  23.020  25.339  0.00  0.00    +0.119 C 
BRANCH  19  20
ATOM     20  N   UNL     1      58.607  24.210  24.437  0.00  0.00    -0.302 NA
ATOM     21  C   UNL     1      57.199  24.645  24.020  0.00  0.00    +0.066 C 
ATOM     22  C   UNL     1      57.243  25.905  23.096  0.00  0.00    -0.064 C 
ATOM     23  N   UNL     1      58.103  25.602  21.867  0.00  0.00    +0.379 N 
ATOM     24  C   UNL     1      58.099  26.765  20.967  0.00  0.00    -0.096 C 
ATOM     25  H   UNL     1      57.628  24.752  21.324  0.00  0.00    -0.082 HD
ATOM     26  C   UNL     1      59.503  25.166  22.273  0.00  0.00    -0.064 C 
ATOM     27  C   UNL     1      59.447  23.932  23.215  0.00  0.00    +0.066 C 
ENDBRANCH  19  20
ENDBRANCH  18  19
ENDBRANCH  14  15
ENDBRANCH  12  13
TORSDOF 6
ENDMDL
MODEL 5
REMARK VINA RESULT:      -8.5     12.737     19.034
REMARK  Name = C:\Users\Docking\Desktop\test protocol\1iep_ligandH.pdb
REMARK  8 active torsions:
REMARK  status: ('A' for Active; 'I' for Inactive)
REMARK    1  A    between atoms: _5  and  _11
REMARK    2  A    between atoms: _19  and  _21
REMARK    3  A    between atoms: _22  and  _66
REMARK    4  A    between atoms: _27  and  _30
REMARK    5  A    between atoms: _32  and  _33
REMARK    6  A    between atoms: _38  and  _43
REMARK    7  A    between atoms: _43  and  _46
REMARK    8  A    between atoms: _53  and  _55
REMARK                            x       y       z     vdW  Elec       q    Type
REMARK                         _______ _______ _______ _____ _____    ______ ____
ROOT
ATOM     10  C   UNL     1      54.768  23.821  32.636  0.00  0.00    +0.038 A 
ATOM     11  C   UNL     1      55.006  24.202  31.291  0.00  0.00    +0.047 A 
ATOM     12  C   UNL     1      55.929  23.458  30.450  0.00  0.00    +0.035 A 
ATOM     32  C   UNL     1      56.592  22.327  31.010  0.00  0.00    +0.024 A 
ATOM     33  C   UNL     1      56.364  21.926  32.376  0.00  0.00    +0.007 A 
ATOM     34  C   UNL     1      55.456  22.658  33.211  0.00  0.00    -0.029 A 
ATOM     35  C   UNL     1      55.254  22.186  34.670  0.00  0.00    +0.045 C 
ENDROOT
BRANCH  10   9
ATOM      4  C   UNL     1      53.627  27.695  35.229  0.00  0.00    +0.077 A 
ATOM      5  C   UNL     1      54.937  28.259  35.073  0.00  0.00    +0.048 A 
ATOM      6  C   UNL     1      55.877  27.516  34.324  0.00  0.00    +0.116 A 
ATOM      7  N   UNL     1      55.523  26.302  33.776  0.00  0.00    -0.223 NA
ATOM      8  C   UNL     1      54.251  25.787  33.947  0.00  0.00    +0.220 A 
ATOM      9  N   UNL     1      53.871  24.572  33.399  0.00  0.00    -0.283 N 
ATOM     36  H   UNL     1      52.926  24.222  33.554  0.00  0.00    +0.155 HD
ATOM     37  N   UNL     1      53.335  26.476  34.659  0.00  0.00    -0.214 NA
BRANCH   4   3
ATOM      1  C   UNL     1      50.665  30.054  36.212  0.00  0.00    +0.020 A 
ATOM      2  C   UNL     1      51.720  29.445  35.436  0.00  0.00    +0.013 A 
ATOM      3  C   UNL     1      52.522  28.361  35.989  0.00  0.00    +0.019 A 
ATOM     38  C   UNL     1      52.228  27.913  37.342  0.00  0.00    +0.120 A 
ATOM     39  N   UNL     1      51.206  28.519  38.067  0.00  0.00    -0.263 NA
ATOM     40  C   UNL     1      50.429  29.564  37.545  0.00  0.00    +0.111 A 
ENDBRANCH   4   3
ENDBRANCH  10   9
BRANCH  12  13
ATOM     13  N   UNL     1      56.217  23.803  29.079  0.00  0.00    -0.281 N 
ATOM     14  C   UNL     1      57.394  24.315  28.559  0.00  0.00    +0.248 C 
ATOM     30  O   UNL     1      58.313  24.757  29.233  0.00  0.00    -0.270 OA
ATOM     31  H   UNL     1      55.460  23.651  28.412  0.00  0.00    +0.155 HD
BRANCH  14  15
ATOM     15  C   UNL     1      57.570  24.356  27.075  0.00  0.00    +0.037 A 
ATOM     16  C   UNL     1      58.743  23.757  26.433  0.00  0.00    +0.013 A 
ATOM     17  C   UNL     1      58.897  23.825  25.001  0.00  0.00    +0.005 A 
ATOM     18  C   UNL     1      57.873  24.494  24.202  0.00  0.00    -0.033 A 
ATOM     28  C   UNL     1      56.717  25.074  24.865  0.00  0.00    +0.005 A 
ATOM     29  C   UNL     1      56.563  25.010  26.268  0.00  0.00    +0.013 A 
BRANCH  18  19
ATOM     19  C   UNL     1      57.965  24.632  22.671  0.00  0.00    +0.119 C 
BRANCH  19  20
ATOM     20  N   UNL     1      58.691  25.822  22.134  0.00  0.00    -0.302 NA
ATOM     21  C   UNL     1      60.203  25.722  22.359  0.00  0.00    +0.066 C 
ATOM     22  C   UNL     1      60.949  26.963  21.772  0.00  0.00    -0.064 C 
ATOM     23  N   UNL     1      60.390  28.238  22.406  0.00  0.00    +0.379 N 
ATOM     24  C   UNL     1      61.129  29.403  21.899  0.00  0.00    -0.096 C 
ATOM     25  H   UNL     1      60.570  28.175  23.505  0.00  0.00    -0.082 HD
ATOM     26  C   UNL     1      58.887  28.344  22.190  0.00  0.00    -0.064 C 
ATOM     27  C   UNL     1      58.158  27.091  22.751  0.00  0.00    +0.066 C 
ENDBRANCH  19  20
ENDBRANCH  18  19
ENDBRANCH  14  15
ENDBRANCH  12  13
TORSDOF 6
ENDMDL
