MODEL 1
REMARK VINA RESULT:     -12.1      0.000      0.000
REMARK  Name = C:\Users\Docking\Desktop\test protocol\1iep_ligandH.pdb
REMARK  8 active torsions:
REMARK  status: ('A' for Active; 'I' for Inactive)
REMARK    1  A    between atoms: _5  and  _11
REMARK    2  A    between atoms: _19  and  _21
REMARK    3  A    between atoms: _22  and  _66
REMARK    4  A    between atoms: _27  and  _30
REMARK    5  A    between atoms: _32  and  _33
REMARK    6  A    between atoms: _38  and  _43
REMARK    7  A    between atoms: _43  and  _46
REMARK    8  A    between atoms: _53  and  _55
REMARK                            x       y       z     vdW  Elec       q    Type
REMARK                         _______ _______ _______ _____ _____    ______ ____
ROOT
ATOM     10  C   UNL     1       8.055  -4.957  15.948  0.00  0.00    +0.038 A 
ATOM     11  C   UNL     1       6.887  -4.230  15.604  0.00  0.00    +0.047 A 
ATOM     12  C   UNL     1       6.936  -3.136  14.647  0.00  0.00    +0.035 A 
ATOM     32  C   UNL     1       8.192  -2.811  14.057  0.00  0.00    +0.024 A 
ATOM     33  C   UNL     1       9.390  -3.539  14.396  0.00  0.00    +0.007 A 
ATOM     34  C   UNL     1       9.347  -4.618  15.341  0.00  0.00    -0.029 A 
ATOM     35  C   UNL     1      10.664  -5.359  15.672  0.00  0.00    +0.045 C 
ENDROOT
BRANCH  10   9
ATOM      4  C   UNL     1       8.216  -6.671  20.429  0.00  0.00    +0.077 A 
ATOM      5  C   UNL     1       8.566  -5.389  20.969  0.00  0.00    +0.048 A 
ATOM      6  C   UNL     1       8.702  -4.317  20.060  0.00  0.00    +0.116 A 
ATOM      7  N   UNL     1       8.500  -4.522  18.712  0.00  0.00    -0.223 NA
ATOM      8  C   UNL     1       8.165  -5.771  18.224  0.00  0.00    +0.220 A 
ATOM      9  N   UNL     1       7.950  -5.999  16.873  0.00  0.00    -0.283 N 
ATOM     36  H   UNL     1       7.711  -6.937  16.552  0.00  0.00    +0.155 HD
ATOM     37  N   UNL     1       8.031  -6.812  19.071  0.00  0.00    -0.214 NA
BRANCH   4   3
ATOM      1  C   UNL     1       8.416  -9.265  23.350  0.00  0.00    +0.020 A 
ATOM      2  C   UNL     1       8.624  -8.057  22.586  0.00  0.00    +0.013 A 
ATOM      3  C   UNL     1       8.033  -7.902  21.262  0.00  0.00    +0.019 A 
ATOM     38  C   UNL     1       7.231  -8.996  20.737  0.00  0.00    +0.120 A 
ATOM     39  N   UNL     1       7.050 -10.149  21.495  0.00  0.00    -0.263 NA
ATOM     40  C   UNL     1       7.614 -10.310  22.769  0.00  0.00    +0.111 A 
ENDBRANCH   4   3
ENDBRANCH  10   9
BRANCH  12  13
ATOM     13  N   UNL     1       5.785  -2.357  14.265  0.00  0.00    -0.281 N 
ATOM     14  C   UNL     1       5.615  -0.985  14.360  0.00  0.00    +0.248 C 
ATOM     30  O   UNL     1       6.351  -0.240  14.989  0.00  0.00    -0.270 OA
ATOM     31  H   UNL     1       4.999  -2.880  13.877  0.00  0.00    +0.155 HD
BRANCH  14  15
ATOM     15  C   UNL     1       4.452  -0.352  13.667  0.00  0.00    +0.037 A 
ATOM     16  C   UNL     1       3.604   0.630  14.348  0.00  0.00    +0.013 A 
ATOM     17  C   UNL     1       2.478   1.212  13.662  0.00  0.00    +0.005 A 
ATOM     18  C   UNL     1       2.195   0.816  12.285  0.00  0.00    -0.033 A 
ATOM     28  C   UNL     1       3.055  -0.156  11.631  0.00  0.00    +0.005 A 
ATOM     29  C   UNL     1       4.159  -0.731  12.301  0.00  0.00    +0.013 A 
BRANCH  18  19
ATOM     19  C   UNL     1       1.002   1.370  11.483  0.00  0.00    +0.119 C 
BRANCH  19  20
ATOM     20  N   UNL     1       0.775   0.808  10.119  0.00  0.00    -0.302 NA
ATOM     21  C   UNL     1       0.250   1.864   9.142  0.00  0.00    +0.066 C 
ATOM     22  C   UNL     1       0.039   1.264   7.714  0.00  0.00    -0.064 C 
ATOM     23  N   UNL     1      -0.924   0.079   7.799  0.00  0.00    +0.379 N 
ATOM     24  C   UNL     1      -1.170  -0.451   6.449  0.00  0.00    -0.096 C 
ATOM     25  H   UNL     1      -1.894   0.460   8.194  0.00  0.00    -0.082 HD
ATOM     26  C   UNL     1      -0.411  -0.975   8.770  0.00  0.00    -0.064 C 
ATOM     27  C   UNL     1      -0.177  -0.361  10.178  0.00  0.00    +0.066 C 
ENDBRANCH  19  20
ENDBRANCH  18  19
ENDBRANCH  14  15
ENDBRANCH  12  13
TORSDOF 6
ENDMDL
MODEL 2
REMARK VINA RESULT:     -11.7      1.941     12.690
REMARK  Name = C:\Users\Docking\Desktop\test protocol\1iep_ligandH.pdb
REMARK  8 active torsions:
REMARK  status: ('A' for Active; 'I' for Inactive)
REMARK    1  A    between atoms: _5  and  _11
REMARK    2  A    between atoms: _19  and  _21
REMARK    3  A    between atoms: _22  and  _66
REMARK    4  A    between atoms: _27  and  _30
REMARK    5  A    between atoms: _32  and  _33
REMARK    6  A    between atoms: _38  and  _43
REMARK    7  A    between atoms: _43  and  _46
REMARK    8  A    between atoms: _53  and  _55
REMARK                            x       y       z     vdW  Elec       q    Type
REMARK                         _______ _______ _______ _____ _____    ______ ____
ROOT
ATOM     10  C   UNL     1       7.208  -2.411  12.720  0.00  0.00    +0.038 A 
ATOM     11  C   UNL     1       7.087  -2.903  14.045  0.00  0.00    +0.047 A 
ATOM     12  C   UNL     1       8.248  -3.378  14.780  0.00  0.00    +0.035 A 
ATOM     32  C   UNL     1       9.520  -3.334  14.137  0.00  0.00    +0.024 A 
ATOM     33  C   UNL     1       9.661  -2.838  12.790  0.00  0.00    +0.007 A 
ATOM     34  C   UNL     1       8.518  -2.371  12.059  0.00  0.00    -0.029 A 
ATOM     35  C   UNL     1       8.727  -1.856  10.616  0.00  0.00    +0.045 C 
ENDROOT
BRANCH  10   9
ATOM      4  C   UNL     1       3.213   0.240  12.495  0.00  0.00    +0.077 A 
ATOM      5  C   UNL     1       3.418   0.767  13.813  0.00  0.00    +0.048 A 
ATOM      6  C   UNL     1       4.559   0.324  14.519  0.00  0.00    +0.116 A 
ATOM      7  N   UNL     1       5.425  -0.577  13.939  0.00  0.00    -0.223 NA
ATOM      8  C   UNL     1       5.197  -1.067  12.666  0.00  0.00    +0.220 A 
ATOM      9  N   UNL     1       6.059  -1.968  12.060  0.00  0.00    -0.283 N 
ATOM     36  H   UNL     1       5.852  -2.311  11.123  0.00  0.00    +0.155 HD
ATOM     37  N   UNL     1       4.114  -0.661  11.972  0.00  0.00    -0.214 NA
BRANCH   4   3
ATOM      1  C   UNL     1      -0.335   1.339  11.269  0.00  0.00    +0.020 A 
ATOM      2  C   UNL     1       0.750   0.986  12.155  0.00  0.00    +0.013 A 
ATOM      3  C   UNL     1       2.055   0.614  11.623  0.00  0.00    +0.019 A 
ATOM     38  C   UNL     1       2.230   0.609  10.178  0.00  0.00    +0.120 A 
ATOM     39  N   UNL     1       1.166   0.952   9.349  0.00  0.00    -0.263 NA
ATOM     40  C   UNL     1      -0.094   1.310   9.850  0.00  0.00    +0.111 A 
ENDBRANCH   4   3
ENDBRANCH  10   9
BRANCH  12  13
ATOM     13  N   UNL     1       8.186  -3.896  16.124  0.00  0.00    -0.281 N 
ATOM     14  C   UNL     1       7.727  -5.135  16.539  0.00  0.00    +0.248 C 
ATOM     30  O   UNL     1       7.099  -5.911  15.834  0.00  0.00    -0.270 OA
ATOM     31  H   UNL     1       8.520  -3.273  16.860  0.00  0.00    +0.155 HD
BRANCH  14  15
ATOM     15  C   UNL     1       7.992  -5.570  17.944  0.00  0.00    +0.037 A 
ATOM     16  C   UNL     1       8.366  -4.605  18.981  0.00  0.00    +0.013 A 
ATOM     17  C   UNL     1       8.632  -5.053  20.325  0.00  0.00    +0.005 A 
ATOM     18  C   UNL     1       8.524  -6.476  20.639  0.00  0.00    -0.033 A 
ATOM     28  C   UNL     1       8.146  -7.411  19.593  0.00  0.00    +0.005 A 
ATOM     29  C   UNL     1       7.885  -6.976  18.274  0.00  0.00    +0.013 A 
BRANCH  18  19
ATOM     19  C   UNL     1       8.811  -7.046  22.041  0.00  0.00    +0.119 C 
BRANCH  19  20
ATOM     20  N   UNL     1       8.380  -8.451  22.309  0.00  0.00    -0.302 NA
ATOM     21  C   UNL     1       6.883  -8.651  22.053  0.00  0.00    +0.066 C 
ATOM     22  C   UNL     1       6.454 -10.131  22.316  0.00  0.00    -0.064 C 
ATOM     23  N   UNL     1       6.814 -10.516  23.753  0.00  0.00    +0.379 N 
ATOM     24  C   UNL     1       6.359 -11.887  24.022  0.00  0.00    -0.096 C 
ATOM     25  H   UNL     1       6.255  -9.834  24.435  0.00  0.00    -0.082 HD
ATOM     26  C   UNL     1       8.299 -10.317  24.016  0.00  0.00    -0.064 C 
ATOM     27  C   UNL     1       8.722  -8.850  23.723  0.00  0.00    +0.066 C 
ENDBRANCH  19  20
ENDBRANCH  18  19
ENDBRANCH  14  15
ENDBRANCH  12  13
TORSDOF 6
ENDMDL
MODEL 3
REMARK VINA RESULT:     -10.6      2.923      6.097
REMARK  Name = C:\Users\Docking\Desktop\test protocol\1iep_ligandH.pdb
REMARK  8 active torsions:
REMARK  status: ('A' for Active; 'I' for Inactive)
REMARK    1  A    between atoms: _5  and  _11
REMARK    2  A    between atoms: _19  and  _21
REMARK    3  A    between atoms: _22  and  _66
REMARK    4  A    between atoms: _27  and  _30
REMARK    5  A    between atoms: _32  and  _33
REMARK    6  A    between atoms: _38  and  _43
REMARK    7  A    between atoms: _43  and  _46
REMARK    8  A    between atoms: _53  and  _55
REMARK                            x       y       z     vdW  Elec       q    Type
REMARK                         _______ _______ _______ _____ _____    ______ ____
ROOT
ATOM     10  C   UNL     1       8.254  -8.070  20.336  0.00  0.00    +0.038 A 
ATOM     11  C   UNL     1       8.012  -7.208  19.236  0.00  0.00    +0.047 A 
ATOM     12  C   UNL     1       8.163  -5.767  19.362  0.00  0.00    +0.035 A 
ATOM     32  C   UNL     1       8.564  -5.237  20.623  0.00  0.00    +0.024 A 
ATOM     33  C   UNL     1       8.813  -6.099  21.752  0.00  0.00    +0.007 A 
ATOM     34  C   UNL     1       8.663  -7.521  21.634  0.00  0.00    -0.029 A 
ATOM     35  C   UNL     1       8.937  -8.396  22.879  0.00  0.00    +0.045 C 
ENDROOT
BRANCH  10   9
ATOM      4  C   UNL     1       5.678 -12.107  20.654  0.00  0.00    +0.077 A 
ATOM      5  C   UNL     1       4.567 -11.422  21.249  0.00  0.00    +0.048 A 
ATOM      6  C   UNL     1       4.701 -10.031  21.462  0.00  0.00    +0.116 A 
ATOM      7  N   UNL     1       5.864  -9.385  21.104  0.00  0.00    -0.223 NA
ATOM      8  C   UNL     1       6.918 -10.077  20.534  0.00  0.00    +0.220 A 
ATOM      9  N   UNL     1       8.094  -9.446  20.158  0.00  0.00    -0.283 N 
ATOM     36  H   UNL     1       8.850  -9.993  19.748  0.00  0.00    +0.155 HD
ATOM     37  N   UNL     1       6.815 -11.405  20.321  0.00  0.00    -0.214 NA
BRANCH   4   3
ATOM      1  C   UNL     1       5.715 -15.996  21.071  0.00  0.00    +0.020 A 
ATOM      2  C   UNL     1       5.708 -14.591  21.407  0.00  0.00    +0.013 A 
ATOM      3  C   UNL     1       5.686 -13.576  20.362  0.00  0.00    +0.019 A 
ATOM     38  C   UNL     1       5.672 -14.019  18.976  0.00  0.00    +0.120 A 
ATOM     39  N   UNL     1       5.681 -15.379  18.683  0.00  0.00    -0.263 NA
ATOM     40  C   UNL     1       5.703 -16.365  19.680  0.00  0.00    +0.111 A 
ENDBRANCH   4   3
ENDBRANCH  10   9
BRANCH  12  13
ATOM     13  N   UNL     1       7.924  -4.841  18.282  0.00  0.00    -0.281 N 
ATOM     14  C   UNL     1       8.570  -4.774  17.059  0.00  0.00    +0.248 C 
ATOM     30  O   UNL     1       9.603  -5.369  16.790  0.00  0.00    -0.270 OA
ATOM     31  H   UNL     1       7.189  -4.151  18.439  0.00  0.00    +0.155 HD
BRANCH  14  15
ATOM     15  C   UNL     1       7.993  -3.911  15.984  0.00  0.00    +0.037 A 
ATOM     16  C   UNL     1       6.670  -3.299  16.129  0.00  0.00    +0.013 A 
ATOM     17  C   UNL     1       6.130  -2.485  15.069  0.00  0.00    +0.005 A 
ATOM     18  C   UNL     1       6.915  -2.276  13.855  0.00  0.00    -0.033 A 
ATOM     28  C   UNL     1       8.227  -2.891  13.740  0.00  0.00    +0.005 A 
ATOM     29  C   UNL     1       8.759  -3.691  14.776  0.00  0.00    +0.013 A 
BRANCH  18  19
ATOM     19  C   UNL     1       6.409  -1.440  12.665  0.00  0.00    +0.119 C 
BRANCH  19  20
ATOM     20  N   UNL     1       4.954  -1.101  12.637  0.00  0.00    -0.302 NA
ATOM     21  C   UNL     1       4.446  -0.870  11.211  0.00  0.00    +0.066 C 
ATOM     22  C   UNL     1       2.918  -0.539  11.198  0.00  0.00    -0.064 C 
ATOM     23  N   UNL     1       2.658   0.690  12.071  0.00  0.00    +0.379 N 
ATOM     24  C   UNL     1       1.231   1.038  12.015  0.00  0.00    -0.096 C 
ATOM     25  H   UNL     1       3.232   1.541  11.636  0.00  0.00    -0.082 HD
ATOM     26  C   UNL     1       3.163   0.470  13.490  0.00  0.00    -0.064 C 
ATOM     27  C   UNL     1       4.676   0.113  13.489  0.00  0.00    +0.066 C 
ENDBRANCH  19  20
ENDBRANCH  18  19
ENDBRANCH  14  15
ENDBRANCH  12  13
TORSDOF 6
ENDMDL
MODEL 4
REMARK VINA RESULT:     -10.6      2.365      4.032
REMARK  Name = C:\Users\Docking\Desktop\test protocol\1iep_ligandH.pdb
REMARK  8 active torsions:
REMARK  status: ('A' for Active; 'I' for Inactive)
REMARK    1  A    between atoms: _5  and  _11
REMARK    2  A    between atoms: _19  and  _21
REMARK    3  A    between atoms: _22  and  _66
REMARK    4  A    between atoms: _27  and  _30
REMARK    5  A    between atoms: _32  and  _33
REMARK    6  A    between atoms: _38  and  _43
REMARK    7  A    between atoms: _43  and  _46
REMARK    8  A    between atoms: _53  and  _55
REMARK                            x       y       z     vdW  Elec       q    Type
REMARK                         _______ _______ _______ _____ _____    ______ ____
ROOT
ATOM     10  C   UNL     1       7.912  -2.522  13.664  0.00  0.00    +0.038 A 
ATOM     11  C   UNL     1       6.650  -2.175  13.120  0.00  0.00    +0.047 A 
ATOM     12  C   UNL     1       6.496  -1.881  11.703  0.00  0.00    +0.035 A 
ATOM     32  C   UNL     1       7.650  -1.952  10.869  0.00  0.00    +0.024 A 
ATOM     33  C   UNL     1       8.941  -2.302  11.406  0.00  0.00    +0.007 A 
ATOM     34  C   UNL     1       9.099  -2.591  12.803  0.00  0.00    -0.029 A 
ATOM     35  C   UNL     1      10.509  -2.955  13.325  0.00  0.00    +0.045 C 
ENDROOT
BRANCH  10   9
ATOM      4  C   UNL     1       7.776  -5.536  17.397  0.00  0.00    +0.077 A 
ATOM      5  C   UNL     1       7.473  -6.658  16.556  0.00  0.00    +0.048 A 
ATOM      6  C   UNL     1       7.354  -6.415  15.169  0.00  0.00    +0.116 A 
ATOM      7  N   UNL     1       7.527  -5.142  14.671  0.00  0.00    -0.223 NA
ATOM      8  C   UNL     1       7.816  -4.082  15.510  0.00  0.00    +0.220 A 
ATOM      9  N   UNL     1       8.002  -2.794  15.031  0.00  0.00    -0.283 N 
ATOM     36  H   UNL     1       8.207  -2.038  15.683  0.00  0.00    +0.155 HD
ATOM     37  N   UNL     1       7.934  -4.287  16.839  0.00  0.00    -0.214 NA
BRANCH   4   3
ATOM      1  C   UNL     1       7.663  -6.825  21.088  0.00  0.00    +0.020 A 
ATOM      2  C   UNL     1       7.484  -6.782  19.655  0.00  0.00    +0.013 A 
ATOM      3  C   UNL     1       7.936  -5.632  18.882  0.00  0.00    +0.019 A 
ATOM     38  C   UNL     1       8.573  -4.535  19.595  0.00  0.00    +0.120 A 
ATOM     39  N   UNL     1       8.731  -4.604  20.976  0.00  0.00    -0.263 NA
ATOM     40  C   UNL     1       8.298  -5.704  21.730  0.00  0.00    +0.111 A 
ENDBRANCH   4   3
ENDBRANCH  10   9
BRANCH  12  13
ATOM     13  N   UNL     1       5.241  -1.515  11.095  0.00  0.00    -0.281 N 
ATOM     14  C   UNL     1       4.433  -0.430  11.395  0.00  0.00    +0.248 C 
ATOM     30  O   UNL     1       4.564   0.276  12.384  0.00  0.00    -0.270 OA
ATOM     31  H   UNL     1       4.907  -2.130  10.353  0.00  0.00    +0.155 HD
BRANCH  14  15
ATOM     15  C   UNL     1       3.310  -0.088  10.471  0.00  0.00    +0.037 A 
ATOM     16  C   UNL     1       3.301  -0.553   9.081  0.00  0.00    +0.013 A 
ATOM     17  C   UNL     1       2.213  -0.195   8.206  0.00  0.00    +0.005 A 
ATOM     18  C   UNL     1       1.123   0.632   8.719  0.00  0.00    -0.033 A 
ATOM     28  C   UNL     1       1.154   1.074  10.103  0.00  0.00    +0.005 A 
ATOM     29  C   UNL     1       2.220   0.726  10.964  0.00  0.00    +0.013 A 
BRANCH  18  19
ATOM     19  C   UNL     1      -0.068   1.079   7.851  0.00  0.00    +0.119 C 
BRANCH  19  20
ATOM     20  N   UNL     1       0.243   1.846   6.608  0.00  0.00    -0.302 NA
ATOM     21  C   UNL     1      -0.473   3.199   6.573  0.00  0.00    +0.066 C 
ATOM     22  C   UNL     1      -0.119   3.998   5.277  0.00  0.00    -0.064 C 
ATOM     23  N   UNL     1      -0.484   3.161   4.050  0.00  0.00    +0.379 N 
ATOM     24  C   UNL     1      -0.207   3.932   2.829  0.00  0.00    -0.096 C 
ATOM     25  H   UNL     1      -1.582   2.968   4.086  0.00  0.00    -0.082 HD
ATOM     26  C   UNL     1       0.222   1.812   4.077  0.00  0.00    -0.064 C 
ATOM     27  C   UNL     1      -0.114   1.040   5.383  0.00  0.00    +0.066 C 
ENDBRANCH  19  20
ENDBRANCH  18  19
ENDBRANCH  14  15
ENDBRANCH  12  13
TORSDOF 6
ENDMDL
MODEL 5
REMARK VINA RESULT:     -10.1      4.945      7.862
REMARK  Name = C:\Users\Docking\Desktop\test protocol\1iep_ligandH.pdb
REMARK  8 active torsions:
REMARK  status: ('A' for Active; 'I' for Inactive)
REMARK    1  A    between atoms: _5  and  _11
REMARK    2  A    between atoms: _19  and  _21
REMARK    3  A    between atoms: _22  and  _66
REMARK    4  A    between atoms: _27  and  _30
REMARK    5  A    between atoms: _32  and  _33
REMARK    6  A    between atoms: _38  and  _43
REMARK    7  A    between atoms: _43  and  _46
REMARK    8  A    between atoms: _53  and  _55
REMARK                            x       y       z     vdW  Elec       q    Type
REMARK                         _______ _______ _______ _____ _____    ______ ____
ROOT
ATOM     10  C   UNL     1       4.379  -0.874  12.825  0.00  0.00    +0.038 A 
ATOM     11  C   UNL     1       4.286  -1.429  11.524  0.00  0.00    +0.047 A 
ATOM     12  C   UNL     1       3.916  -0.609  10.381  0.00  0.00    +0.035 A 
ATOM     32  C   UNL     1       3.651   0.774  10.599  0.00  0.00    +0.024 A 
ATOM     33  C   UNL     1       3.740   1.355  11.916  0.00  0.00    +0.007 A 
ATOM     34  C   UNL     1       4.101   0.550  13.048  0.00  0.00    -0.029 A 
ATOM     35  C   UNL     1       4.175   1.224  14.438  0.00  0.00    +0.045 C 
ENDROOT
BRANCH  10   9
ATOM      4  C   UNL     1       7.575  -3.529  15.228  0.00  0.00    +0.077 A 
ATOM      5  C   UNL     1       8.610  -3.254  14.274  0.00  0.00    +0.048 A 
ATOM      6  C   UNL     1       8.277  -2.431  13.175  0.00  0.00    +0.116 A 
ATOM      7  N   UNL     1       7.001  -1.925  13.050  0.00  0.00    -0.223 NA
ATOM      8  C   UNL     1       6.026  -2.212  13.988  0.00  0.00    +0.220 A 
ATOM      9  N   UNL     1       4.738  -1.708  13.887  0.00  0.00    -0.283 N 
ATOM     36  H   UNL     1       4.045  -1.949  14.596  0.00  0.00    +0.155 HD
ATOM     37  N   UNL     1       6.318  -2.997  15.046  0.00  0.00    -0.214 NA
BRANCH   4   3
ATOM      1  C   UNL     1       7.877  -6.609  17.621  0.00  0.00    +0.020 A 
ATOM      2  C   UNL     1       7.676  -5.834  16.419  0.00  0.00    +0.013 A 
ATOM      3  C   UNL     1       7.773  -4.380  16.444  0.00  0.00    +0.019 A 
ATOM     38  C   UNL     1       8.077  -3.736  17.713  0.00  0.00    +0.120 A 
ATOM     39  N   UNL     1       8.263  -4.508  18.856  0.00  0.00    -0.263 NA
ATOM     40  C   UNL     1       8.171  -5.908  18.843  0.00  0.00    +0.111 A 
ENDBRANCH   4   3
ENDBRANCH  10   9
BRANCH  12  13
ATOM     13  N   UNL     1       3.798  -1.119   9.037  0.00  0.00    -0.281 N 
ATOM     14  C   UNL     1       2.642  -1.466   8.356  0.00  0.00    +0.248 C 
ATOM     30  O   UNL     1       1.545  -1.593   8.878  0.00  0.00    -0.270 OA
ATOM     31  H   UNL     1       4.672  -1.238   8.525  0.00  0.00    +0.155 HD
BRANCH  14  15
ATOM     15  C   UNL     1       2.720  -1.723   6.886  0.00  0.00    +0.037 A 
ATOM     16  C   UNL     1       3.915  -2.315   6.280  0.00  0.00    +0.013 A 
ATOM     17  C   UNL     1       3.970  -2.538   4.857  0.00  0.00    +0.005 A 
ATOM     18  C   UNL     1       2.824  -2.168   4.030  0.00  0.00    -0.033 A 
ATOM     28  C   UNL     1       1.649  -1.588   4.658  0.00  0.00    +0.005 A 
ATOM     29  C   UNL     1       1.592  -1.368   6.052  0.00  0.00    +0.013 A 
BRANCH  18  19
ATOM     19  C   UNL     1       2.804  -2.350   2.501  0.00  0.00    +0.119 C 
BRANCH  19  20
ATOM     20  N   UNL     1       3.825  -3.264   1.907  0.00  0.00    -0.302 NA
ATOM     21  C   UNL     1       4.312  -2.770   0.541  0.00  0.00    +0.066 C 
ATOM     22  C   UNL     1       5.397  -3.726  -0.055  0.00  0.00    -0.064 C 
ATOM     23  N   UNL     1       4.823  -5.139  -0.163  0.00  0.00    +0.379 N 
ATOM     24  C   UNL     1       5.820  -6.028  -0.778  0.00  0.00    -0.096 C 
ATOM     25  H   UNL     1       3.942  -5.095  -0.846  0.00  0.00    -0.082 HD
ATOM     26  C   UNL     1       4.333  -5.637   1.189  0.00  0.00    -0.064 C 
ATOM     27  C   UNL     1       3.278  -4.665   1.787  0.00  0.00    +0.066 C 
ENDBRANCH  19  20
ENDBRANCH  18  19
ENDBRANCH  14  15
ENDBRANCH  12  13
TORSDOF 6
ENDMDL
