MODEL 1
REMARK VINA RESULT:      -8.7      0.000      0.000
REMARK  Name = C:\Users\Docking\Desktop\test protocol\1iep_ligandH.pdb
REMARK  8 active torsions:
REMARK  status: ('A' for Active; 'I' for Inactive)
REMARK    1  A    between atoms: _5  and  _11
REMARK    2  A    between atoms: _19  and  _21
REMARK    3  A    between atoms: _22  and  _66
REMARK    4  A    between atoms: _27  and  _30
REMARK    5  A    between atoms: _32  and  _33
REMARK    6  A    between atoms: _38  and  _43
REMARK    7  A    between atoms: _43  and  _46
REMARK    8  A    between atoms: _53  and  _55
REMARK                            x       y       z     vdW  Elec       q    Type
REMARK                         _______ _______ _______ _____ _____    ______ ____
ROOT
ATOM     10  C   UNL     1     -11.034  12.951  24.346  0.00  0.00    +0.038 A 
ATOM     11  C   UNL     1     -11.464  13.699  25.472  0.00  0.00    +0.047 A 
ATOM     12  C   UNL     1     -11.474  15.153  25.449  0.00  0.00    +0.035 A 
ATOM     32  C   UNL     1     -11.044  15.814  24.262  0.00  0.00    +0.024 A 
ATOM     33  C   UNL     1     -10.603  15.069  23.108  0.00  0.00    +0.007 A 
ATOM     34  C   UNL     1     -10.588  13.634  23.125  0.00  0.00    -0.029 A 
ATOM     35  C   UNL     1     -10.100  12.888  21.862  0.00  0.00    +0.045 C 
ENDROOT
BRANCH  10   9
ATOM      4  C   UNL     1      -8.863   8.737  25.099  0.00  0.00    +0.077 A 
ATOM      5  C   UNL     1      -7.595   9.366  25.334  0.00  0.00    +0.048 A 
ATOM      6  C   UNL     1      -7.542  10.775  25.244  0.00  0.00    +0.116 A 
ATOM      7  N   UNL     1      -8.680  11.492  24.942  0.00  0.00    -0.223 NA
ATOM      8  C   UNL     1      -9.887  10.854  24.720  0.00  0.00    +0.220 A 
ATOM      9  N   UNL     1     -11.045  11.556  24.422  0.00  0.00    -0.283 N 
ATOM     36  H   UNL     1     -11.913  11.049  24.257  0.00  0.00    +0.155 HD
ATOM     37  N   UNL     1      -9.962   9.510  24.798  0.00  0.00    -0.214 NA
BRANCH   4   3
ATOM      1  C   UNL     1      -8.784   4.915  24.271  0.00  0.00    +0.020 A 
ATOM      2  C   UNL     1      -8.546   6.336  24.165  0.00  0.00    +0.013 A 
ATOM      3  C   UNL     1      -9.079   7.257  25.161  0.00  0.00    +0.019 A 
ATOM     38  C   UNL     1      -9.855   6.703  26.261  0.00  0.00    +0.120 A 
ATOM     39  N   UNL     1     -10.068   5.331  26.337  0.00  0.00    -0.263 NA
ATOM     40  C   UNL     1      -9.562   4.435  25.383  0.00  0.00    +0.111 A 
ENDBRANCH   4   3
ENDBRANCH  10   9
BRANCH  12  13
ATOM     13  N   UNL     1     -11.892  15.966  26.565  0.00  0.00    -0.281 N 
ATOM     14  C   UNL     1     -11.094  16.676  27.447  0.00  0.00    +0.248 C 
ATOM     30  O   UNL     1      -9.882  16.547  27.540  0.00  0.00    -0.270 OA
ATOM     31  H   UNL     1     -12.898  16.025  26.723  0.00  0.00    +0.155 HD
BRANCH  14  15
ATOM     15  C   UNL     1     -11.736  17.661  28.369  0.00  0.00    +0.037 A 
ATOM     16  C   UNL     1     -13.067  17.419  28.932  0.00  0.00    +0.013 A 
ATOM     17  C   UNL     1     -13.671  18.394  29.805  0.00  0.00    +0.005 A 
ATOM     18  C   UNL     1     -12.943  19.620  30.122  0.00  0.00    -0.033 A 
ATOM     28  C   UNL     1     -11.622  19.833  29.554  0.00  0.00    +0.005 A 
ATOM     29  C   UNL     1     -11.027  18.880  28.697  0.00  0.00    +0.013 A 
BRANCH  18  19
ATOM     19  C   UNL     1     -13.519  20.725  31.028  0.00  0.00    +0.119 C 
BRANCH  19  20
ATOM     20  N   UNL     1     -13.783  22.054  30.401  0.00  0.00    -0.302 NA
ATOM     21  C   UNL     1     -14.431  23.034  31.384  0.00  0.00    +0.066 C 
ATOM     22  C   UNL     1     -14.680  24.427  30.718  0.00  0.00    -0.064 C 
ATOM     23  N   UNL     1     -15.555  24.247  29.476  0.00  0.00    +0.379 N 
ATOM     24  C   UNL     1     -15.839  25.561  28.881  0.00  0.00    -0.096 C 
ATOM     25  H   UNL     1     -16.525  23.809  29.807  0.00  0.00    -0.082 HD
ATOM     26  C   UNL     1     -14.919  23.272  28.495  0.00  0.00    -0.064 C 
ATOM     27  C   UNL     1     -14.649  21.901  29.175  0.00  0.00    +0.066 C 
ENDBRANCH  19  20
ENDBRANCH  18  19
ENDBRANCH  14  15
ENDBRANCH  12  13
TORSDOF 6
ENDMDL
MODEL 2
REMARK VINA RESULT:      -8.6      3.784     14.104
REMARK  Name = C:\Users\Docking\Desktop\test protocol\1iep_ligandH.pdb
REMARK  8 active torsions:
REMARK  status: ('A' for Active; 'I' for Inactive)
REMARK    1  A    between atoms: _5  and  _11
REMARK    2  A    between atoms: _19  and  _21
REMARK    3  A    between atoms: _22  and  _66
REMARK    4  A    between atoms: _27  and  _30
REMARK    5  A    between atoms: _32  and  _33
REMARK    6  A    between atoms: _38  and  _43
REMARK    7  A    between atoms: _43  and  _46
REMARK    8  A    between atoms: _53  and  _55
REMARK                            x       y       z     vdW  Elec       q    Type
REMARK                         _______ _______ _______ _____ _____    ______ ____
ROOT
ATOM     10  C   UNL     1     -10.136  13.841  24.883  0.00  0.00    +0.038 A 
ATOM     11  C   UNL     1      -9.488  12.605  25.136  0.00  0.00    +0.047 A 
ATOM     12  C   UNL     1      -9.029  11.758  24.046  0.00  0.00    +0.035 A 
ATOM     32  C   UNL     1      -9.244  12.203  22.709  0.00  0.00    +0.024 A 
ATOM     33  C   UNL     1      -9.902  13.456  22.433  0.00  0.00    +0.007 A 
ATOM     34  C   UNL     1     -10.359  14.294  23.504  0.00  0.00    -0.029 A 
ATOM     35  C   UNL     1     -11.064  15.624  23.149  0.00  0.00    +0.045 C 
ENDROOT
BRANCH  10   9
ATOM      4  C   UNL     1     -13.331  14.990  28.275  0.00  0.00    +0.077 A 
ATOM      5  C   UNL     1     -14.252  13.983  27.833  0.00  0.00    +0.048 A 
ATOM      6  C   UNL     1     -13.869  13.196  26.724  0.00  0.00    +0.116 A 
ATOM      7  N   UNL     1     -12.652  13.408  26.112  0.00  0.00    -0.223 NA
ATOM      8  C   UNL     1     -11.788  14.388  26.563  0.00  0.00    +0.220 A 
ATOM      9  N   UNL     1     -10.557  14.614  25.967  0.00  0.00    -0.283 N 
ATOM     36  H   UNL     1      -9.951  15.352  26.325  0.00  0.00    +0.155 HD
ATOM     37  N   UNL     1     -12.132  15.155  27.619  0.00  0.00    -0.214 NA
BRANCH   4   3
ATOM      1  C   UNL     1     -14.620  16.427  31.678  0.00  0.00    +0.020 A 
ATOM      2  C   UNL     1     -14.399  15.510  30.583  0.00  0.00    +0.013 A 
ATOM      3  C   UNL     1     -13.591  15.901  29.435  0.00  0.00    +0.019 A 
ATOM     38  C   UNL     1     -13.015  17.237  29.426  0.00  0.00    +0.120 A 
ATOM     39  N   UNL     1     -13.246  18.099  30.493  0.00  0.00    -0.263 NA
ATOM     40  C   UNL     1     -14.023  17.734  31.603  0.00  0.00    +0.111 A 
ENDBRANCH   4   3
ENDBRANCH  10   9
BRANCH  12  13
ATOM     13  N   UNL     1      -8.372  10.490  24.243  0.00  0.00    -0.281 N 
ATOM     14  C   UNL     1      -8.956   9.256  24.482  0.00  0.00    +0.248 C 
ATOM     30  O   UNL     1     -10.131   9.094  24.777  0.00  0.00    -0.270 OA
ATOM     31  H   UNL     1      -7.353  10.502  24.200  0.00  0.00    +0.155 HD
BRANCH  14  15
ATOM     15  C   UNL     1      -8.110   8.028  24.395  0.00  0.00    +0.037 A 
ATOM     16  C   UNL     1      -6.649   8.115  24.325  0.00  0.00    +0.013 A 
ATOM     17  C   UNL     1      -5.857   6.915  24.225  0.00  0.00    +0.005 A 
ATOM     18  C   UNL     1      -6.525   5.616  24.195  0.00  0.00    -0.033 A 
ATOM     28  C   UNL     1      -7.976   5.558  24.271  0.00  0.00    +0.005 A 
ATOM     29  C   UNL     1      -8.755   6.733  24.368  0.00  0.00    +0.013 A 
BRANCH  18  19
ATOM     19  C   UNL     1      -5.761   4.285  24.068  0.00  0.00    +0.119 C 
BRANCH  19  20
ATOM     20  N   UNL     1      -4.553   4.271  23.190  0.00  0.00    -0.302 NA
ATOM     21  C   UNL     1      -4.815   3.553  21.863  0.00  0.00    +0.066 C 
ATOM     22  C   UNL     1      -3.548   3.567  20.948  0.00  0.00    -0.064 C 
ATOM     23  N   UNL     1      -2.378   2.921  21.691  0.00  0.00    +0.379 N 
ATOM     24  C   UNL     1      -1.200   2.881  20.813  0.00  0.00    -0.096 C 
ATOM     25  H   UNL     1      -2.664   1.869  21.922  0.00  0.00    -0.082 HD
ATOM     26  C   UNL     1      -2.112   3.627  23.013  0.00  0.00    -0.064 C 
ATOM     27  C   UNL     1      -3.386   3.633  23.903  0.00  0.00    +0.066 C 
ENDBRANCH  19  20
ENDBRANCH  18  19
ENDBRANCH  14  15
ENDBRANCH  12  13
TORSDOF 6
ENDMDL
MODEL 3
REMARK VINA RESULT:      -8.6      3.379     13.081
REMARK  Name = C:\Users\Docking\Desktop\test protocol\1iep_ligandH.pdb
REMARK  8 active torsions:
REMARK  status: ('A' for Active; 'I' for Inactive)
REMARK    1  A    between atoms: _5  and  _11
REMARK    2  A    between atoms: _19  and  _21
REMARK    3  A    between atoms: _22  and  _66
REMARK    4  A    between atoms: _27  and  _30
REMARK    5  A    between atoms: _32  and  _33
REMARK    6  A    between atoms: _38  and  _43
REMARK    7  A    between atoms: _43  and  _46
REMARK    8  A    between atoms: _53  and  _55
REMARK                            x       y       z     vdW  Elec       q    Type
REMARK                         _______ _______ _______ _____ _____    ______ ____
ROOT
ATOM     10  C   UNL     1     -10.595  13.124  24.702  0.00  0.00    +0.038 A 
ATOM     11  C   UNL     1     -10.391  11.747  24.976  0.00  0.00    +0.047 A 
ATOM     12  C   UNL     1     -10.268  10.776  23.899  0.00  0.00    +0.035 A 
ATOM     32  C   UNL     1     -10.354  11.243  22.555  0.00  0.00    +0.024 A 
ATOM     33  C   UNL     1     -10.562  12.639  22.259  0.00  0.00    +0.007 A 
ATOM     34  C   UNL     1     -10.687  13.601  23.317  0.00  0.00    -0.029 A 
ATOM     35  C   UNL     1     -10.915  15.083  22.941  0.00  0.00    +0.045 C 
ENDROOT
BRANCH  10   9
ATOM      4  C   UNL     1     -13.016  15.043  28.375  0.00  0.00    +0.077 A 
ATOM      5  C   UNL     1     -14.167  14.226  28.120  0.00  0.00    +0.048 A 
ATOM      6  C   UNL     1     -14.098  13.329  27.030  0.00  0.00    +0.116 A 
ATOM      7  N   UNL     1     -12.958  13.263  26.260  0.00  0.00    -0.223 NA
ATOM      8  C   UNL     1     -11.866  14.067  26.531  0.00  0.00    +0.220 A 
ATOM      9  N   UNL     1     -10.706  14.012  25.774  0.00  0.00    -0.283 N 
ATOM     36  H   UNL     1      -9.925  14.627  26.002  0.00  0.00    +0.155 HD
ATOM     37  N   UNL     1     -11.907  14.933  27.566  0.00  0.00    -0.214 NA
BRANCH   4   3
ATOM      1  C   UNL     1     -13.087  18.379  30.417  0.00  0.00    +0.020 A 
ATOM      2  C   UNL     1     -13.178  17.461  29.305  0.00  0.00    +0.013 A 
ATOM      3  C   UNL     1     -12.935  16.037  29.492  0.00  0.00    +0.019 A 
ATOM     38  C   UNL     1     -12.599  15.569  30.829  0.00  0.00    +0.120 A 
ATOM     39  N   UNL     1     -12.517  16.476  31.881  0.00  0.00    -0.263 NA
ATOM     40  C   UNL     1     -12.748  17.849  31.712  0.00  0.00    +0.111 A 
ENDBRANCH   4   3
ENDBRANCH  10   9
BRANCH  12  13
ATOM     13  N   UNL     1     -10.068   9.365  24.116  0.00  0.00    -0.281 N 
ATOM     14  C   UNL     1      -8.914   8.722  24.533  0.00  0.00    +0.248 C 
ATOM     30  O   UNL     1      -7.810   9.244  24.578  0.00  0.00    -0.270 OA
ATOM     31  H   UNL     1     -10.876   8.767  23.941  0.00  0.00    +0.155 HD
BRANCH  14  15
ATOM     15  C   UNL     1      -8.995   7.288  24.946  0.00  0.00    +0.037 A 
ATOM     16  C   UNL     1      -8.581   6.212  24.042  0.00  0.00    +0.013 A 
ATOM     17  C   UNL     1      -8.686   4.836  24.460  0.00  0.00    +0.005 A 
ATOM     18  C   UNL     1      -9.206   4.529  25.790  0.00  0.00    -0.033 A 
ATOM     28  C   UNL     1      -9.605   5.616  26.668  0.00  0.00    +0.005 A 
ATOM     29  C   UNL     1      -9.505   6.966  26.262  0.00  0.00    +0.013 A 
BRANCH  18  19
ATOM     19  C   UNL     1      -9.372   3.089  26.311  0.00  0.00    +0.119 C 
BRANCH  19  20
ATOM     20  N   UNL     1     -10.737   2.488  26.234  0.00  0.00    -0.302 NA
ATOM     21  C   UNL     1     -11.541   3.036  25.052  0.00  0.00    +0.066 C 
ATOM     22  C   UNL     1     -12.957   2.379  24.973  0.00  0.00    -0.064 C 
ATOM     23  N   UNL     1     -13.700   2.616  26.289  0.00  0.00    +0.379 N 
ATOM     24  C   UNL     1     -15.054   2.050  26.197  0.00  0.00    -0.096 C 
ATOM     25  H   UNL     1     -13.802   3.718  26.426  0.00  0.00    -0.082 HD
ATOM     26  C   UNL     1     -12.906   2.076  27.470  0.00  0.00    -0.064 C 
ATOM     27  C   UNL     1     -11.490   2.713  27.522  0.00  0.00    +0.066 C 
ENDBRANCH  19  20
ENDBRANCH  18  19
ENDBRANCH  14  15
ENDBRANCH  12  13
TORSDOF 6
ENDMDL
MODEL 4
REMARK VINA RESULT:      -8.5      5.496      9.951
REMARK  Name = C:\Users\Docking\Desktop\test protocol\1iep_ligandH.pdb
REMARK  8 active torsions:
REMARK  status: ('A' for Active; 'I' for Inactive)
REMARK    1  A    between atoms: _5  and  _11
REMARK    2  A    between atoms: _19  and  _21
REMARK    3  A    between atoms: _22  and  _66
REMARK    4  A    between atoms: _27  and  _30
REMARK    5  A    between atoms: _32  and  _33
REMARK    6  A    between atoms: _38  and  _43
REMARK    7  A    between atoms: _43  and  _46
REMARK    8  A    between atoms: _53  and  _55
REMARK                            x       y       z     vdW  Elec       q    Type
REMARK                         _______ _______ _______ _____ _____    ______ ____
ROOT
ATOM     10  C   UNL     1     -10.976  12.901  24.577  0.00  0.00    +0.038 A 
ATOM     11  C   UNL     1     -10.141  13.592  23.662  0.00  0.00    +0.047 A 
ATOM     12  C   UNL     1     -10.093  15.045  23.636  0.00  0.00    +0.035 A 
ATOM     32  C   UNL     1     -10.907  15.765  24.559  0.00  0.00    +0.024 A 
ATOM     33  C   UNL     1     -11.762  15.079  25.496  0.00  0.00    +0.007 A 
ATOM     34  C   UNL     1     -11.815  13.645  25.524  0.00  0.00    -0.029 A 
ATOM     35  C   UNL     1     -12.755  12.963  26.546  0.00  0.00    +0.045 C 
ENDROOT
BRANCH  10   9
ATOM      4  C   UNL     1      -8.844   8.649  25.221  0.00  0.00    +0.077 A 
ATOM      5  C   UNL     1      -7.604   9.262  25.600  0.00  0.00    +0.048 A 
ATOM      6  C   UNL     1      -7.554  10.674  25.610  0.00  0.00    +0.116 A 
ATOM      7  N   UNL     1      -8.668  11.408  25.265  0.00  0.00    -0.223 NA
ATOM      8  C   UNL     1      -9.848  10.786  24.902  0.00  0.00    +0.220 A 
ATOM      9  N   UNL     1     -10.983  11.505  24.559  0.00  0.00    -0.283 N 
ATOM     36  H   UNL     1     -11.832  11.008  24.289  0.00  0.00    +0.155 HD
ATOM     37  N   UNL     1      -9.921   9.439  24.883  0.00  0.00    -0.214 NA
BRANCH   4   3
ATOM      1  C   UNL     1      -8.752   4.905  24.091  0.00  0.00    +0.020 A 
ATOM      2  C   UNL     1      -8.520   6.331  24.098  0.00  0.00    +0.013 A 
ATOM      3  C   UNL     1      -9.055   7.168  25.165  0.00  0.00    +0.019 A 
ATOM     38  C   UNL     1      -9.826   6.525  26.218  0.00  0.00    +0.120 A 
ATOM     39  N   UNL     1     -10.035   5.150  26.185  0.00  0.00    -0.263 NA
ATOM     40  C   UNL     1      -9.526   4.335  25.162  0.00  0.00    +0.111 A 
ENDBRANCH   4   3
ENDBRANCH  10   9
BRANCH  12  13
ATOM     13  N   UNL     1      -9.271  15.801  22.723  0.00  0.00    -0.281 N 
ATOM     14  C   UNL     1      -7.986  16.275  22.928  0.00  0.00    +0.248 C 
ATOM     30  O   UNL     1      -7.425  16.305  24.014  0.00  0.00    -0.270 OA
ATOM     31  H   UNL     1      -9.687  16.011  21.816  0.00  0.00    +0.155 HD
BRANCH  14  15
ATOM     15  C   UNL     1      -7.218  16.807  21.761  0.00  0.00    +0.037 A 
ATOM     16  C   UNL     1      -6.785  18.206  21.710  0.00  0.00    +0.013 A 
ATOM     17  C   UNL     1      -6.060  18.697  20.565  0.00  0.00    +0.005 A 
ATOM     18  C   UNL     1      -5.762  17.786  19.462  0.00  0.00    -0.033 A 
ATOM     28  C   UNL     1      -6.198  16.402  19.541  0.00  0.00    +0.005 A 
ATOM     29  C   UNL     1      -6.910  15.918  20.662  0.00  0.00    +0.013 A 
BRANCH  18  19
ATOM     19  C   UNL     1      -5.012  18.229  18.191  0.00  0.00    +0.119 C 
BRANCH  19  20
ATOM     20  N   UNL     1      -3.830  17.416  17.777  0.00  0.00    -0.302 NA
ATOM     21  C   UNL     1      -2.579  17.764  18.589  0.00  0.00    +0.066 C 
ATOM     22  C   UNL     1      -1.358  16.888  18.157  0.00  0.00    -0.064 C 
ATOM     23  N   UNL     1      -1.102  17.077  16.661  0.00  0.00    +0.379 N 
ATOM     24  C   UNL     1       0.081  16.300  16.264  0.00  0.00    -0.096 C 
ATOM     25  H   UNL     1      -0.872  18.154  16.491  0.00  0.00    -0.082 HD
ATOM     26  C   UNL     1      -2.342  16.735  15.846  0.00  0.00    -0.064 C 
ATOM     27  C   UNL     1      -3.556  17.590  16.303  0.00  0.00    +0.066 C 
ENDBRANCH  19  20
ENDBRANCH  18  19
ENDBRANCH  14  15
ENDBRANCH  12  13
TORSDOF 6
ENDMDL
MODEL 5
REMARK VINA RESULT:      -8.4      2.713      3.217
REMARK  Name = C:\Users\Docking\Desktop\test protocol\1iep_ligandH.pdb
REMARK  8 active torsions:
REMARK  status: ('A' for Active; 'I' for Inactive)
REMARK    1  A    between atoms: _5  and  _11
REMARK    2  A    between atoms: _19  and  _21
REMARK    3  A    between atoms: _22  and  _66
REMARK    4  A    between atoms: _27  and  _30
REMARK    5  A    between atoms: _32  and  _33
REMARK    6  A    between atoms: _38  and  _43
REMARK    7  A    between atoms: _43  and  _46
REMARK    8  A    between atoms: _53  and  _55
REMARK                            x       y       z     vdW  Elec       q    Type
REMARK                         _______ _______ _______ _____ _____    ______ ____
ROOT
ATOM     10  C   UNL     1     -10.921  12.313  24.682  0.00  0.00    +0.038 A 
ATOM     11  C   UNL     1     -11.474  12.619  25.951  0.00  0.00    +0.047 A 
ATOM     12  C   UNL     1     -11.867  13.978  26.293  0.00  0.00    +0.035 A 
ATOM     32  C   UNL     1     -11.683  15.000  25.316  0.00  0.00    +0.024 A 
ATOM     33  C   UNL     1     -11.121  14.706  24.022  0.00  0.00    +0.007 A 
ATOM     34  C   UNL     1     -10.730  13.369  23.680  0.00  0.00    -0.029 A 
ATOM     35  C   UNL     1     -10.126  13.113  22.279  0.00  0.00    +0.045 C 
ENDROOT
BRANCH  10   9
ATOM      4  C   UNL     1      -7.872   8.615  24.935  0.00  0.00    +0.077 A 
ATOM      5  C   UNL     1      -6.900   9.389  25.653  0.00  0.00    +0.048 A 
ATOM      6  C   UNL     1      -7.221  10.736  25.931  0.00  0.00    +0.116 A 
ATOM      7  N   UNL     1      -8.426  11.260  25.517  0.00  0.00    -0.223 NA
ATOM      8  C   UNL     1      -9.340  10.487  24.825  0.00  0.00    +0.220 A 
ATOM      9  N   UNL     1     -10.562  10.991  24.407  0.00  0.00    -0.283 N 
ATOM     36  H   UNL     1     -11.206  10.391  23.892  0.00  0.00    +0.155 HD
ATOM     37  N   UNL     1      -9.057   9.198  24.546  0.00  0.00    -0.214 NA
BRANCH   4   3
ATOM      1  C   UNL     1      -8.549   4.858  24.080  0.00  0.00    +0.020 A 
ATOM      2  C   UNL     1      -8.788   6.238  24.436  0.00  0.00    +0.013 A 
ATOM      3  C   UNL     1      -7.680   7.176  24.569  0.00  0.00    +0.019 A 
ATOM     38  C   UNL     1      -6.332   6.681  24.333  0.00  0.00    +0.120 A 
ATOM     39  N   UNL     1      -6.132   5.347  23.993  0.00  0.00    -0.263 NA
ATOM     40  C   UNL     1      -7.191   4.435  23.864  0.00  0.00    +0.111 A 
ENDBRANCH   4   3
ENDBRANCH  10   9
BRANCH  12  13
ATOM     13  N   UNL     1     -12.426  14.350  27.568  0.00  0.00    -0.281 N 
ATOM     14  C   UNL     1     -11.798  15.003  28.616  0.00  0.00    +0.248 C 
ATOM     30  O   UNL     1     -10.592  15.178  28.697  0.00  0.00    -0.270 OA
ATOM     31  H   UNL     1     -13.405  14.102  27.717  0.00  0.00    +0.155 HD
BRANCH  14  15
ATOM     15  C   UNL     1     -12.629  15.526  29.743  0.00  0.00    +0.037 A 
ATOM     16  C   UNL     1     -12.063  16.425  30.751  0.00  0.00    +0.013 A 
ATOM     17  C   UNL     1     -12.882  16.901  31.838  0.00  0.00    +0.005 A 
ATOM     18  C   UNL     1     -14.278  16.478  31.921  0.00  0.00    -0.033 A 
ATOM     28  C   UNL     1     -14.816  15.589  30.904  0.00  0.00    +0.005 A 
ATOM     29  C   UNL     1     -14.015  15.120  29.838  0.00  0.00    +0.013 A 
BRANCH  18  19
ATOM     19  C   UNL     1     -15.219  16.920  33.057  0.00  0.00    +0.119 C 
BRANCH  19  20
ATOM     20  N   UNL     1     -15.514  18.379  33.174  0.00  0.00    -0.302 NA
ATOM     21  C   UNL     1     -16.338  18.701  34.423  0.00  0.00    +0.066 C 
ATOM     22  C   UNL     1     -16.617  20.235  34.541  0.00  0.00    -0.064 C 
ATOM     23  N   UNL     1     -17.335  20.718  33.280  0.00  0.00    +0.379 N 
ATOM     24  C   UNL     1     -17.650  22.148  33.412  0.00  0.00    -0.096 C 
ATOM     25  H   UNL     1     -18.299  20.164  33.206  0.00  0.00    -0.082 HD
ATOM     26  C   UNL     1     -16.523  20.400  32.032  0.00  0.00    -0.064 C 
ATOM     27  C   UNL     1     -16.226  18.877  31.940  0.00  0.00    +0.066 C 
ENDBRANCH  19  20
ENDBRANCH  18  19
ENDBRANCH  14  15
ENDBRANCH  12  13
TORSDOF 6
ENDMDL
