MODEL 1
REMARK VINA RESULT:      -9.3      0.000      0.000
REMARK  Name = C:\Users\Docking\Desktop\test protocol\1iep_ligandH.pdb
REMARK  8 active torsions:
REMARK  status: ('A' for Active; 'I' for Inactive)
REMARK    1  A    between atoms: _5  and  _11
REMARK    2  A    between atoms: _19  and  _21
REMARK    3  A    between atoms: _22  and  _66
REMARK    4  A    between atoms: _27  and  _30
REMARK    5  A    between atoms: _32  and  _33
REMARK    6  A    between atoms: _38  and  _43
REMARK    7  A    between atoms: _43  and  _46
REMARK    8  A    between atoms: _53  and  _55
REMARK                            x       y       z     vdW  Elec       q    Type
REMARK                         _______ _______ _______ _____ _____    ______ ____
ROOT
ATOM     10  C   UNL     1      -1.749  11.502 -56.485  0.00  0.00    +0.038 A 
ATOM     11  C   UNL     1      -1.792  11.795 -55.098  0.00  0.00    +0.047 A 
ATOM     12  C   UNL     1      -1.096  12.949 -54.551  0.00  0.00    +0.035 A 
ATOM     32  C   UNL     1      -0.367  13.785 -55.446  0.00  0.00    +0.024 A 
ATOM     33  C   UNL     1      -0.312  13.502 -56.859  0.00  0.00    +0.007 A 
ATOM     34  C   UNL     1      -0.995  12.364 -57.404  0.00  0.00    -0.029 A 
ATOM     35  C   UNL     1      -0.897  12.105 -58.925  0.00  0.00    +0.045 C 
ENDROOT
BRANCH  10   9
ATOM      4  C   UNL     1      -2.057   6.800 -57.396  0.00  0.00    +0.077 A 
ATOM      5  C   UNL     1      -0.726   6.560 -56.917  0.00  0.00    +0.048 A 
ATOM      6  C   UNL     1       0.007   7.675 -56.452  0.00  0.00    +0.116 A 
ATOM      7  N   UNL     1      -0.559   8.931 -56.468  0.00  0.00    -0.223 NA
ATOM      8  C   UNL     1      -1.845   9.128 -56.938  0.00  0.00    +0.220 A 
ATOM      9  N   UNL     1      -2.437  10.381 -56.957  0.00  0.00    -0.283 N 
ATOM     36  H   UNL     1      -3.384  10.486 -57.318  0.00  0.00    +0.155 HD
ATOM     37  N   UNL     1      -2.565   8.080 -57.389  0.00  0.00    -0.214 NA
BRANCH   4   3
ATOM      1  C   UNL     1      -3.373   3.448 -58.925  0.00  0.00    +0.020 A 
ATOM      2  C   UNL     1      -2.460   4.455 -58.434  0.00  0.00    +0.013 A 
ATOM      3  C   UNL     1      -2.958   5.723 -57.917  0.00  0.00    +0.019 A 
ATOM     38  C   UNL     1      -4.396   5.943 -57.910  0.00  0.00    +0.120 A 
ATOM     39  N   UNL     1      -5.251   4.956 -58.390  0.00  0.00    -0.263 NA
ATOM     40  C   UNL     1      -4.783   3.732 -58.892  0.00  0.00    +0.111 A 
ENDBRANCH   4   3
ENDBRANCH  10   9
BRANCH  12  13
ATOM     13  N   UNL     1      -1.096  13.292 -53.150  0.00  0.00    -0.281 N 
ATOM     14  C   UNL     1      -1.898  14.215 -52.500  0.00  0.00    +0.248 C 
ATOM     30  O   UNL     1      -2.595  15.045 -53.065  0.00  0.00    -0.270 OA
ATOM     31  H   UNL     1      -0.424  12.793 -52.568  0.00  0.00    +0.155 HD
BRANCH  14  15
ATOM     15  C   UNL     1      -1.919  14.228 -51.006  0.00  0.00    +0.037 A 
ATOM     16  C   UNL     1      -2.711  15.213 -50.265  0.00  0.00    +0.013 A 
ATOM     17  C   UNL     1      -2.700  15.215 -48.824  0.00  0.00    +0.005 A 
ATOM     18  C   UNL     1      -1.893  14.225 -48.113  0.00  0.00    -0.033 A 
ATOM     28  C   UNL     1      -1.120  13.257 -48.873  0.00  0.00    +0.005 A 
ATOM     29  C   UNL     1      -1.128  13.253 -50.286  0.00  0.00    +0.013 A 
BRANCH  18  19
ATOM     19  C   UNL     1      -1.804  14.166 -46.577  0.00  0.00    +0.119 C 
BRANCH  19  20
ATOM     20  N   UNL     1      -2.414  15.295 -45.813  0.00  0.00    -0.302 NA
ATOM     21  C   UNL     1      -1.393  16.393 -45.498  0.00  0.00    +0.066 C 
ATOM     22  C   UNL     1      -2.053  17.577 -44.718  0.00  0.00    -0.064 C 
ATOM     23  N   UNL     1      -2.690  17.045 -43.433  0.00  0.00    +0.379 N 
ATOM     24  C   UNL     1      -3.260  18.164 -42.669  0.00  0.00    -0.096 C 
ATOM     25  H   UNL     1      -1.879  16.593 -42.816  0.00  0.00    -0.082 HD
ATOM     26  C   UNL     1      -3.704  15.951 -43.736  0.00  0.00    -0.064 C 
ATOM     27  C   UNL     1      -3.045  14.793 -44.537  0.00  0.00    +0.066 C 
ENDBRANCH  19  20
ENDBRANCH  18  19
ENDBRANCH  14  15
ENDBRANCH  12  13
TORSDOF 6
ENDMDL
MODEL 2
REMARK VINA RESULT:      -8.9      4.568     13.301
REMARK  Name = C:\Users\Docking\Desktop\test protocol\1iep_ligandH.pdb
REMARK  8 active torsions:
REMARK  status: ('A' for Active; 'I' for Inactive)
REMARK    1  A    between atoms: _5  and  _11
REMARK    2  A    between atoms: _19  and  _21
REMARK    3  A    between atoms: _22  and  _66
REMARK    4  A    between atoms: _27  and  _30
REMARK    5  A    between atoms: _32  and  _33
REMARK    6  A    between atoms: _38  and  _43
REMARK    7  A    between atoms: _43  and  _46
REMARK    8  A    between atoms: _53  and  _55
REMARK                            x       y       z     vdW  Elec       q    Type
REMARK                         _______ _______ _______ _____ _____    ______ ____
ROOT
ATOM     10  C   UNL     1      -3.567  17.047 -46.874  0.00  0.00    +0.038 A 
ATOM     11  C   UNL     1      -3.046  16.286 -47.951  0.00  0.00    +0.047 A 
ATOM     12  C   UNL     1      -2.212  15.118 -47.713  0.00  0.00    +0.035 A 
ATOM     32  C   UNL     1      -1.931  14.752 -46.364  0.00  0.00    +0.024 A 
ATOM     33  C   UNL     1      -2.451  15.515 -45.257  0.00  0.00    +0.007 A 
ATOM     34  C   UNL     1      -3.272  16.670 -45.486  0.00  0.00    -0.029 A 
ATOM     35  C   UNL     1      -3.798  17.454 -44.262  0.00  0.00    +0.045 C 
ENDROOT
BRANCH  10   9
ATOM      4  C   UNL     1      -7.684  19.047 -48.319  0.00  0.00    +0.077 A 
ATOM      5  C   UNL     1      -8.293  17.769 -48.548  0.00  0.00    +0.048 A 
ATOM      6  C   UNL     1      -7.511  16.621 -48.289  0.00  0.00    +0.116 A 
ATOM      7  N   UNL     1      -6.217  16.754 -47.834  0.00  0.00    -0.223 NA
ATOM      8  C   UNL     1      -5.659  18.002 -47.625  0.00  0.00    +0.220 A 
ATOM      9  N   UNL     1      -4.362  18.159 -47.160  0.00  0.00    -0.283 N 
ATOM     36  H   UNL     1      -3.985  19.097 -47.026  0.00  0.00    +0.155 HD
ATOM     37  N   UNL     1      -6.385  19.113 -47.866  0.00  0.00    -0.214 NA
BRANCH   4   3
ATOM      1  C   UNL     1      -9.030  22.690 -47.852  0.00  0.00    +0.020 A 
ATOM      2  C   UNL     1      -8.337  21.450 -47.587  0.00  0.00    +0.013 A 
ATOM      3  C   UNL     1      -8.383  20.352 -48.543  0.00  0.00    +0.019 A 
ATOM     38  C   UNL     1      -9.145  20.542 -49.769  0.00  0.00    +0.120 A 
ATOM     39  N   UNL     1      -9.803  21.746 -49.997  0.00  0.00    -0.263 NA
ATOM     40  C   UNL     1      -9.767  22.810 -49.082  0.00  0.00    +0.111 A 
ENDBRANCH   4   3
ENDBRANCH  10   9
BRANCH  12  13
ATOM     13  N   UNL     1      -1.648  14.311 -48.767  0.00  0.00    -0.281 N 
ATOM     14  C   UNL     1      -2.258  13.893 -49.938  0.00  0.00    +0.248 C 
ATOM     30  O   UNL     1      -3.457  13.972 -50.159  0.00  0.00    -0.270 OA
ATOM     31  H   UNL     1      -0.682  14.012 -48.633  0.00  0.00    +0.155 HD
BRANCH  14  15
ATOM     15  C   UNL     1      -1.416  13.286 -51.014  0.00  0.00    +0.037 A 
ATOM     16  C   UNL     1      -0.470  12.207 -50.720  0.00  0.00    +0.013 A 
ATOM     17  C   UNL     1       0.343  11.651 -51.773  0.00  0.00    +0.005 A 
ATOM     18  C   UNL     1       0.211  12.174 -53.131  0.00  0.00    -0.033 A 
ATOM     28  C   UNL     1      -0.740  13.241 -53.395  0.00  0.00    +0.005 A 
ATOM     29  C   UNL     1      -1.537  13.789 -52.366  0.00  0.00    +0.013 A 
BRANCH  18  19
ATOM     19  C   UNL     1       1.052  11.655 -54.312  0.00  0.00    +0.119 C 
BRANCH  19  20
ATOM     20  N   UNL     1       0.315  11.172 -55.517  0.00  0.00    -0.302 NA
ATOM     21  C   UNL     1      -0.492   9.903 -55.227  0.00  0.00    +0.066 C 
ATOM     22  C   UNL     1      -1.276   9.424 -56.492  0.00  0.00    -0.064 C 
ATOM     23  N   UNL     1      -0.291   9.189 -57.639  0.00  0.00    +0.379 N 
ATOM     24  C   UNL     1      -1.018   8.683 -58.813  0.00  0.00    -0.096 C 
ATOM     25  H   UNL     1       0.422   8.396 -57.315  0.00  0.00    -0.082 HD
ATOM     26  C   UNL     1       0.517  10.445 -57.933  0.00  0.00    -0.064 C 
ATOM     27  C   UNL     1       1.268  10.929 -56.661  0.00  0.00    +0.066 C 
ENDBRANCH  19  20
ENDBRANCH  18  19
ENDBRANCH  14  15
ENDBRANCH  12  13
TORSDOF 6
ENDMDL
MODEL 3
REMARK VINA RESULT:      -8.8      4.760     13.079
REMARK  Name = C:\Users\Docking\Desktop\test protocol\1iep_ligandH.pdb
REMARK  8 active torsions:
REMARK  status: ('A' for Active; 'I' for Inactive)
REMARK    1  A    between atoms: _5  and  _11
REMARK    2  A    between atoms: _19  and  _21
REMARK    3  A    between atoms: _22  and  _66
REMARK    4  A    between atoms: _27  and  _30
REMARK    5  A    between atoms: _32  and  _33
REMARK    6  A    between atoms: _38  and  _43
REMARK    7  A    between atoms: _43  and  _46
REMARK    8  A    between atoms: _53  and  _55
REMARK                            x       y       z     vdW  Elec       q    Type
REMARK                         _______ _______ _______ _____ _____    ______ ____
ROOT
ATOM     10  C   UNL     1      -3.457  16.505 -47.344  0.00  0.00    +0.038 A 
ATOM     11  C   UNL     1      -2.906  15.836 -48.466  0.00  0.00    +0.047 A 
ATOM     12  C   UNL     1      -2.072  14.655 -48.304  0.00  0.00    +0.035 A 
ATOM     32  C   UNL     1      -1.824  14.180 -46.983  0.00  0.00    +0.024 A 
ATOM     33  C   UNL     1      -2.376  14.849 -45.831  0.00  0.00    +0.007 A 
ATOM     34  C   UNL     1      -3.196  16.016 -45.985  0.00  0.00    -0.029 A 
ATOM     35  C   UNL     1      -3.756  16.695 -44.713  0.00  0.00    +0.045 C 
ENDROOT
BRANCH  10   9
ATOM      4  C   UNL     1      -7.650  18.598 -48.382  0.00  0.00    +0.077 A 
ATOM      5  C   UNL     1      -8.310  17.334 -48.538  0.00  0.00    +0.048 A 
ATOM      6  C   UNL     1      -7.533  16.169 -48.349  0.00  0.00    +0.116 A 
ATOM      7  N   UNL     1      -6.197  16.272 -48.028  0.00  0.00    -0.223 NA
ATOM      8  C   UNL     1      -5.591  17.507 -47.888  0.00  0.00    +0.220 A 
ATOM      9  N   UNL     1      -4.250  17.635 -47.558  0.00  0.00    -0.283 N 
ATOM     36  H   UNL     1      -3.839  18.564 -47.470  0.00  0.00    +0.155 HD
ATOM     37  N   UNL     1      -6.311  18.635 -48.064  0.00  0.00    -0.214 NA
BRANCH   4   3
ATOM      1  C   UNL     1      -8.625  22.369 -48.022  0.00  0.00    +0.020 A 
ATOM      2  C   UNL     1      -7.928  21.119 -47.827  0.00  0.00    +0.013 A 
ATOM      3  C   UNL     1      -8.336  19.919 -48.546  0.00  0.00    +0.019 A 
ATOM     38  C   UNL     1      -9.462  20.019 -49.463  0.00  0.00    +0.120 A 
ATOM     39  N   UNL     1     -10.114  21.236 -49.630  0.00  0.00    -0.263 NA
ATOM     40  C   UNL     1      -9.732  22.397 -48.942  0.00  0.00    +0.111 A 
ENDBRANCH   4   3
ENDBRANCH  10   9
BRANCH  12  13
ATOM     13  N   UNL     1      -1.478  13.939 -49.405  0.00  0.00    -0.281 N 
ATOM     14  C   UNL     1      -2.083  13.538 -50.585  0.00  0.00    +0.248 C 
ATOM     30  O   UNL     1      -3.289  13.547 -50.782  0.00  0.00    -0.270 OA
ATOM     31  H   UNL     1      -0.492  13.699 -49.303  0.00  0.00    +0.155 HD
BRANCH  14  15
ATOM     15  C   UNL     1      -1.225  13.041 -51.704  0.00  0.00    +0.037 A 
ATOM     16  C   UNL     1      -0.254  11.964 -51.496  0.00  0.00    +0.013 A 
ATOM     17  C   UNL     1       0.573  11.516 -52.588  0.00  0.00    +0.005 A 
ATOM     18  C   UNL     1       0.431  12.144 -53.899  0.00  0.00    -0.033 A 
ATOM     28  C   UNL     1      -0.544  13.207 -54.079  0.00  0.00    +0.005 A 
ATOM     29  C   UNL     1      -1.356  13.650 -53.011  0.00  0.00    +0.013 A 
BRANCH  18  19
ATOM     19  C   UNL     1       1.287  11.743 -55.116  0.00  0.00    +0.119 C 
BRANCH  19  20
ATOM     20  N   UNL     1       2.248  10.615 -54.934  0.00  0.00    -0.302 NA
ATOM     21  C   UNL     1       3.704  11.081 -55.017  0.00  0.00    +0.066 C 
ATOM     22  C   UNL     1       4.696   9.891 -54.802  0.00  0.00    -0.064 C 
ATOM     23  N   UNL     1       4.415   8.804 -55.840  0.00  0.00    +0.379 N 
ATOM     24  C   UNL     1       5.384   7.710 -55.678  0.00  0.00    -0.096 C 
ATOM     25  H   UNL     1       4.575   9.251 -56.849  0.00  0.00    -0.082 HD
ATOM     26  C   UNL     1       2.969   8.336 -55.767  0.00  0.00    -0.064 C 
ATOM     27  C   UNL     1       1.992   9.531 -55.952  0.00  0.00    +0.066 C 
ENDBRANCH  19  20
ENDBRANCH  18  19
ENDBRANCH  14  15
ENDBRANCH  12  13
TORSDOF 6
ENDMDL
MODEL 4
REMARK VINA RESULT:      -8.6      2.923     13.137
REMARK  Name = C:\Users\Docking\Desktop\test protocol\1iep_ligandH.pdb
REMARK  8 active torsions:
REMARK  status: ('A' for Active; 'I' for Inactive)
REMARK    1  A    between atoms: _5  and  _11
REMARK    2  A    between atoms: _19  and  _21
REMARK    3  A    between atoms: _22  and  _66
REMARK    4  A    between atoms: _27  and  _30
REMARK    5  A    between atoms: _32  and  _33
REMARK    6  A    between atoms: _38  and  _43
REMARK    7  A    between atoms: _43  and  _46
REMARK    8  A    between atoms: _53  and  _55
REMARK                            x       y       z     vdW  Elec       q    Type
REMARK                         _______ _______ _______ _____ _____    ______ ____
ROOT
ATOM     10  C   UNL     1      -1.328  11.587 -55.596  0.00  0.00    +0.038 A 
ATOM     11  C   UNL     1      -1.862  10.284 -55.765  0.00  0.00    +0.047 A 
ATOM     12  C   UNL     1      -1.411   9.420 -56.845  0.00  0.00    +0.035 A 
ATOM     32  C   UNL     1      -0.413   9.915 -57.734  0.00  0.00    +0.024 A 
ATOM     33  C   UNL     1       0.141  11.237 -57.577  0.00  0.00    +0.007 A 
ATOM     34  C   UNL     1      -0.302  12.095 -56.515  0.00  0.00    -0.029 A 
ATOM     35  C   UNL     1       0.321  13.505 -56.399  0.00  0.00    +0.045 C 
ENDROOT
BRANCH  10   9
ATOM      4  C   UNL     1      -1.222  13.033 -51.021  0.00  0.00    +0.077 A 
ATOM      5  C   UNL     1      -0.160  12.125 -50.697  0.00  0.00    +0.048 A 
ATOM      6  C   UNL     1       0.326  11.298 -51.734  0.00  0.00    +0.116 A 
ATOM      7  N   UNL     1      -0.217  11.382 -52.998  0.00  0.00    -0.223 NA
ATOM      8  C   UNL     1      -1.242  12.267 -53.276  0.00  0.00    +0.220 A 
ATOM      9  N   UNL     1      -1.797  12.374 -54.542  0.00  0.00    -0.283 N 
ATOM     36  H   UNL     1      -2.557  13.034 -54.705  0.00  0.00    +0.155 HD
ATOM     37  N   UNL     1      -1.724  13.067 -52.302  0.00  0.00    -0.214 NA
BRANCH   4   3
ATOM      1  C   UNL     1      -1.929  15.113 -47.784  0.00  0.00    +0.020 A 
ATOM      2  C   UNL     1      -1.294  14.193 -48.700  0.00  0.00    +0.013 A 
ATOM      3  C   UNL     1      -1.840  13.974 -50.033  0.00  0.00    +0.019 A 
ATOM     38  C   UNL     1      -3.037  14.708 -50.413  0.00  0.00    +0.120 A 
ATOM     39  N   UNL     1      -3.628  15.586 -49.509  0.00  0.00    -0.263 NA
ATOM     40  C   UNL     1      -3.113  15.804 -48.223  0.00  0.00    +0.111 A 
ENDBRANCH   4   3
ENDBRANCH  10   9
BRANCH  12  13
ATOM     13  N   UNL     1      -1.923   8.092 -57.071  0.00  0.00    -0.281 N 
ATOM     14  C   UNL     1      -3.148   7.730 -57.608  0.00  0.00    +0.248 C 
ATOM     30  O   UNL     1      -4.081   8.500 -57.780  0.00  0.00    -0.270 OA
ATOM     31  H   UNL     1      -1.308   7.324 -56.803  0.00  0.00    +0.155 HD
BRANCH  14  15
ATOM     15  C   UNL     1      -3.373   6.305 -57.998  0.00  0.00    +0.037 A 
ATOM     16  C   UNL     1      -4.718   5.724 -58.008  0.00  0.00    +0.013 A 
ATOM     17  C   UNL     1      -4.906   4.342 -58.372  0.00  0.00    +0.005 A 
ATOM     18  C   UNL     1      -3.744   3.532 -58.731  0.00  0.00    -0.033 A 
ATOM     28  C   UNL     1      -2.422   4.135 -58.718  0.00  0.00    +0.005 A 
ATOM     29  C   UNL     1      -2.234   5.489 -58.361  0.00  0.00    +0.013 A 
BRANCH  18  19
ATOM     19  C   UNL     1      -3.849   2.043 -59.111  0.00  0.00    +0.119 C 
BRANCH  19  20
ATOM     20  N   UNL     1      -2.931   1.093 -58.414  0.00  0.00    -0.302 NA
ATOM     21  C   UNL     1      -2.284   0.102 -59.386  0.00  0.00    +0.066 C 
ATOM     22  C   UNL     1      -1.310  -0.870 -58.643  0.00  0.00    -0.064 C 
ATOM     23  N   UNL     1      -2.073  -1.610 -57.543  0.00  0.00    +0.379 N 
ATOM     24  C   UNL     1      -1.174  -2.566 -56.880  0.00  0.00    -0.096 C 
ATOM     25  H   UNL     1      -2.888  -2.193 -58.031  0.00  0.00    -0.082 HD
ATOM     26  C   UNL     1      -2.723  -0.632 -56.574  0.00  0.00    -0.064 C 
ATOM     27  C   UNL     1      -3.666   0.348 -57.327  0.00  0.00    +0.066 C 
ENDBRANCH  19  20
ENDBRANCH  18  19
ENDBRANCH  14  15
ENDBRANCH  12  13
TORSDOF 6
ENDMDL
MODEL 5
REMARK VINA RESULT:      -8.6      4.865     12.746
REMARK  Name = C:\Users\Docking\Desktop\test protocol\1iep_ligandH.pdb
REMARK  8 active torsions:
REMARK  status: ('A' for Active; 'I' for Inactive)
REMARK    1  A    between atoms: _5  and  _11
REMARK    2  A    between atoms: _19  and  _21
REMARK    3  A    between atoms: _22  and  _66
REMARK    4  A    between atoms: _27  and  _30
REMARK    5  A    between atoms: _32  and  _33
REMARK    6  A    between atoms: _38  and  _43
REMARK    7  A    between atoms: _43  and  _46
REMARK    8  A    between atoms: _53  and  _55
REMARK                            x       y       z     vdW  Elec       q    Type
REMARK                         _______ _______ _______ _____ _____    ______ ____
ROOT
ATOM     10  C   UNL     1      -2.867  15.366 -47.812  0.00  0.00    +0.038 A 
ATOM     11  C   UNL     1      -2.334  14.818 -49.006  0.00  0.00    +0.047 A 
ATOM     12  C   UNL     1      -1.471  13.647 -48.976  0.00  0.00    +0.035 A 
ATOM     32  C   UNL     1      -1.174  13.058 -47.712  0.00  0.00    +0.024 A 
ATOM     33  C   UNL     1      -1.708  13.603 -46.488  0.00  0.00    +0.007 A 
ATOM     34  C   UNL     1      -2.557  14.760 -46.511  0.00  0.00    -0.029 A 
ATOM     35  C   UNL     1      -3.095  15.305 -45.168  0.00  0.00    +0.045 C 
ENDROOT
BRANCH  10   9
ATOM      4  C   UNL     1      -7.159  17.437 -48.385  0.00  0.00    +0.077 A 
ATOM      5  C   UNL     1      -7.814  16.171 -48.552  0.00  0.00    +0.048 A 
ATOM      6  C   UNL     1      -7.009  15.012 -48.491  0.00  0.00    +0.116 A 
ATOM      7  N   UNL     1      -5.652  15.122 -48.277  0.00  0.00    -0.223 NA
ATOM      8  C   UNL     1      -5.052  16.358 -48.122  0.00  0.00    +0.220 A 
ATOM      9  N   UNL     1      -3.690  16.491 -47.899  0.00  0.00    -0.283 N 
ATOM     36  H   UNL     1      -3.285  17.422 -47.796  0.00  0.00    +0.155 HD
ATOM     37  N   UNL     1      -5.799  17.480 -48.178  0.00  0.00    -0.214 NA
BRANCH   4   3
ATOM      1  C   UNL     1      -9.955  20.160 -48.648  0.00  0.00    +0.020 A 
ATOM      2  C   UNL     1      -9.314  18.866 -48.622  0.00  0.00    +0.013 A 
ATOM      3  C   UNL     1      -7.875  18.752 -48.421  0.00  0.00    +0.019 A 
ATOM     38  C   UNL     1      -7.108  19.976 -48.247  0.00  0.00    +0.120 A 
ATOM     39  N   UNL     1      -7.753  21.209 -48.278  0.00  0.00    -0.263 NA
ATOM     40  C   UNL     1      -9.137  21.331 -48.473  0.00  0.00    +0.111 A 
ENDBRANCH   4   3
ENDBRANCH  10   9
BRANCH  12  13
ATOM     13  N   UNL     1      -0.893  13.050 -50.155  0.00  0.00    -0.281 N 
ATOM     14  C   UNL     1      -1.506  12.805 -51.373  0.00  0.00    +0.248 C 
ATOM     30  O   UNL     1      -2.712  12.866 -51.564  0.00  0.00    -0.270 OA
ATOM     31  H   UNL     1       0.086  12.776 -50.083  0.00  0.00    +0.155 HD
BRANCH  14  15
ATOM     15  C   UNL     1      -0.660  12.421 -52.543  0.00  0.00    +0.037 A 
ATOM     16  C   UNL     1       0.325  11.341 -52.447  0.00  0.00    +0.013 A 
ATOM     17  C   UNL     1       1.141  11.003 -53.586  0.00  0.00    +0.005 A 
ATOM     18  C   UNL     1       0.974  11.746 -54.833  0.00  0.00    -0.033 A 
ATOM     28  C   UNL     1      -0.014  12.809 -54.902  0.00  0.00    +0.005 A 
ATOM     29  C   UNL     1      -0.815  13.145 -53.787  0.00  0.00    +0.013 A 
BRANCH  18  19
ATOM     19  C   UNL     1       1.816  11.467 -56.092  0.00  0.00    +0.119 C 
BRANCH  19  20
ATOM     20  N   UNL     1       2.797  12.515 -56.504  0.00  0.00    -0.302 NA
ATOM     21  C   UNL     1       2.488  13.076 -57.895  0.00  0.00    +0.066 C 
ATOM     22  C   UNL     1       3.510  14.187 -58.301  0.00  0.00    -0.064 C 
ATOM     23  N   UNL     1       4.928  13.614 -58.251  0.00  0.00    +0.379 N 
ATOM     24  C   UNL     1       5.887  14.639 -58.688  0.00  0.00    -0.096 C 
ATOM     25  H   UNL     1       4.978  12.771 -58.979  0.00  0.00    -0.082 HD
ATOM     26  C   UNL     1       5.243  13.052 -56.872  0.00  0.00    -0.064 C 
ATOM     27  C   UNL     1       4.204  11.970 -56.466  0.00  0.00    +0.066 C 
ENDBRANCH  19  20
ENDBRANCH  18  19
ENDBRANCH  14  15
ENDBRANCH  12  13
TORSDOF 6
ENDMDL
