MODEL 1
REMARK VINA RESULT:      -7.0      0.000      0.000
REMARK  Name = C:\Users\Docking\Desktop\test protocol\1iep_ligandH.pdb
REMARK  8 active torsions:
REMARK  status: ('A' for Active; 'I' for Inactive)
REMARK    1  A    between atoms: _5  and  _11
REMARK    2  A    between atoms: _19  and  _21
REMARK    3  A    between atoms: _22  and  _66
REMARK    4  A    between atoms: _27  and  _30
REMARK    5  A    between atoms: _32  and  _33
REMARK    6  A    between atoms: _38  and  _43
REMARK    7  A    between atoms: _43  and  _46
REMARK    8  A    between atoms: _53  and  _55
REMARK                            x       y       z     vdW  Elec       q    Type
REMARK                         _______ _______ _______ _____ _____    ______ ____
ROOT
ATOM     10  C   UNL     1      32.702   5.385  59.794  0.00  0.00    +0.038 A 
ATOM     11  C   UNL     1      32.553   3.979  59.680  0.00  0.00    +0.047 A 
ATOM     12  C   UNL     1      31.326   3.317  60.094  0.00  0.00    +0.035 A 
ATOM     32  C   UNL     1      30.270   4.117  60.619  0.00  0.00    +0.024 A 
ATOM     33  C   UNL     1      30.405   5.547  60.744  0.00  0.00    +0.007 A 
ATOM     34  C   UNL     1      31.614   6.206  60.339  0.00  0.00    -0.029 A 
ATOM     35  C   UNL     1      31.706   7.741  60.501  0.00  0.00    +0.045 C 
ENDROOT
BRANCH  10   9
ATOM      4  C   UNL     1      37.429   6.102  60.222  0.00  0.00    +0.077 A 
ATOM      5  C   UNL     1      37.511   5.263  61.383  0.00  0.00    +0.048 A 
ATOM      6  C   UNL     1      36.312   4.672  61.842  0.00  0.00    +0.116 A 
ATOM      7  N   UNL     1      35.126   4.908  61.181  0.00  0.00    -0.223 NA
ATOM      8  C   UNL     1      35.082   5.724  60.066  0.00  0.00    +0.220 A 
ATOM      9  N   UNL     1      33.902   5.969  59.381  0.00  0.00    -0.283 N 
ATOM     36  H   UNL     1      33.909   6.583  58.567  0.00  0.00    +0.155 HD
ATOM     37  N   UNL     1      36.212   6.301  59.608  0.00  0.00    -0.214 NA
BRANCH   4   3
ATOM      1  C   UNL     1      40.402   8.569  59.609  0.00  0.00    +0.020 A 
ATOM      2  C   UNL     1      39.265   7.936  60.238  0.00  0.00    +0.013 A 
ATOM      3  C   UNL     1      38.608   6.794  59.614  0.00  0.00    +0.019 A 
ATOM     38  C   UNL     1      39.131   6.313  58.343  0.00  0.00    +0.120 A 
ATOM     39  N   UNL     1      40.226   6.944  57.761  0.00  0.00    -0.263 NA
ATOM     40  C   UNL     1      40.865   8.044  58.351  0.00  0.00    +0.111 A 
ENDBRANCH   4   3
ENDBRANCH  10   9
BRANCH  12  13
ATOM     13  N   UNL     1      31.120   1.892  60.009  0.00  0.00    -0.281 N 
ATOM     14  C   UNL     1      31.197   0.958  61.030  0.00  0.00    +0.248 C 
ATOM     30  O   UNL     1      31.667   1.180  62.136  0.00  0.00    -0.270 OA
ATOM     31  H   UNL     1      30.889   1.528  59.085  0.00  0.00    +0.155 HD
BRANCH  14  15
ATOM     15  C   UNL     1      30.691  -0.426  60.781  0.00  0.00    +0.037 A 
ATOM     16  C   UNL     1      29.892  -1.135  61.783  0.00  0.00    +0.013 A 
ATOM     17  C   UNL     1      29.432  -2.477  61.524  0.00  0.00    +0.005 A 
ATOM     18  C   UNL     1      29.769  -3.117  60.255  0.00  0.00    -0.033 A 
ATOM     28  C   UNL     1      30.559  -2.389  59.276  0.00  0.00    +0.005 A 
ATOM     29  C   UNL     1      31.013  -1.075  59.527  0.00  0.00    +0.013 A 
BRANCH  18  19
ATOM     19  C   UNL     1      29.338  -4.553  59.903  0.00  0.00    +0.119 C 
BRANCH  19  20
ATOM     20  N   UNL     1      28.419  -4.725  58.739  0.00  0.00    -0.302 NA
ATOM     21  C   UNL     1      27.288  -3.692  58.742  0.00  0.00    +0.066 C 
ATOM     22  C   UNL     1      26.349  -3.872  57.506  0.00  0.00    -0.064 C 
ATOM     23  N   UNL     1      25.784  -5.293  57.501  0.00  0.00    +0.379 N 
ATOM     24  C   UNL     1      24.855  -5.448  56.372  0.00  0.00    -0.096 C 
ATOM     25  H   UNL     1      25.199  -5.428  58.441  0.00  0.00    -0.082 HD
ATOM     26  C   UNL     1      26.901  -6.327  57.500  0.00  0.00    -0.064 C 
ATOM     27  C   UNL     1      27.846  -6.121  58.717  0.00  0.00    +0.066 C 
ENDBRANCH  19  20
ENDBRANCH  18  19
ENDBRANCH  14  15
ENDBRANCH  12  13
TORSDOF 6
ENDMDL
MODEL 2
REMARK VINA RESULT:      -6.9      1.289      2.111
REMARK  Name = C:\Users\Docking\Desktop\test protocol\1iep_ligandH.pdb
REMARK  8 active torsions:
REMARK  status: ('A' for Active; 'I' for Inactive)
REMARK    1  A    between atoms: _5  and  _11
REMARK    2  A    between atoms: _19  and  _21
REMARK    3  A    between atoms: _22  and  _66
REMARK    4  A    between atoms: _27  and  _30
REMARK    5  A    between atoms: _32  and  _33
REMARK    6  A    between atoms: _38  and  _43
REMARK    7  A    between atoms: _43  and  _46
REMARK    8  A    between atoms: _53  and  _55
REMARK                            x       y       z     vdW  Elec       q    Type
REMARK                         _______ _______ _______ _____ _____    ______ ____
ROOT
ATOM     10  C   UNL     1      32.856   5.611  59.890  0.00  0.00    +0.038 A 
ATOM     11  C   UNL     1      32.596   4.242  59.629  0.00  0.00    +0.047 A 
ATOM     12  C   UNL     1      31.352   3.618  60.055  0.00  0.00    +0.035 A 
ATOM     32  C   UNL     1      30.395   4.420  60.741  0.00  0.00    +0.024 A 
ATOM     33  C   UNL     1      30.644   5.814  61.015  0.00  0.00    +0.007 A 
ATOM     34  C   UNL     1      31.870   6.434  60.600  0.00  0.00    -0.029 A 
ATOM     35  C   UNL     1      32.086   7.930  60.926  0.00  0.00    +0.045 C 
ENDROOT
BRANCH  10   9
ATOM      4  C   UNL     1      37.560   6.416  60.405  0.00  0.00    +0.077 A 
ATOM      5  C   UNL     1      37.604   5.709  61.653  0.00  0.00    +0.048 A 
ATOM      6  C   UNL     1      36.393   5.160  62.131  0.00  0.00    +0.116 A 
ATOM      7  N   UNL     1      35.231   5.312  61.406  0.00  0.00    -0.223 NA
ATOM      8  C   UNL     1      35.223   6.000  60.207  0.00  0.00    +0.220 A 
ATOM      9  N   UNL     1      34.067   6.158  59.458  0.00  0.00    -0.283 N 
ATOM     36  H   UNL     1      34.101   6.680  58.582  0.00  0.00    +0.155 HD
ATOM     37  N   UNL     1      36.366   6.536  59.730  0.00  0.00    -0.214 NA
BRANCH   4   3
ATOM      1  C   UNL     1      40.608   8.762  59.697  0.00  0.00    +0.020 A 
ATOM      2  C   UNL     1      39.457   8.187  60.352  0.00  0.00    +0.013 A 
ATOM      3  C   UNL     1      38.757   7.050  59.768  0.00  0.00    +0.019 A 
ATOM     38  C   UNL     1      39.253   6.513  58.510  0.00  0.00    +0.120 A 
ATOM     39  N   UNL     1      40.364   7.088  57.901  0.00  0.00    -0.263 NA
ATOM     40  C   UNL     1      41.044   8.184  58.453  0.00  0.00    +0.111 A 
ENDBRANCH   4   3
ENDBRANCH  10   9
BRANCH  12  13
ATOM     13  N   UNL     1      31.036   2.230  59.826  0.00  0.00    -0.281 N 
ATOM     14  C   UNL     1      30.750   1.255  60.767  0.00  0.00    +0.248 C 
ATOM     30  O   UNL     1      30.934   1.380  61.969  0.00  0.00    -0.270 OA
ATOM     31  H   UNL     1      31.020   1.930  58.851  0.00  0.00    +0.155 HD
BRANCH  14  15
ATOM     15  C   UNL     1      30.193  -0.053  60.306  0.00  0.00    +0.037 A 
ATOM     16  C   UNL     1      31.041  -1.049  59.646  0.00  0.00    +0.013 A 
ATOM     17  C   UNL     1      30.474  -2.296  59.196  0.00  0.00    +0.005 A 
ATOM     18  C   UNL     1      29.052  -2.554  59.406  0.00  0.00    -0.033 A 
ATOM     28  C   UNL     1      28.235  -1.550  60.068  0.00  0.00    +0.005 A 
ATOM     29  C   UNL     1      28.786  -0.326  60.510  0.00  0.00    +0.013 A 
BRANCH  18  19
ATOM     19  C   UNL     1      28.358  -3.847  58.939  0.00  0.00    +0.119 C 
BRANCH  19  20
ATOM     20  N   UNL     1      28.403  -5.019  59.864  0.00  0.00    -0.302 NA
ATOM     21  C   UNL     1      29.678  -5.848  59.679  0.00  0.00    +0.066 C 
ATOM     22  C   UNL     1      29.719  -7.057  60.669  0.00  0.00    -0.064 C 
ATOM     23  N   UNL     1      28.475  -7.923  60.465  0.00  0.00    +0.379 N 
ATOM     24  C   UNL     1      28.539  -9.092  61.354  0.00  0.00    -0.096 C 
ATOM     25  H   UNL     1      28.492  -8.296  59.414  0.00  0.00    -0.082 HD
ATOM     26  C   UNL     1      27.203  -7.106  60.644  0.00  0.00    -0.064 C 
ATOM     27  C   UNL     1      27.186  -5.891  59.675  0.00  0.00    +0.066 C 
ENDBRANCH  19  20
ENDBRANCH  18  19
ENDBRANCH  14  15
ENDBRANCH  12  13
TORSDOF 6
ENDMDL
MODEL 3
REMARK VINA RESULT:      -6.6     15.820     20.244
REMARK  Name = C:\Users\Docking\Desktop\test protocol\1iep_ligandH.pdb
REMARK  8 active torsions:
REMARK  status: ('A' for Active; 'I' for Inactive)
REMARK    1  A    between atoms: _5  and  _11
REMARK    2  A    between atoms: _19  and  _21
REMARK    3  A    between atoms: _22  and  _66
REMARK    4  A    between atoms: _27  and  _30
REMARK    5  A    between atoms: _32  and  _33
REMARK    6  A    between atoms: _38  and  _43
REMARK    7  A    between atoms: _43  and  _46
REMARK    8  A    between atoms: _53  and  _55
REMARK                            x       y       z     vdW  Elec       q    Type
REMARK                         _______ _______ _______ _____ _____    ______ ____
ROOT
ATOM     10  C   UNL     1      39.662   0.958  43.783  0.00  0.00    +0.038 A 
ATOM     11  C   UNL     1      39.276   2.323  43.779  0.00  0.00    +0.047 A 
ATOM     12  C   UNL     1      39.482   3.160  42.607  0.00  0.00    +0.035 A 
ATOM     32  C   UNL     1      40.082   2.573  41.455  0.00  0.00    +0.024 A 
ATOM     33  C   UNL     1      40.482   1.188  41.442  0.00  0.00    +0.007 A 
ATOM     34  C   UNL     1      40.283   0.358  42.596  0.00  0.00    -0.029 A 
ATOM     35  C   UNL     1      40.737  -1.119  42.528  0.00  0.00    +0.045 C 
ENDROOT
BRANCH  10   9
ATOM      4  C   UNL     1      41.068  -0.823  48.013  0.00  0.00    +0.077 A 
ATOM      5  C   UNL     1      42.363  -0.215  47.905  0.00  0.00    +0.048 A 
ATOM      6  C   UNL     1      42.630   0.542  46.742  0.00  0.00    +0.116 A 
ATOM      7  N   UNL     1      41.666   0.675  45.766  0.00  0.00    -0.223 NA
ATOM      8  C   UNL     1      40.428   0.074  45.901  0.00  0.00    +0.220 A 
ATOM      9  N   UNL     1      39.441   0.201  44.936  0.00  0.00    -0.283 N 
ATOM     36  H   UNL     1      38.543  -0.264  45.069  0.00  0.00    +0.155 HD
ATOM     37  N   UNL     1      40.149  -0.655  47.001  0.00  0.00    -0.214 NA
BRANCH   4   3
ATOM      1  C   UNL     1      40.606  -3.788  50.521  0.00  0.00    +0.020 A 
ATOM      2  C   UNL     1      41.052  -3.033  49.373  0.00  0.00    +0.013 A 
ATOM      3  C   UNL     1      40.635  -1.650  49.183  0.00  0.00    +0.019 A 
ATOM     38  C   UNL     1      39.759  -1.055  50.181  0.00  0.00    +0.120 A 
ATOM     39  N   UNL     1      39.344  -1.807  51.275  0.00  0.00    -0.263 NA
ATOM     40  C   UNL     1      39.737  -3.140  51.468  0.00  0.00    +0.111 A 
ENDBRANCH   4   3
ENDBRANCH  10   9
BRANCH  12  13
ATOM     13  N   UNL     1      39.118   4.554  42.548  0.00  0.00    -0.281 N 
ATOM     14  C   UNL     1      37.863   5.097  42.325  0.00  0.00    +0.248 C 
ATOM     30  O   UNL     1      36.896   4.464  41.930  0.00  0.00    -0.270 OA
ATOM     31  H   UNL     1      39.877   5.221  42.686  0.00  0.00    +0.155 HD
BRANCH  14  15
ATOM     15  C   UNL     1      37.657   6.558  42.563  0.00  0.00    +0.037 A 
ATOM     16  C   UNL     1      36.534   7.046  43.367  0.00  0.00    +0.013 A 
ATOM     17  C   UNL     1      36.348   8.462  43.566  0.00  0.00    +0.005 A 
ATOM     18  C   UNL     1      37.290   9.400  42.961  0.00  0.00    -0.033 A 
ATOM     28  C   UNL     1      38.399   8.888  42.173  0.00  0.00    +0.005 A 
ATOM     29  C   UNL     1      38.584   7.502  41.974  0.00  0.00    +0.013 A 
BRANCH  18  19
ATOM     19  C   UNL     1      37.157  10.928  43.104  0.00  0.00    +0.119 C 
BRANCH  19  20
ATOM     20  N   UNL     1      36.766  11.697  41.885  0.00  0.00    -0.302 NA
ATOM     21  C   UNL     1      36.462  13.163  42.204  0.00  0.00    +0.066 C 
ATOM     22  C   UNL     1      36.076  13.958  40.914  0.00  0.00    -0.064 C 
ATOM     23  N   UNL     1      34.874  13.289  40.246  0.00  0.00    +0.379 N 
ATOM     24  C   UNL     1      34.473  14.067  39.065  0.00  0.00    -0.096 C 
ATOM     25  H   UNL     1      34.028  13.313  40.971  0.00  0.00    -0.082 HD
ATOM     26  C   UNL     1      35.167  11.829  39.928  0.00  0.00    -0.064 C 
ATOM     27  C   UNL     1      35.578  11.055  41.212  0.00  0.00    +0.066 C 
ENDBRANCH  19  20
ENDBRANCH  18  19
ENDBRANCH  14  15
ENDBRANCH  12  13
TORSDOF 6
ENDMDL
MODEL 4
REMARK VINA RESULT:      -6.6     17.005     26.846
REMARK  Name = C:\Users\Docking\Desktop\test protocol\1iep_ligandH.pdb
REMARK  8 active torsions:
REMARK  status: ('A' for Active; 'I' for Inactive)
REMARK    1  A    between atoms: _5  and  _11
REMARK    2  A    between atoms: _19  and  _21
REMARK    3  A    between atoms: _22  and  _66
REMARK    4  A    between atoms: _27  and  _30
REMARK    5  A    between atoms: _32  and  _33
REMARK    6  A    between atoms: _38  and  _43
REMARK    7  A    between atoms: _43  and  _46
REMARK    8  A    between atoms: _53  and  _55
REMARK                            x       y       z     vdW  Elec       q    Type
REMARK                         _______ _______ _______ _____ _____    ______ ____
ROOT
ATOM     10  C   UNL     1      15.682 -14.842  49.476  0.00  0.00    +0.038 A 
ATOM     11  C   UNL     1      16.548 -14.980  50.591  0.00  0.00    +0.047 A 
ATOM     12  C   UNL     1      17.506 -13.941  50.933  0.00  0.00    +0.035 A 
ATOM     32  C   UNL     1      17.554 -12.771  50.119  0.00  0.00    +0.024 A 
ATOM     33  C   UNL     1      16.682 -12.615  48.982  0.00  0.00    +0.007 A 
ATOM     34  C   UNL     1      15.736 -13.638  48.638  0.00  0.00    -0.029 A 
ATOM     35  C   UNL     1      14.831 -13.420  47.404  0.00  0.00    +0.045 C 
ENDROOT
BRANCH  10   9
ATOM      4  C   UNL     1      14.485 -18.930  47.265  0.00  0.00    +0.077 A 
ATOM      5  C   UNL     1      15.751 -19.008  46.595  0.00  0.00    +0.048 A 
ATOM      6  C   UNL     1      16.680 -17.972  46.841  0.00  0.00    +0.116 A 
ATOM      7  N   UNL     1      16.356 -16.941  47.696  0.00  0.00    -0.223 NA
ATOM      8  C   UNL     1      15.126 -16.895  48.324  0.00  0.00    +0.220 A 
ATOM      9  N   UNL     1      14.782 -15.872  49.194  0.00  0.00    -0.283 N 
ATOM     36  H   UNL     1      13.861 -15.870  49.632  0.00  0.00    +0.155 HD
ATOM     37  N   UNL     1      14.221 -17.872  48.105  0.00  0.00    -0.214 NA
BRANCH   4   3
ATOM      1  C   UNL     1      11.636 -21.497  48.037  0.00  0.00    +0.020 A 
ATOM      2  C   UNL     1      12.675 -20.514  48.241  0.00  0.00    +0.013 A 
ATOM      3  C   UNL     1      13.401 -19.951  47.110  0.00  0.00    +0.019 A 
ATOM     38  C   UNL     1      13.047 -20.406  45.774  0.00  0.00    +0.120 A 
ATOM     39  N   UNL     1      12.042 -21.354  45.607  0.00  0.00    -0.263 NA
ATOM     40  C   UNL     1      11.338 -21.905  46.689  0.00  0.00    +0.111 A 
ENDBRANCH   4   3
ENDBRANCH  10   9
BRANCH  12  13
ATOM     13  N   UNL     1      18.416 -14.029  52.048  0.00  0.00    -0.281 N 
ATOM     14  C   UNL     1      19.800 -13.993  52.023  0.00  0.00    +0.248 C 
ATOM     30  O   UNL     1      20.476 -14.095  51.009  0.00  0.00    -0.270 OA
ATOM     31  H   UNL     1      17.987 -14.129  52.969  0.00  0.00    +0.155 HD
BRANCH  14  15
ATOM     15  C   UNL     1      20.543 -13.836  53.311  0.00  0.00    +0.037 A 
ATOM     16  C   UNL     1      19.843 -13.847  54.597  0.00  0.00    +0.013 A 
ATOM     17  C   UNL     1      20.581 -13.677  55.824  0.00  0.00    +0.005 A 
ATOM     18  C   UNL     1      22.029 -13.495  55.769  0.00  0.00    -0.033 A 
ATOM     28  C   UNL     1      22.699 -13.493  54.479  0.00  0.00    +0.005 A 
ATOM     29  C   UNL     1      21.979 -13.659  53.274  0.00  0.00    +0.013 A 
BRANCH  18  19
ATOM     19  C   UNL     1      22.894 -13.285  57.025  0.00  0.00    +0.119 C 
BRANCH  19  20
ATOM     20  N   UNL     1      22.385 -12.330  58.054  0.00  0.00    -0.302 NA
ATOM     21  C   UNL     1      22.825 -10.891  57.770  0.00  0.00    +0.066 C 
ATOM     22  C   UNL     1      22.264  -9.902  58.844  0.00  0.00    -0.064 C 
ATOM     23  N   UNL     1      22.727 -10.346  60.233  0.00  0.00    +0.379 N 
ATOM     24  C   UNL     1      22.250  -9.385  61.239  0.00  0.00    -0.096 C 
ATOM     25  H   UNL     1      23.841 -10.320  60.242  0.00  0.00    -0.082 HD
ATOM     26  C   UNL     1      22.296 -11.776  60.522  0.00  0.00    -0.064 C 
ATOM     27  C   UNL     1      22.833 -12.747  59.433  0.00  0.00    +0.066 C 
ENDBRANCH  19  20
ENDBRANCH  18  19
ENDBRANCH  14  15
ENDBRANCH  12  13
TORSDOF 6
ENDMDL
MODEL 5
REMARK VINA RESULT:      -6.5     32.517     35.695
REMARK  Name = C:\Users\Docking\Desktop\test protocol\1iep_ligandH.pdb
REMARK  8 active torsions:
REMARK  status: ('A' for Active; 'I' for Inactive)
REMARK    1  A    between atoms: _5  and  _11
REMARK    2  A    between atoms: _19  and  _21
REMARK    3  A    between atoms: _22  and  _66
REMARK    4  A    between atoms: _27  and  _30
REMARK    5  A    between atoms: _32  and  _33
REMARK    6  A    between atoms: _38  and  _43
REMARK    7  A    between atoms: _43  and  _46
REMARK    8  A    between atoms: _53  and  _55
REMARK                            x       y       z     vdW  Elec       q    Type
REMARK                         _______ _______ _______ _____ _____    ______ ____
ROOT
ATOM     10  C   UNL     1      32.260 -31.467  44.656  0.00  0.00    +0.038 A 
ATOM     11  C   UNL     1      30.993 -30.830  44.626  0.00  0.00    +0.047 A 
ATOM     12  C   UNL     1      29.762 -31.605  44.602  0.00  0.00    +0.035 A 
ATOM     32  C   UNL     1      29.859 -33.027  44.612  0.00  0.00    +0.024 A 
ATOM     33  C   UNL     1      31.139 -33.690  44.642  0.00  0.00    +0.007 A 
ATOM     34  C   UNL     1      32.356 -32.931  44.663  0.00  0.00    -0.029 A 
ATOM     35  C   UNL     1      33.700 -33.696  44.688  0.00  0.00    +0.045 C 
ENDROOT
BRANCH  10   9
ATOM      4  C   UNL     1      35.490 -28.634  42.515  0.00  0.00    +0.077 A 
ATOM      5  C   UNL     1      34.848 -28.767  41.239  0.00  0.00    +0.048 A 
ATOM      6  C   UNL     1      33.693 -29.579  41.174  0.00  0.00    +0.116 A 
ATOM      7  N   UNL     1      33.224 -30.206  42.308  0.00  0.00    -0.223 NA
ATOM      8  C   UNL     1      33.868 -30.058  43.523  0.00  0.00    +0.220 A 
ATOM      9  N   UNL     1      33.410 -30.674  44.678  0.00  0.00    -0.283 N 
ATOM     36  H   UNL     1      33.917 -30.546  45.553  0.00  0.00    +0.155 HD
ATOM     37  N   UNL     1      34.974 -29.289  43.610  0.00  0.00    -0.214 NA
BRANCH   4   3
ATOM      1  C   UNL     1      38.671 -27.049  44.147  0.00  0.00    +0.020 A 
ATOM      2  C   UNL     1      37.493 -27.867  43.976  0.00  0.00    +0.013 A 
ATOM      3  C   UNL     1      36.717 -27.808  42.744  0.00  0.00    +0.019 A 
ATOM     38  C   UNL     1      37.164 -26.903  41.695  0.00  0.00    +0.120 A 
ATOM     39  N   UNL     1      38.302 -26.126  41.888  0.00  0.00    -0.263 NA
ATOM     40  C   UNL     1      39.056 -26.173  43.071  0.00  0.00    +0.111 A 
ENDBRANCH   4   3
ENDBRANCH  10   9
BRANCH  12  13
ATOM     13  N   UNL     1      28.448 -31.014  44.563  0.00  0.00    -0.281 N 
ATOM     14  C   UNL     1      27.223 -31.662  44.534  0.00  0.00    +0.248 C 
ATOM     30  O   UNL     1      27.078 -32.857  44.322  0.00  0.00    -0.270 OA
ATOM     31  H   UNL     1      28.415 -29.995  44.555  0.00  0.00    +0.155 HD
BRANCH  14  15
ATOM     15  C   UNL     1      25.979 -30.865  44.761  0.00  0.00    +0.037 A 
ATOM     16  C   UNL     1      24.670 -31.514  44.868  0.00  0.00    +0.013 A 
ATOM     17  C   UNL     1      23.484 -30.720  45.069  0.00  0.00    +0.005 A 
ATOM     18  C   UNL     1      23.602 -29.267  45.166  0.00  0.00    -0.033 A 
ATOM     28  C   UNL     1      24.914 -28.650  45.061  0.00  0.00    +0.005 A 
ATOM     29  C   UNL     1      26.079 -29.425  44.863  0.00  0.00    +0.013 A 
BRANCH  18  19
ATOM     19  C   UNL     1      22.388 -28.340  45.359  0.00  0.00    +0.119 C 
BRANCH  19  20
ATOM     20  N   UNL     1      22.391 -27.045  44.616  0.00  0.00    -0.302 NA
ATOM     21  C   UNL     1      22.680 -25.856  45.537  0.00  0.00    +0.066 C 
ATOM     22  C   UNL     1      22.703 -24.511  44.740  0.00  0.00    -0.064 C 
ATOM     23  N   UNL     1      21.366 -24.326  44.019  0.00  0.00    +0.379 N 
ATOM     24  C   UNL     1      21.363 -23.035  43.316  0.00  0.00    -0.096 C 
ATOM     25  H   UNL     1      20.566 -24.291  44.795  0.00  0.00    -0.082 HD
ATOM     26  C   UNL     1      21.070 -25.505  43.104  0.00  0.00    -0.064 C 
ATOM     27  C   UNL     1      21.079 -26.839  43.901  0.00  0.00    +0.066 C 
ENDBRANCH  19  20
ENDBRANCH  18  19
ENDBRANCH  14  15
ENDBRANCH  12  13
TORSDOF 6
ENDMDL
