MODEL 1
REMARK VINA RESULT:      -7.5      0.000      0.000
REMARK  Name = C:\Users\Docking\Desktop\test protocol\1iep_ligandH.pdb
REMARK  8 active torsions:
REMARK  status: ('A' for Active; 'I' for Inactive)
REMARK    1  A    between atoms: _5  and  _11
REMARK    2  A    between atoms: _19  and  _21
REMARK    3  A    between atoms: _22  and  _66
REMARK    4  A    between atoms: _27  and  _30
REMARK    5  A    between atoms: _32  and  _33
REMARK    6  A    between atoms: _38  and  _43
REMARK    7  A    between atoms: _43  and  _46
REMARK    8  A    between atoms: _53  and  _55
REMARK                            x       y       z     vdW  Elec       q    Type
REMARK                         _______ _______ _______ _____ _____    ______ ____
ROOT
ATOM     10  C   UNL     1      -8.538   5.981  59.509  0.00  0.00    +0.038 A 
ATOM     11  C   UNL     1      -7.276   6.445  59.959  0.00  0.00    +0.047 A 
ATOM     12  C   UNL     1      -6.169   5.526  60.173  0.00  0.00    +0.035 A 
ATOM     32  C   UNL     1      -6.382   4.141  59.914  0.00  0.00    +0.024 A 
ATOM     33  C   UNL     1      -7.659   3.652  59.456  0.00  0.00    +0.007 A 
ATOM     34  C   UNL     1      -8.755   4.553  59.247  0.00  0.00    -0.029 A 
ATOM     35  C   UNL     1     -10.104   3.973  58.761  0.00  0.00    +0.045 C 
ENDROOT
BRANCH  10   9
ATOM      4  C   UNL     1     -10.951   9.138  56.816  0.00  0.00    +0.077 A 
ATOM      5  C   UNL     1     -10.073   8.946  55.698  0.00  0.00    +0.048 A 
ATOM      6  C   UNL     1      -9.008   8.031  55.859  0.00  0.00    +0.116 A 
ATOM      7  N   UNL     1      -8.844   7.363  57.054  0.00  0.00    -0.223 NA
ATOM      8  C   UNL     1      -9.708   7.574  58.113  0.00  0.00    +0.220 A 
ATOM      9  N   UNL     1      -9.566   6.908  59.320  0.00  0.00    -0.283 N 
ATOM     36  H   UNL     1     -10.220   7.097  60.080  0.00  0.00    +0.155 HD
ATOM     37  N   UNL     1     -10.731   8.444  57.984  0.00  0.00    -0.214 NA
BRANCH   4   3
ATOM      1  C   UNL     1     -14.568  10.581  56.442  0.00  0.00    +0.020 A 
ATOM      2  C   UNL     1     -13.470   9.641  56.442  0.00  0.00    +0.013 A 
ATOM      3  C   UNL     1     -12.123  10.069  56.799  0.00  0.00    +0.019 A 
ATOM     38  C   UNL     1     -11.920  11.466  57.155  0.00  0.00    +0.120 A 
ATOM     39  N   UNL     1     -12.996  12.348  57.145  0.00  0.00    -0.263 NA
ATOM     40  C   UNL     1     -14.296  11.948  56.801  0.00  0.00    +0.111 A 
ENDBRANCH   4   3
ENDBRANCH  10   9
BRANCH  12  13
ATOM     13  N   UNL     1      -4.867   5.938  60.637  0.00  0.00    -0.281 N 
ATOM     14  C   UNL     1      -4.007   6.855  60.056  0.00  0.00    +0.248 C 
ATOM     30  O   UNL     1      -4.135   7.304  58.927  0.00  0.00    -0.270 OA
ATOM     31  H   UNL     1      -4.541   5.501  61.499  0.00  0.00    +0.155 HD
BRANCH  14  15
ATOM     15  C   UNL     1      -2.824   7.330  60.836  0.00  0.00    +0.037 A 
ATOM     16  C   UNL     1      -1.462   6.937  60.466  0.00  0.00    +0.013 A 
ATOM     17  C   UNL     1      -0.340   7.396  61.246  0.00  0.00    +0.005 A 
ATOM     18  C   UNL     1      -0.576   8.255  62.404  0.00  0.00    -0.033 A 
ATOM     28  C   UNL     1      -1.937   8.633  62.746  0.00  0.00    +0.005 A 
ATOM     29  C   UNL     1      -3.039   8.185  61.984  0.00  0.00    +0.013 A 
BRANCH  18  19
ATOM     19  C   UNL     1       0.560   8.774  63.306  0.00  0.00    +0.119 C 
BRANCH  19  20
ATOM     20  N   UNL     1       1.034   7.870  64.396  0.00  0.00    -0.302 NA
ATOM     21  C   UNL     1       2.203   6.990  63.946  0.00  0.00    +0.066 C 
ATOM     22  C   UNL     1       2.701   6.067  65.106  0.00  0.00    -0.064 C 
ATOM     23  N   UNL     1       1.538   5.209  65.606  0.00  0.00    +0.379 N 
ATOM     24  C   UNL     1       2.017   4.300  66.657  0.00  0.00    -0.096 C 
ATOM     25  H   UNL     1       1.187   4.585  64.752  0.00  0.00    -0.082 HD
ATOM     26  C   UNL     1       0.370   6.077  66.054  0.00  0.00    -0.064 C 
ATOM     27  C   UNL     1      -0.098   7.011  64.903  0.00  0.00    +0.066 C 
ENDBRANCH  19  20
ENDBRANCH  18  19
ENDBRANCH  14  15
ENDBRANCH  12  13
TORSDOF 6
ENDMDL
MODEL 2
REMARK VINA RESULT:      -7.2      3.396      4.601
REMARK  Name = C:\Users\Docking\Desktop\test protocol\1iep_ligandH.pdb
REMARK  8 active torsions:
REMARK  status: ('A' for Active; 'I' for Inactive)
REMARK    1  A    between atoms: _5  and  _11
REMARK    2  A    between atoms: _19  and  _21
REMARK    3  A    between atoms: _22  and  _66
REMARK    4  A    between atoms: _27  and  _30
REMARK    5  A    between atoms: _32  and  _33
REMARK    6  A    between atoms: _38  and  _43
REMARK    7  A    between atoms: _43  and  _46
REMARK    8  A    between atoms: _53  and  _55
REMARK                            x       y       z     vdW  Elec       q    Type
REMARK                         _______ _______ _______ _____ _____    ______ ____
ROOT
ATOM     10  C   UNL     1      -8.142   6.393  59.724  0.00  0.00    +0.038 A 
ATOM     11  C   UNL     1      -6.824   6.871  59.514  0.00  0.00    +0.047 A 
ATOM     12  C   UNL     1      -5.667   6.027  59.767  0.00  0.00    +0.035 A 
ATOM     32  C   UNL     1      -5.890   4.698  60.232  0.00  0.00    +0.024 A 
ATOM     33  C   UNL     1      -7.223   4.195  60.453  0.00  0.00    +0.007 A 
ATOM     34  C   UNL     1      -8.368   5.025  60.207  0.00  0.00    -0.029 A 
ATOM     35  C   UNL     1      -9.774   4.435  60.467  0.00  0.00    +0.045 C 
ENDROOT
BRANCH  10   9
ATOM      4  C   UNL     1     -10.896   8.942  56.732  0.00  0.00    +0.077 A 
ATOM      5  C   UNL     1     -10.111   8.562  55.592  0.00  0.00    +0.048 A 
ATOM      6  C   UNL     1      -9.004   7.715  55.820  0.00  0.00    +0.116 A 
ATOM      7  N   UNL     1      -8.712   7.286  57.096  0.00  0.00    -0.223 NA
ATOM      8  C   UNL     1      -9.487   7.673  58.174  0.00  0.00    +0.220 A 
ATOM      9  N   UNL     1      -9.217   7.247  59.465  0.00  0.00    -0.283 N 
ATOM     36  H   UNL     1      -9.809   7.560  60.234  0.00  0.00    +0.155 HD
ATOM     37  N   UNL     1     -10.550   8.482  57.983  0.00  0.00    -0.214 NA
BRANCH   4   3
ATOM      1  C   UNL     1     -13.562  11.695  57.514  0.00  0.00    +0.020 A 
ATOM      2  C   UNL     1     -12.386  10.865  57.637  0.00  0.00    +0.013 A 
ATOM      3  C   UNL     1     -12.099   9.830  56.652  0.00  0.00    +0.019 A 
ATOM     38  C   UNL     1     -13.028   9.660  55.546  0.00  0.00    +0.120 A 
ATOM     39  N   UNL     1     -14.153  10.473  55.454  0.00  0.00    -0.263 NA
ATOM     40  C   UNL     1     -14.441  11.472  56.397  0.00  0.00    +0.111 A 
ENDBRANCH   4   3
ENDBRANCH  10   9
BRANCH  12  13
ATOM     13  N   UNL     1      -4.305   6.461  59.579  0.00  0.00    -0.281 N 
ATOM     14  C   UNL     1      -3.507   7.168  60.463  0.00  0.00    +0.248 C 
ATOM     30  O   UNL     1      -3.916   7.723  61.472  0.00  0.00    -0.270 OA
ATOM     31  H   UNL     1      -3.878   6.217  58.685  0.00  0.00    +0.155 HD
BRANCH  14  15
ATOM     15  C   UNL     1      -2.045   7.288  60.178  0.00  0.00    +0.037 A 
ATOM     16  C   UNL     1      -1.045   6.711  61.080  0.00  0.00    +0.013 A 
ATOM     17  C   UNL     1       0.360   6.857  60.790  0.00  0.00    +0.005 A 
ATOM     18  C   UNL     1       0.773   7.581  59.591  0.00  0.00    -0.033 A 
ATOM     28  C   UNL     1      -0.241   8.139  58.710  0.00  0.00    +0.005 A 
ATOM     29  C   UNL     1      -1.618   8.000  58.991  0.00  0.00    +0.013 A 
BRANCH  18  19
ATOM     19  C   UNL     1       2.250   7.803  59.214  0.00  0.00    +0.119 C 
BRANCH  19  20
ATOM     20  N   UNL     1       2.578   7.897  57.760  0.00  0.00    -0.302 NA
ATOM     21  C   UNL     1       3.512   6.771  57.308  0.00  0.00    +0.066 C 
ATOM     22  C   UNL     1       3.827   6.871  55.780  0.00  0.00    -0.064 C 
ATOM     23  N   UNL     1       4.442   8.238  55.478  0.00  0.00    +0.379 N 
ATOM     24  C   UNL     1       4.792   8.314  54.052  0.00  0.00    -0.096 C 
ATOM     25  H   UNL     1       5.386   8.322  56.064  0.00  0.00    -0.082 HD
ATOM     26  C   UNL     1       3.520   9.364  55.926  0.00  0.00    -0.064 C 
ATOM     27  C   UNL     1       3.190   9.238  57.440  0.00  0.00    +0.066 C 
ENDBRANCH  19  20
ENDBRANCH  18  19
ENDBRANCH  14  15
ENDBRANCH  12  13
TORSDOF 6
ENDMDL
MODEL 3
REMARK VINA RESULT:      -7.2     16.483     23.509
REMARK  Name = C:\Users\Docking\Desktop\test protocol\1iep_ligandH.pdb
REMARK  8 active torsions:
REMARK  status: ('A' for Active; 'I' for Inactive)
REMARK    1  A    between atoms: _5  and  _11
REMARK    2  A    between atoms: _19  and  _21
REMARK    3  A    between atoms: _22  and  _66
REMARK    4  A    between atoms: _27  and  _30
REMARK    5  A    between atoms: _32  and  _33
REMARK    6  A    between atoms: _38  and  _43
REMARK    7  A    between atoms: _43  and  _46
REMARK    8  A    between atoms: _53  and  _55
REMARK                            x       y       z     vdW  Elec       q    Type
REMARK                         _______ _______ _______ _____ _____    ______ ____
ROOT
ATOM     10  C   UNL     1      -1.652  -0.465  78.216  0.00  0.00    +0.038 A 
ATOM     11  C   UNL     1      -0.870  -1.580  78.613  0.00  0.00    +0.047 A 
ATOM     12  C   UNL     1      -0.999  -2.152  79.944  0.00  0.00    +0.035 A 
ATOM     32  C   UNL     1      -1.935  -1.565  80.845  0.00  0.00    +0.024 A 
ATOM     33  C   UNL     1      -2.736  -0.431  80.457  0.00  0.00    +0.007 A 
ATOM     34  C   UNL     1      -2.612   0.140  79.147  0.00  0.00    -0.029 A 
ATOM     35  C   UNL     1      -3.492   1.360  78.788  0.00  0.00    +0.045 C 
ENDROOT
BRANCH  10   9
ATOM      4  C   UNL     1       0.609   2.307  75.015  0.00  0.00    +0.077 A 
ATOM      5  C   UNL     1       1.525   2.802  76.002  0.00  0.00    +0.048 A 
ATOM      6  C   UNL     1       1.375   2.325  77.323  0.00  0.00    +0.116 A 
ATOM      7  N   UNL     1       0.381   1.418  77.623  0.00  0.00    -0.223 NA
ATOM      8  C   UNL     1      -0.486   0.962  76.648  0.00  0.00    +0.220 A 
ATOM      9  N   UNL     1      -1.488   0.045  76.925  0.00  0.00    -0.283 N 
ATOM     36  H   UNL     1      -2.112  -0.262  76.179  0.00  0.00    +0.155 HD
ATOM     37  N   UNL     1      -0.365   1.404  75.379  0.00  0.00    -0.214 NA
BRANCH   4   3
ATOM      1  C   UNL     1       1.316   4.269  71.705  0.00  0.00    +0.020 A 
ATOM      2  C   UNL     1       1.314   3.920  73.108  0.00  0.00    +0.013 A 
ATOM      3  C   UNL     1       0.642   2.715  73.575  0.00  0.00    +0.019 A 
ATOM     38  C   UNL     1      -0.024   1.876  72.589  0.00  0.00    +0.120 A 
ATOM     39  N   UNL     1      -0.007   2.237  71.246  0.00  0.00    -0.263 NA
ATOM     40  C   UNL     1       0.635   3.396  70.785  0.00  0.00    +0.111 A 
ENDBRANCH   4   3
ENDBRANCH  10   9
BRANCH  12  13
ATOM     13  N   UNL     1      -0.227  -3.279  80.407  0.00  0.00    -0.281 N 
ATOM     14  C   UNL     1       1.093  -3.292  80.828  0.00  0.00    +0.248 C 
ATOM     30  O   UNL     1       1.878  -2.370  80.667  0.00  0.00    -0.270 OA
ATOM     31  H   UNL     1      -0.712  -4.176  80.426  0.00  0.00    +0.155 HD
BRANCH  14  15
ATOM     15  C   UNL     1       1.620  -4.511  81.513  0.00  0.00    +0.037 A 
ATOM     16  C   UNL     1       2.857  -5.158  81.067  0.00  0.00    +0.013 A 
ATOM     17  C   UNL     1       3.334  -6.343  81.735  0.00  0.00    +0.005 A 
ATOM     18  C   UNL     1       2.575  -6.887  82.858  0.00  0.00    -0.033 A 
ATOM     28  C   UNL     1       1.354  -6.222  83.283  0.00  0.00    +0.005 A 
ATOM     29  C   UNL     1       0.883  -5.061  82.630  0.00  0.00    +0.013 A 
BRANCH  18  19
ATOM     19  C   UNL     1       2.998  -8.160  83.616  0.00  0.00    +0.119 C 
BRANCH  19  20
ATOM     20  N   UNL     1       4.280  -8.105  84.380  0.00  0.00    -0.302 NA
ATOM     21  C   UNL     1       5.450  -8.687  83.581  0.00  0.00    +0.066 C 
ATOM     22  C   UNL     1       6.787  -8.602  84.387  0.00  0.00    -0.064 C 
ATOM     23  N   UNL     1       6.624  -9.334  85.720  0.00  0.00    +0.379 N 
ATOM     24  C   UNL     1       7.897  -9.306  86.454  0.00  0.00    -0.096 C 
ATOM     25  H   UNL     1       6.388 -10.400  85.493  0.00  0.00    -0.082 HD
ATOM     26  C   UNL     1       5.461  -8.764  86.519  0.00  0.00    -0.064 C 
ATOM     27  C   UNL     1       4.143  -8.826  85.698  0.00  0.00    +0.066 C 
ENDBRANCH  19  20
ENDBRANCH  18  19
ENDBRANCH  14  15
ENDBRANCH  12  13
TORSDOF 6
ENDMDL
MODEL 4
REMARK VINA RESULT:      -7.0     15.200     16.759
REMARK  Name = C:\Users\Docking\Desktop\test protocol\1iep_ligandH.pdb
REMARK  8 active torsions:
REMARK  status: ('A' for Active; 'I' for Inactive)
REMARK    1  A    between atoms: _5  and  _11
REMARK    2  A    between atoms: _19  and  _21
REMARK    3  A    between atoms: _22  and  _66
REMARK    4  A    between atoms: _27  and  _30
REMARK    5  A    between atoms: _32  and  _33
REMARK    6  A    between atoms: _38  and  _43
REMARK    7  A    between atoms: _43  and  _46
REMARK    8  A    between atoms: _53  and  _55
REMARK                            x       y       z     vdW  Elec       q    Type
REMARK                         _______ _______ _______ _____ _____    ______ ____
ROOT
ATOM     10  C   UNL     1      -7.093  -6.639  53.588  0.00  0.00    +0.038 A 
ATOM     11  C   UNL     1      -7.049  -6.978  54.965  0.00  0.00    +0.047 A 
ATOM     12  C   UNL     1      -6.061  -7.915  55.478  0.00  0.00    +0.035 A 
ATOM     32  C   UNL     1      -5.131  -8.486  54.561  0.00  0.00    +0.024 A 
ATOM     33  C   UNL     1      -5.163  -8.154  53.158  0.00  0.00    +0.007 A 
ATOM     34  C   UNL     1      -6.136  -7.232  52.646  0.00  0.00    -0.029 A 
ATOM     35  C   UNL     1      -6.128  -6.918  51.132  0.00  0.00    +0.045 C 
ENDROOT
BRANCH  10   9
ATOM      4  C   UNL     1     -11.499  -5.597  51.996  0.00  0.00    +0.077 A 
ATOM      5  C   UNL     1     -11.896  -6.976  52.013  0.00  0.00    +0.048 A 
ATOM      6  C   UNL     1     -10.933  -7.923  52.431  0.00  0.00    +0.116 A 
ATOM      7  N   UNL     1      -9.672  -7.510  52.803  0.00  0.00    -0.223 NA
ATOM      8  C   UNL     1      -9.322  -6.173  52.773  0.00  0.00    +0.220 A 
ATOM      9  N   UNL     1      -8.062  -5.734  53.150  0.00  0.00    -0.283 N 
ATOM     36  H   UNL     1      -7.841  -4.740  53.108  0.00  0.00    +0.155 HD
ATOM     37  N   UNL     1     -10.222  -5.249  52.376  0.00  0.00    -0.214 NA
BRANCH   4   3
ATOM      1  C   UNL     1     -13.088  -2.051  51.551  0.00  0.00    +0.020 A 
ATOM      2  C   UNL     1     -12.184  -3.094  51.978  0.00  0.00    +0.013 A 
ATOM      3  C   UNL     1     -12.404  -4.479  51.582  0.00  0.00    +0.019 A 
ATOM     38  C   UNL     1     -13.557  -4.778  50.745  0.00  0.00    +0.120 A 
ATOM     39  N   UNL     1     -14.411  -3.753  50.350  0.00  0.00    -0.263 NA
ATOM     40  C   UNL     1     -14.211  -2.417  50.727  0.00  0.00    +0.111 A 
ENDBRANCH   4   3
ENDBRANCH  10   9
BRANCH  12  13
ATOM     13  N   UNL     1      -5.973  -8.303  56.864  0.00  0.00    -0.281 N 
ATOM     14  C   UNL     1      -6.175  -9.559  57.411  0.00  0.00    +0.248 C 
ATOM     30  O   UNL     1      -6.675 -10.501  56.813  0.00  0.00    -0.270 OA
ATOM     31  H   UNL     1      -5.732  -7.561  57.521  0.00  0.00    +0.155 HD
BRANCH  14  15
ATOM     15  C   UNL     1      -5.779  -9.801  58.832  0.00  0.00    +0.037 A 
ATOM     16  C   UNL     1      -4.851 -10.877  59.189  0.00  0.00    +0.013 A 
ATOM     17  C   UNL     1      -4.498 -11.099  60.569  0.00  0.00    +0.005 A 
ATOM     18  C   UNL     1      -5.073 -10.241  61.602  0.00  0.00    -0.033 A 
ATOM     28  C   UNL     1      -5.986  -9.177  61.219  0.00  0.00    +0.005 A 
ATOM     29  C   UNL     1      -6.335  -8.957  59.868  0.00  0.00    +0.013 A 
BRANCH  18  19
ATOM     19  C   UNL     1      -4.769 -10.419  63.102  0.00  0.00    +0.119 C 
BRANCH  19  20
ATOM     20  N   UNL     1      -5.913 -10.773  63.994  0.00  0.00    -0.302 NA
ATOM     21  C   UNL     1      -5.874  -9.998  65.314  0.00  0.00    +0.066 C 
ATOM     22  C   UNL     1      -7.090 -10.364  66.225  0.00  0.00    -0.064 C 
ATOM     23  N   UNL     1      -7.095 -11.872  66.483  0.00  0.00    +0.379 N 
ATOM     24  C   UNL     1      -8.203 -12.211  67.387  0.00  0.00    -0.096 C 
ATOM     25  H   UNL     1      -6.143 -12.129  67.003  0.00  0.00    -0.082 HD
ATOM     26  C   UNL     1      -7.131 -12.651  65.176  0.00  0.00    -0.064 C 
ATOM     27  C   UNL     1      -5.934 -12.257  64.265  0.00  0.00    +0.066 C 
ENDBRANCH  19  20
ENDBRANCH  18  19
ENDBRANCH  14  15
ENDBRANCH  12  13
TORSDOF 6
ENDMDL
MODEL 5
REMARK VINA RESULT:      -7.0     14.866     16.018
REMARK  Name = C:\Users\Docking\Desktop\test protocol\1iep_ligandH.pdb
REMARK  8 active torsions:
REMARK  status: ('A' for Active; 'I' for Inactive)
REMARK    1  A    between atoms: _5  and  _11
REMARK    2  A    between atoms: _19  and  _21
REMARK    3  A    between atoms: _22  and  _66
REMARK    4  A    between atoms: _27  and  _30
REMARK    5  A    between atoms: _32  and  _33
REMARK    6  A    between atoms: _38  and  _43
REMARK    7  A    between atoms: _43  and  _46
REMARK    8  A    between atoms: _53  and  _55
REMARK                            x       y       z     vdW  Elec       q    Type
REMARK                         _______ _______ _______ _____ _____    ______ ____
ROOT
ATOM     10  C   UNL     1     -15.307   7.947  74.467  0.00  0.00    +0.038 A 
ATOM     11  C   UNL     1     -14.014   7.415  74.704  0.00  0.00    +0.047 A 
ATOM     12  C   UNL     1     -13.666   6.827  75.988  0.00  0.00    +0.035 A 
ATOM     32  C   UNL     1     -14.661   6.794  77.008  0.00  0.00    +0.024 A 
ATOM     33  C   UNL     1     -15.980   7.331  76.784  0.00  0.00    +0.007 A 
ATOM     34  C   UNL     1     -16.328   7.915  75.521  0.00  0.00    -0.029 A 
ATOM     35  C   UNL     1     -17.756   8.482  75.339  0.00  0.00    +0.045 C 
ENDROOT
BRANCH  10   9
ATOM      4  C   UNL     1     -14.929  11.451  71.208  0.00  0.00    +0.077 A 
ATOM      5  C   UNL     1     -14.129  12.259  72.083  0.00  0.00    +0.048 A 
ATOM      6  C   UNL     1     -13.844  11.740  73.365  0.00  0.00    +0.116 A 
ATOM      7  N   UNL     1     -14.327  10.503  73.735  0.00  0.00    -0.223 NA
ATOM      8  C   UNL     1     -15.097   9.750  72.868  0.00  0.00    +0.220 A 
ATOM      9  N   UNL     1     -15.587   8.501  73.215  0.00  0.00    -0.283 N 
ATOM     36  H   UNL     1     -16.157   7.980  72.550  0.00  0.00    +0.155 HD
ATOM     37  N   UNL     1     -15.385  10.225  71.638  0.00  0.00    -0.214 NA
BRANCH   4   3
ATOM      1  C   UNL     1     -16.728  13.158  68.183  0.00  0.00    +0.020 A 
ATOM      2  C   UNL     1     -16.397  12.795  69.542  0.00  0.00    +0.013 A 
ATOM      3  C   UNL     1     -15.314  11.861  69.820  0.00  0.00    +0.019 A 
ATOM     38  C   UNL     1     -14.578  11.309  68.693  0.00  0.00    +0.120 A 
ATOM     39  N   UNL     1     -14.919  11.676  67.395  0.00  0.00    -0.263 NA
ATOM     40  C   UNL     1     -15.961  12.572  67.115  0.00  0.00    +0.111 A 
ENDBRANCH   4   3
ENDBRANCH  10   9
BRANCH  12  13
ATOM     13  N   UNL     1     -12.367   6.278  76.289  0.00  0.00    -0.281 N 
ATOM     14  C   UNL     1     -11.815   5.094  75.828  0.00  0.00    +0.248 C 
ATOM     30  O   UNL     1     -12.441   4.218  75.251  0.00  0.00    -0.270 OA
ATOM     31  H   UNL     1     -11.784   6.829  76.919  0.00  0.00    +0.155 HD
BRANCH  14  15
ATOM     15  C   UNL     1     -10.359   4.841  76.052  0.00  0.00    +0.037 A 
ATOM     16  C   UNL     1      -9.898   3.957  77.125  0.00  0.00    +0.013 A 
ATOM     17  C   UNL     1      -8.487   3.744  77.331  0.00  0.00    +0.005 A 
ATOM     18  C   UNL     1      -7.527   4.416  76.458  0.00  0.00    -0.033 A 
ATOM     28  C   UNL     1      -8.012   5.283  75.398  0.00  0.00    +0.005 A 
ATOM     29  C   UNL     1      -9.394   5.496  75.194  0.00  0.00    +0.013 A 
BRANCH  18  19
ATOM     19  C   UNL     1      -6.002   4.263  76.618  0.00  0.00    +0.119 C 
BRANCH  19  20
ATOM     20  N   UNL     1      -5.516   3.263  77.614  0.00  0.00    -0.302 NA
ATOM     21  C   UNL     1      -4.146   3.639  78.184  0.00  0.00    +0.066 C 
ATOM     22  C   UNL     1      -3.662   2.594  79.242  0.00  0.00    -0.064 C 
ATOM     23  N   UNL     1      -3.619   1.206  78.600  0.00  0.00    +0.379 N 
ATOM     24  C   UNL     1      -3.109   0.230  79.575  0.00  0.00    -0.096 C 
ATOM     25  H   UNL     1      -2.895   1.248  77.753  0.00  0.00    -0.082 HD
ATOM     26  C   UNL     1      -4.977   0.825  78.028  0.00  0.00    -0.064 C 
ATOM     27  C   UNL     1      -5.461   1.885  77.000  0.00  0.00    +0.066 C 
ENDBRANCH  19  20
ENDBRANCH  18  19
ENDBRANCH  14  15
ENDBRANCH  12  13
TORSDOF 6
ENDMDL
