MODEL 1
REMARK VINA RESULT:      -7.8      0.000      0.000
REMARK  Name = C:\Users\Docking\Desktop\test protocol\1iep_ligandH.pdb
REMARK  8 active torsions:
REMARK  status: ('A' for Active; 'I' for Inactive)
REMARK    1  A    between atoms: _5  and  _11
REMARK    2  A    between atoms: _19  and  _21
REMARK    3  A    between atoms: _22  and  _66
REMARK    4  A    between atoms: _27  and  _30
REMARK    5  A    between atoms: _32  and  _33
REMARK    6  A    between atoms: _38  and  _43
REMARK    7  A    between atoms: _43  and  _46
REMARK    8  A    between atoms: _53  and  _55
REMARK                            x       y       z     vdW  Elec       q    Type
REMARK                         _______ _______ _______ _____ _____    ______ ____
ROOT
ATOM     10  C   UNL     1      -9.546  -1.955  27.878  0.00  0.00    +0.038 A 
ATOM     11  C   UNL     1      -9.595  -3.289  28.357  0.00  0.00    +0.047 A 
ATOM     12  C   UNL     1      -9.528  -3.580  29.781  0.00  0.00    +0.035 A 
ATOM     32  C   UNL     1      -9.414  -2.487  30.689  0.00  0.00    +0.024 A 
ATOM     33  C   UNL     1      -9.363  -1.125  30.219  0.00  0.00    +0.007 A 
ATOM     34  C   UNL     1      -9.426  -0.832  28.816  0.00  0.00    -0.029 A 
ATOM     35  C   UNL     1      -9.359   0.646  28.368  0.00  0.00    +0.045 C 
ENDROOT
BRANCH  10   9
ATOM      4  C   UNL     1      -7.558  -1.803  23.512  0.00  0.00    +0.077 A 
ATOM      5  C   UNL     1      -6.268  -2.171  24.022  0.00  0.00    +0.048 A 
ATOM      6  C   UNL     1      -6.157  -2.383  25.414  0.00  0.00    +0.116 A 
ATOM      7  N   UNL     1      -7.260  -2.236  26.227  0.00  0.00    -0.223 NA
ATOM      8  C   UNL     1      -8.489  -1.879  25.703  0.00  0.00    +0.220 A 
ATOM      9  N   UNL     1      -9.614  -1.733  26.501  0.00  0.00    -0.283 N 
ATOM     36  H   UNL     1     -10.501  -1.462  26.077  0.00  0.00    +0.155 HD
ATOM     37  N   UNL     1      -8.621  -1.669  24.377  0.00  0.00    -0.214 NA
BRANCH   4   3
ATOM      1  C   UNL     1      -7.410  -0.356  19.881  0.00  0.00    +0.020 A 
ATOM      2  C   UNL     1      -7.103  -0.563  21.277  0.00  0.00    +0.013 A 
ATOM      3  C   UNL     1      -7.836  -1.549  22.063  0.00  0.00    +0.019 A 
ATOM     38  C   UNL     1      -8.880  -2.315  21.400  0.00  0.00    +0.120 A 
ATOM     39  N   UNL     1      -9.155  -2.093  20.054  0.00  0.00    -0.263 NA
ATOM     40  C   UNL     1      -8.458  -1.146  19.289  0.00  0.00    +0.111 A 
ENDBRANCH   4   3
ENDBRANCH  10   9
BRANCH  12  13
ATOM     13  N   UNL     1      -9.564  -4.914  30.326  0.00  0.00    -0.281 N 
ATOM     14  C   UNL     1      -8.504  -5.673  30.794  0.00  0.00    +0.248 C 
ATOM     30  O   UNL     1      -7.326  -5.398  30.616  0.00  0.00    -0.270 OA
ATOM     31  H   UNL     1     -10.484  -5.353  30.372  0.00  0.00    +0.155 HD
BRANCH  14  15
ATOM     15  C   UNL     1      -8.792  -6.925  31.557  0.00  0.00    +0.037 A 
ATOM     16  C   UNL     1      -9.262  -8.137  30.880  0.00  0.00    +0.013 A 
ATOM     17  C   UNL     1      -9.549  -9.326  31.642  0.00  0.00    +0.005 A 
ATOM     18  C   UNL     1      -9.366  -9.309  33.091  0.00  0.00    -0.033 A 
ATOM     28  C   UNL     1      -8.895  -8.095  33.737  0.00  0.00    +0.005 A 
ATOM     29  C   UNL     1      -8.613  -6.927  32.993  0.00  0.00    +0.013 A 
BRANCH  18  19
ATOM     19  C   UNL     1      -9.669 -10.526  33.986  0.00  0.00    +0.119 C 
BRANCH  19  20
ATOM     20  N   UNL     1     -10.630 -10.324  35.111  0.00  0.00    -0.302 NA
ATOM     21  C   UNL     1     -10.779 -11.583  35.971  0.00  0.00    +0.066 C 
ATOM     22  C   UNL     1     -11.770 -11.347  37.157  0.00  0.00    -0.064 C 
ATOM     23  N   UNL     1     -13.126 -10.906  36.604  0.00  0.00    +0.379 N 
ATOM     24  C   UNL     1     -14.078 -10.740  37.713  0.00  0.00    -0.096 C 
ATOM     25  H   UNL     1     -13.508 -11.724  35.951  0.00  0.00    -0.082 HD
ATOM     26  C   UNL     1     -12.987  -9.657  35.745  0.00  0.00    -0.064 C 
ATOM     27  C   UNL     1     -11.977  -9.892  34.588  0.00  0.00    +0.066 C 
ENDBRANCH  19  20
ENDBRANCH  18  19
ENDBRANCH  14  15
ENDBRANCH  12  13
TORSDOF 6
ENDMDL
MODEL 2
REMARK VINA RESULT:      -7.3     20.819     26.568
REMARK  Name = C:\Users\Docking\Desktop\test protocol\1iep_ligandH.pdb
REMARK  8 active torsions:
REMARK  status: ('A' for Active; 'I' for Inactive)
REMARK    1  A    between atoms: _5  and  _11
REMARK    2  A    between atoms: _19  and  _21
REMARK    3  A    between atoms: _22  and  _66
REMARK    4  A    between atoms: _27  and  _30
REMARK    5  A    between atoms: _32  and  _33
REMARK    6  A    between atoms: _38  and  _43
REMARK    7  A    between atoms: _43  and  _46
REMARK    8  A    between atoms: _53  and  _55
REMARK                            x       y       z     vdW  Elec       q    Type
REMARK                         _______ _______ _______ _____ _____    ______ ____
ROOT
ATOM     10  C   UNL     1      10.526   6.580  26.352  0.00  0.00    +0.038 A 
ATOM     11  C   UNL     1      11.082   5.570  25.527  0.00  0.00    +0.047 A 
ATOM     12  C   UNL     1      12.303   5.802  24.771  0.00  0.00    +0.035 A 
ATOM     32  C   UNL     1      12.934   7.076  24.882  0.00  0.00    +0.024 A 
ATOM     33  C   UNL     1      12.382   8.115  25.716  0.00  0.00    +0.007 A 
ATOM     34  C   UNL     1      11.176   7.892  26.461  0.00  0.00    -0.029 A 
ATOM     35  C   UNL     1      10.626   9.044  27.334  0.00  0.00    +0.045 C 
ENDROOT
BRANCH  10   9
ATOM      4  C   UNL     1       8.192   5.038  30.253  0.00  0.00    +0.077 A 
ATOM      5  C   UNL     1       9.416   4.735  30.937  0.00  0.00    +0.048 A 
ATOM      6  C   UNL     1      10.624   4.984  30.248  0.00  0.00    +0.116 A 
ATOM      7  N   UNL     1      10.598   5.498  28.970  0.00  0.00    -0.223 NA
ATOM      8  C   UNL     1       9.401   5.777  28.338  0.00  0.00    +0.220 A 
ATOM      9  N   UNL     1       9.352   6.302  27.055  0.00  0.00    -0.283 N 
ATOM     36  H   UNL     1       8.448   6.488  26.621  0.00  0.00    +0.155 HD
ATOM     37  N   UNL     1       8.233   5.547  28.974  0.00  0.00    -0.214 NA
BRANCH   4   3
ATOM      1  C   UNL     1       4.983   3.372  31.745  0.00  0.00    +0.020 A 
ATOM      2  C   UNL     1       6.300   3.515  31.169  0.00  0.00    +0.013 A 
ATOM      3  C   UNL     1       6.835   4.833  30.850  0.00  0.00    +0.019 A 
ATOM     38  C   UNL     1       6.004   5.995  31.128  0.00  0.00    +0.120 A 
ATOM     39  N   UNL     1       4.739   5.827  31.682  0.00  0.00    -0.263 NA
ATOM     40  C   UNL     1       4.214   4.563  31.992  0.00  0.00    +0.111 A 
ENDBRANCH   4   3
ENDBRANCH  10   9
BRANCH  12  13
ATOM     13  N   UNL     1      12.910   4.817  23.911  0.00  0.00    -0.281 N 
ATOM     14  C   UNL     1      12.716   4.640  22.551  0.00  0.00    +0.248 C 
ATOM     30  O   UNL     1      11.825   5.170  21.904  0.00  0.00    -0.270 OA
ATOM     31  H   UNL     1      13.561   4.172  24.359  0.00  0.00    +0.155 HD
BRANCH  14  15
ATOM     15  C   UNL     1      13.638   3.732  21.802  0.00  0.00    +0.037 A 
ATOM     16  C   UNL     1      14.366   4.195  20.619  0.00  0.00    +0.013 A 
ATOM     17  C   UNL     1      15.236   3.294  19.906  0.00  0.00    +0.005 A 
ATOM     18  C   UNL     1      15.383   1.919  20.376  0.00  0.00    -0.033 A 
ATOM     28  C   UNL     1      14.653   1.487  21.556  0.00  0.00    +0.005 A 
ATOM     29  C   UNL     1      13.799   2.367  22.257  0.00  0.00    +0.013 A 
BRANCH  18  19
ATOM     19  C   UNL     1      16.273   0.882  19.665  0.00  0.00    +0.119 C 
BRANCH  19  20
ATOM     20  N   UNL     1      17.079   1.357  18.500  0.00  0.00    -0.302 NA
ATOM     21  C   UNL     1      16.292   1.280  17.189  0.00  0.00    +0.066 C 
ATOM     22  C   UNL     1      17.141   1.802  15.984  0.00  0.00    -0.064 C 
ATOM     23  N   UNL     1      18.435   0.991  15.888  0.00  0.00    +0.379 N 
ATOM     24  C   UNL     1      19.209   1.440  14.721  0.00  0.00    -0.096 C 
ATOM     25  H   UNL     1      18.154  -0.074  15.718  0.00  0.00    -0.082 HD
ATOM     26  C   UNL     1      19.222   1.059  17.189  0.00  0.00    -0.064 C 
ATOM     27  C   UNL     1      18.359   0.567  18.384  0.00  0.00    +0.066 C 
ENDBRANCH  19  20
ENDBRANCH  18  19
ENDBRANCH  14  15
ENDBRANCH  12  13
TORSDOF 6
ENDMDL
MODEL 3
REMARK VINA RESULT:      -7.2      1.959      2.739
REMARK  Name = C:\Users\Docking\Desktop\test protocol\1iep_ligandH.pdb
REMARK  8 active torsions:
REMARK  status: ('A' for Active; 'I' for Inactive)
REMARK    1  A    between atoms: _5  and  _11
REMARK    2  A    between atoms: _19  and  _21
REMARK    3  A    between atoms: _22  and  _66
REMARK    4  A    between atoms: _27  and  _30
REMARK    5  A    between atoms: _32  and  _33
REMARK    6  A    between atoms: _38  and  _43
REMARK    7  A    between atoms: _43  and  _46
REMARK    8  A    between atoms: _53  and  _55
REMARK                            x       y       z     vdW  Elec       q    Type
REMARK                         _______ _______ _______ _____ _____    ______ ____
ROOT
ATOM     10  C   UNL     1      -9.511  -2.065  27.904  0.00  0.00    +0.038 A 
ATOM     11  C   UNL     1      -9.587  -3.421  28.312  0.00  0.00    +0.047 A 
ATOM     12  C   UNL     1      -9.592  -3.784  29.721  0.00  0.00    +0.035 A 
ATOM     32  C   UNL     1      -9.521  -2.739  30.688  0.00  0.00    +0.024 A 
ATOM     33  C   UNL     1      -9.441  -1.355  30.290  0.00  0.00    +0.007 A 
ATOM     34  C   UNL     1      -9.433  -0.992  28.902  0.00  0.00    -0.029 A 
ATOM     35  C   UNL     1      -9.340   0.507  28.533  0.00  0.00    +0.045 C 
ENDROOT
BRANCH  10   9
ATOM      4  C   UNL     1      -7.307  -1.702  23.655  0.00  0.00    +0.077 A 
ATOM      5  C   UNL     1      -6.045  -2.100  24.209  0.00  0.00    +0.048 A 
ATOM      6  C   UNL     1      -6.004  -2.383  25.593  0.00  0.00    +0.116 A 
ATOM      7  N   UNL     1      -7.146  -2.272  26.356  0.00  0.00    -0.223 NA
ATOM      8  C   UNL     1      -8.347  -1.884  25.791  0.00  0.00    +0.220 A 
ATOM      9  N   UNL     1      -9.509  -1.774  26.538  0.00  0.00    -0.283 N 
ATOM     36  H   UNL     1     -10.374  -1.478  26.085  0.00  0.00    +0.155 HD
ATOM     37  N   UNL     1      -8.412  -1.608  24.472  0.00  0.00    -0.214 NA
BRANCH   4   3
ATOM      1  C   UNL     1      -6.893  -0.169  20.080  0.00  0.00    +0.020 A 
ATOM      2  C   UNL     1      -6.652  -0.452  21.477  0.00  0.00    +0.013 A 
ATOM      3  C   UNL     1      -7.511  -1.374  22.209  0.00  0.00    +0.019 A 
ATOM     38  C   UNL     1      -8.614  -1.999  21.493  0.00  0.00    +0.120 A 
ATOM     39  N   UNL     1      -8.822  -1.706  20.149  0.00  0.00    -0.263 NA
ATOM     40  C   UNL     1      -8.003  -0.819  19.434  0.00  0.00    +0.111 A 
ENDBRANCH   4   3
ENDBRANCH  10   9
BRANCH  12  13
ATOM     13  N   UNL     1      -9.660  -5.144  30.195  0.00  0.00    -0.281 N 
ATOM     14  C   UNL     1      -8.611  -6.018  30.427  0.00  0.00    +0.248 C 
ATOM     30  O   UNL     1      -7.462  -5.833  30.055  0.00  0.00    -0.270 OA
ATOM     31  H   UNL     1     -10.595  -5.505  30.384  0.00  0.00    +0.155 HD
BRANCH  14  15
ATOM     15  C   UNL     1      -8.880  -7.290  31.165  0.00  0.00    +0.037 A 
ATOM     16  C   UNL     1      -9.093  -8.552  30.452  0.00  0.00    +0.013 A 
ATOM     17  C   UNL     1      -9.368  -9.761  31.188  0.00  0.00    +0.005 A 
ATOM     18  C   UNL     1      -9.430  -9.713  32.646  0.00  0.00    -0.033 A 
ATOM     28  C   UNL     1      -9.210  -8.448  33.328  0.00  0.00    +0.005 A 
ATOM     29  C   UNL     1      -8.941  -7.261  32.611  0.00  0.00    +0.013 A 
BRANCH  18  19
ATOM     19  C   UNL     1      -9.739 -10.949  33.511  0.00  0.00    +0.119 C 
BRANCH  19  20
ATOM     20  N   UNL     1      -9.377 -12.284  32.949  0.00  0.00    -0.302 NA
ATOM     21  C   UNL     1     -10.582 -12.987  32.317  0.00  0.00    +0.066 C 
ATOM     22  C   UNL     1     -10.181 -14.373  31.714  0.00  0.00    -0.064 C 
ATOM     23  N   UNL     1      -9.560 -15.242  32.809  0.00  0.00    +0.379 N 
ATOM     24  C   UNL     1      -9.235 -16.566  32.259  0.00  0.00    -0.096 C 
ATOM     25  H   UNL     1     -10.329 -15.385  33.603  0.00  0.00    -0.082 HD
ATOM     26  C   UNL     1      -8.363 -14.550  33.445  0.00  0.00    -0.064 C 
ATOM     27  C   UNL     1      -8.766 -13.161  34.015  0.00  0.00    +0.066 C 
ENDBRANCH  19  20
ENDBRANCH  18  19
ENDBRANCH  14  15
ENDBRANCH  12  13
TORSDOF 6
ENDMDL
MODEL 4
REMARK VINA RESULT:      -7.1     25.398     30.144
REMARK  Name = C:\Users\Docking\Desktop\test protocol\1iep_ligandH.pdb
REMARK  8 active torsions:
REMARK  status: ('A' for Active; 'I' for Inactive)
REMARK    1  A    between atoms: _5  and  _11
REMARK    2  A    between atoms: _19  and  _21
REMARK    3  A    between atoms: _22  and  _66
REMARK    4  A    between atoms: _27  and  _30
REMARK    5  A    between atoms: _32  and  _33
REMARK    6  A    between atoms: _38  and  _43
REMARK    7  A    between atoms: _43  and  _46
REMARK    8  A    between atoms: _53  and  _55
REMARK                            x       y       z     vdW  Elec       q    Type
REMARK                         _______ _______ _______ _____ _____    ______ ____
ROOT
ATOM     10  C   UNL     1      14.083  -8.783  11.329  0.00  0.00    +0.038 A 
ATOM     11  C   UNL     1      14.873  -8.319  12.412  0.00  0.00    +0.047 A 
ATOM     12  C   UNL     1      16.298  -8.606  12.481  0.00  0.00    +0.035 A 
ATOM     32  C   UNL     1      16.886  -9.365  11.428  0.00  0.00    +0.024 A 
ATOM     33  C   UNL     1      16.098  -9.846  10.320  0.00  0.00    +0.007 A 
ATOM     34  C   UNL     1      14.692  -9.569  10.248  0.00  0.00    -0.029 A 
ATOM     35  C   UNL     1      13.894 -10.114   9.041  0.00  0.00    +0.045 C 
ENDROOT
BRANCH  10   9
ATOM      4  C   UNL     1      10.384  -5.989  10.086  0.00  0.00    +0.077 A 
ATOM      5  C   UNL     1      11.242  -5.041   9.436  0.00  0.00    +0.048 A 
ATOM      6  C   UNL     1      12.630  -5.305   9.451  0.00  0.00    +0.116 A 
ATOM      7  N   UNL     1      13.113  -6.437  10.071  0.00  0.00    -0.223 NA
ATOM      8  C   UNL     1      12.258  -7.330  10.690  0.00  0.00    +0.220 A 
ATOM      9  N   UNL     1      12.720  -8.479  11.313  0.00  0.00    -0.283 N 
ATOM     36  H   UNL     1      12.058  -9.109  11.765  0.00  0.00    +0.155 HD
ATOM     37  N   UNL     1      10.928  -7.100  10.692  0.00  0.00    -0.214 NA
BRANCH   4   3
ATOM      1  C   UNL     1       6.551  -6.637   9.652  0.00  0.00    +0.020 A 
ATOM      2  C   UNL     1       7.982  -6.818   9.558  0.00  0.00    +0.013 A 
ATOM      3  C   UNL     1       8.895  -5.850  10.154  0.00  0.00    +0.019 A 
ATOM     38  C   UNL     1       8.324  -4.703  10.843  0.00  0.00    +0.120 A 
ATOM     39  N   UNL     1       6.942  -4.555  10.916  0.00  0.00    -0.263 NA
ATOM     40  C   UNL     1       6.054  -5.478  10.345  0.00  0.00    +0.111 A 
ENDBRANCH   4   3
ENDBRANCH  10   9
BRANCH  12  13
ATOM     13  N   UNL     1      17.149  -8.168  13.559  0.00  0.00    -0.281 N 
ATOM     14  C   UNL     1      17.298  -8.740  14.812  0.00  0.00    +0.248 C 
ATOM     30  O   UNL     1      16.558  -9.596  15.274  0.00  0.00    -0.270 OA
ATOM     31  H   UNL     1      17.709  -7.335  13.377  0.00  0.00    +0.155 HD
BRANCH  14  15
ATOM     15  C   UNL     1      18.423  -8.284  15.684  0.00  0.00    +0.037 A 
ATOM     16  C   UNL     1      19.509  -9.193  16.060  0.00  0.00    +0.013 A 
ATOM     17  C   UNL     1      20.574  -8.733  16.916  0.00  0.00    +0.005 A 
ATOM     18  C   UNL     1      20.557  -7.355  17.402  0.00  0.00    -0.033 A 
ATOM     28  C   UNL     1      19.470  -6.474  17.010  0.00  0.00    +0.005 A 
ATOM     29  C   UNL     1      18.424  -6.921  16.172  0.00  0.00    +0.013 A 
BRANCH  18  19
ATOM     19  C   UNL     1      21.640  -6.785  18.337  0.00  0.00    +0.119 C 
BRANCH  19  20
ATOM     20  N   UNL     1      21.250  -6.523  19.755  0.00  0.00    -0.302 NA
ATOM     21  C   UNL     1      22.276  -5.647  20.480  0.00  0.00    +0.066 C 
ATOM     22  C   UNL     1      21.842  -5.364  21.955  0.00  0.00    -0.064 C 
ATOM     23  N   UNL     1      21.646  -6.691  22.690  0.00  0.00    +0.379 N 
ATOM     24  C   UNL     1      21.294  -6.427  24.093  0.00  0.00    -0.096 C 
ATOM     25  H   UNL     1      22.623  -7.228  22.681  0.00  0.00    -0.082 HD
ATOM     26  C   UNL     1      20.630  -7.569  21.974  0.00  0.00    -0.064 C 
ATOM     27  C   UNL     1      21.056  -7.820  20.501  0.00  0.00    +0.066 C 
ENDBRANCH  19  20
ENDBRANCH  18  19
ENDBRANCH  14  15
ENDBRANCH  12  13
TORSDOF 6
ENDMDL
MODEL 5
REMARK VINA RESULT:      -7.1      2.356     13.308
REMARK  Name = C:\Users\Docking\Desktop\test protocol\1iep_ligandH.pdb
REMARK  8 active torsions:
REMARK  status: ('A' for Active; 'I' for Inactive)
REMARK    1  A    between atoms: _5  and  _11
REMARK    2  A    between atoms: _19  and  _21
REMARK    3  A    between atoms: _22  and  _66
REMARK    4  A    between atoms: _27  and  _30
REMARK    5  A    between atoms: _32  and  _33
REMARK    6  A    between atoms: _38  and  _43
REMARK    7  A    between atoms: _43  and  _46
REMARK    8  A    between atoms: _53  and  _55
REMARK                            x       y       z     vdW  Elec       q    Type
REMARK                         _______ _______ _______ _____ _____    ______ ____
ROOT
ATOM     10  C   UNL     1      -8.614  -7.741  35.506  0.00  0.00    +0.038 A 
ATOM     11  C   UNL     1      -8.684  -7.179  34.205  0.00  0.00    +0.047 A 
ATOM     12  C   UNL     1      -7.764  -6.133  33.787  0.00  0.00    +0.035 A 
ATOM     32  C   UNL     1      -6.782  -5.685  34.719  0.00  0.00    +0.024 A 
ATOM     33  C   UNL     1      -6.698  -6.244  36.045  0.00  0.00    +0.007 A 
ATOM     34  C   UNL     1      -7.604  -7.275  36.464  0.00  0.00    -0.029 A 
ATOM     35  C   UNL     1      -7.472  -7.833  37.900  0.00  0.00    +0.045 C 
ENDROOT
BRANCH  10   9
ATOM      4  C   UNL     1     -13.002  -9.225  36.762  0.00  0.00    +0.077 A 
ATOM      5  C   UNL     1     -13.522  -7.888  36.750  0.00  0.00    +0.048 A 
ATOM      6  C   UNL     1     -12.626  -6.847  36.422  0.00  0.00    +0.116 A 
ATOM      7  N   UNL     1     -11.310  -7.132  36.130  0.00  0.00    -0.223 NA
ATOM      8  C   UNL     1     -10.840  -8.432  36.152  0.00  0.00    +0.220 A 
ATOM      9  N   UNL     1      -9.522  -8.743  35.854  0.00  0.00    -0.283 N 
ATOM     36  H   UNL     1      -9.213  -9.714  35.889  0.00  0.00    +0.155 HD
ATOM     37  N   UNL     1     -11.676  -9.445  36.464  0.00  0.00    -0.214 NA
BRANCH   4   3
ATOM      1  C   UNL     1     -14.088 -12.891  37.590  0.00  0.00    +0.020 A 
ATOM      2  C   UNL     1     -13.248 -11.758  37.278  0.00  0.00    +0.013 A 
ATOM      3  C   UNL     1     -13.825 -10.433  37.086  0.00  0.00    +0.019 A 
ATOM     38  C   UNL     1     -15.267 -10.288  37.220  0.00  0.00    +0.120 A 
ATOM     39  N   UNL     1     -16.051 -11.398  37.519  0.00  0.00    -0.263 NA
ATOM     40  C   UNL     1     -15.507 -12.678  37.704  0.00  0.00    +0.111 A 
ENDBRANCH   4   3
ENDBRANCH  10   9
BRANCH  12  13
ATOM     13  N   UNL     1      -7.792  -5.519  32.483  0.00  0.00    -0.281 N 
ATOM     14  C   UNL     1      -8.332  -6.028  31.314  0.00  0.00    +0.248 C 
ATOM     30  O   UNL     1      -8.686  -7.188  31.164  0.00  0.00    -0.270 OA
ATOM     31  H   UNL     1      -7.361  -4.597  32.413  0.00  0.00    +0.155 HD
BRANCH  14  15
ATOM     15  C   UNL     1      -8.488  -5.122  30.136  0.00  0.00    +0.037 A 
ATOM     16  C   UNL     1      -8.308  -3.673  30.262  0.00  0.00    +0.013 A 
ATOM     17  C   UNL     1      -8.481  -2.820  29.113  0.00  0.00    +0.005 A 
ATOM     18  C   UNL     1      -8.835  -3.414  27.827  0.00  0.00    -0.033 A 
ATOM     28  C   UNL     1      -9.003  -4.854  27.728  0.00  0.00    +0.005 A 
ATOM     29  C   UNL     1      -8.835  -5.694  28.852  0.00  0.00    +0.013 A 
BRANCH  18  19
ATOM     19  C   UNL     1      -9.061  -2.578  26.553  0.00  0.00    +0.119 C 
BRANCH  19  20
ATOM     20  N   UNL     1      -7.850  -2.031  25.871  0.00  0.00    -0.302 NA
ATOM     21  C   UNL     1      -8.046  -1.917  24.357  0.00  0.00    +0.066 C 
ATOM     22  C   UNL     1      -6.778  -1.322  23.662  0.00  0.00    -0.064 C 
ATOM     23  N   UNL     1      -5.565  -2.195  23.987  0.00  0.00    +0.379 N 
ATOM     24  C   UNL     1      -4.382  -1.672  23.288  0.00  0.00    -0.096 C 
ATOM     25  H   UNL     1      -5.768  -3.217  23.590  0.00  0.00    -0.082 HD
ATOM     26  C   UNL     1      -5.364  -2.316  25.491  0.00  0.00    -0.064 C 
ATOM     27  C   UNL     1      -6.641  -2.881  26.175  0.00  0.00    +0.066 C 
ENDBRANCH  19  20
ENDBRANCH  18  19
ENDBRANCH  14  15
ENDBRANCH  12  13
TORSDOF 6
ENDMDL
