MODEL 1
REMARK VINA RESULT:     -12.2      0.000      0.000
REMARK  Name = C:\Users\Docking\Desktop\test protocol\1iep_ligandH.pdb
REMARK  8 active torsions:
REMARK  status: ('A' for Active; 'I' for Inactive)
REMARK    1  A    between atoms: _5  and  _11
REMARK    2  A    between atoms: _19  and  _21
REMARK    3  A    between atoms: _22  and  _66
REMARK    4  A    between atoms: _27  and  _30
REMARK    5  A    between atoms: _32  and  _33
REMARK    6  A    between atoms: _38  and  _43
REMARK    7  A    between atoms: _43  and  _46
REMARK    8  A    between atoms: _53  and  _55
REMARK                            x       y       z     vdW  Elec       q    Type
REMARK                         _______ _______ _______ _____ _____    ______ ____
ROOT
ATOM     10  C   UNL     1       0.654  -3.404  -3.930  0.00  0.00    +0.038 A 
ATOM     11  C   UNL     1      -0.131  -3.310  -5.108  0.00  0.00    +0.047 A 
ATOM     12  C   UNL     1       0.488  -3.144  -6.414  0.00  0.00    +0.035 A 
ATOM     32  C   UNL     1       1.910  -3.079  -6.484  0.00  0.00    +0.024 A 
ATOM     33  C   UNL     1       2.724  -3.172  -5.297  0.00  0.00    +0.007 A 
ATOM     34  C   UNL     1       2.119  -3.334  -4.006  0.00  0.00    -0.029 A 
ATOM     35  C   UNL     1       3.040  -3.421  -2.767  0.00  0.00    +0.045 C 
ENDROOT
BRANCH  10   9
ATOM      4  C   UNL     1      -1.615  -1.649  -0.083  0.00  0.00    +0.077 A 
ATOM      5  C   UNL     1      -1.477  -0.298  -0.544  0.00  0.00    +0.048 A 
ATOM      6  C   UNL     1      -0.810  -0.097  -1.773  0.00  0.00    +0.116 A 
ATOM      7  N   UNL     1      -0.321  -1.174  -2.479  0.00  0.00    -0.223 NA
ATOM      8  C   UNL     1      -0.469  -2.464  -2.005  0.00  0.00    +0.220 A 
ATOM      9  N   UNL     1       0.008  -3.564  -2.703  0.00  0.00    -0.283 N 
ATOM     36  H   UNL     1      -0.115  -4.499  -2.315  0.00  0.00    +0.155 HD
ATOM     37  N   UNL     1      -1.102  -2.683  -0.833  0.00  0.00    -0.214 NA
BRANCH   4   3
ATOM      1  C   UNL     1      -3.797  -3.509   2.578  0.00  0.00    +0.020 A 
ATOM      2  C   UNL     1      -3.161  -3.192   1.320  0.00  0.00    +0.013 A 
ATOM      3  C   UNL     1      -2.299  -2.023   1.196  0.00  0.00    +0.019 A 
ATOM     38  C   UNL     1      -2.099  -1.191   2.372  0.00  0.00    +0.120 A 
ATOM     39  N   UNL     1      -2.726  -1.520   3.570  0.00  0.00    -0.263 NA
ATOM     40  C   UNL     1      -3.559  -2.641   3.701  0.00  0.00    +0.111 A 
ENDBRANCH   4   3
ENDBRANCH  10   9
BRANCH  12  13
ATOM     13  N   UNL     1      -0.258  -3.034  -7.643  0.00  0.00    -0.281 N 
ATOM     14  C   UNL     1      -0.271  -1.979  -8.540  0.00  0.00    +0.248 C 
ATOM     30  O   UNL     1       0.196  -0.873  -8.312  0.00  0.00    -0.270 OA
ATOM     31  H   UNL     1      -0.848  -3.832  -7.880  0.00  0.00    +0.155 HD
BRANCH  14  15
ATOM     15  C   UNL     1      -0.908  -2.176  -9.877  0.00  0.00    +0.037 A 
ATOM     16  C   UNL     1      -2.351  -2.007 -10.065  0.00  0.00    +0.013 A 
ATOM     17  C   UNL     1      -2.942  -2.220 -11.362  0.00  0.00    +0.005 A 
ATOM     18  C   UNL     1      -2.088  -2.604 -12.484  0.00  0.00    -0.033 A 
ATOM     28  C   UNL     1      -0.659  -2.759 -12.271  0.00  0.00    +0.005 A 
ATOM     29  C   UNL     1      -0.076  -2.552 -11.001  0.00  0.00    +0.013 A 
BRANCH  18  19
ATOM     19  C   UNL     1      -2.636  -2.872 -13.898  0.00  0.00    +0.119 C 
BRANCH  19  20
ATOM     20  N   UNL     1      -2.306  -4.189 -14.520  0.00  0.00    -0.302 NA
ATOM     21  C   UNL     1      -2.700  -4.241 -15.999  0.00  0.00    +0.066 C 
ATOM     22  C   UNL     1      -2.327  -5.617 -16.640  0.00  0.00    -0.064 C 
ATOM     23  N   UNL     1      -3.008  -6.742 -15.858  0.00  0.00    +0.379 N 
ATOM     24  C   UNL     1      -2.707  -8.033 -16.493  0.00  0.00    -0.096 C 
ATOM     25  H   UNL     1      -4.109  -6.581 -15.924  0.00  0.00    -0.082 HD
ATOM     26  C   UNL     1      -2.623  -6.696 -14.386  0.00  0.00    -0.064 C 
ATOM     27  C   UNL     1      -2.971  -5.314 -13.766  0.00  0.00    +0.066 C 
ENDBRANCH  19  20
ENDBRANCH  18  19
ENDBRANCH  14  15
ENDBRANCH  12  13
TORSDOF 6
ENDMDL
MODEL 2
REMARK VINA RESULT:     -11.9      2.197     13.226
REMARK  Name = C:\Users\Docking\Desktop\test protocol\1iep_ligandH.pdb
REMARK  8 active torsions:
REMARK  status: ('A' for Active; 'I' for Inactive)
REMARK    1  A    between atoms: _5  and  _11
REMARK    2  A    between atoms: _19  and  _21
REMARK    3  A    between atoms: _22  and  _66
REMARK    4  A    between atoms: _27  and  _30
REMARK    5  A    between atoms: _32  and  _33
REMARK    6  A    between atoms: _38  and  _43
REMARK    7  A    between atoms: _43  and  _46
REMARK    8  A    between atoms: _53  and  _55
REMARK                            x       y       z     vdW  Elec       q    Type
REMARK                         _______ _______ _______ _____ _____    ______ ____
ROOT
ATOM     10  C   UNL     1       1.069  -3.385  -8.744  0.00  0.00    +0.038 A 
ATOM     11  C   UNL     1       0.373  -3.201  -7.522  0.00  0.00    +0.047 A 
ATOM     12  C   UNL     1       0.936  -2.396  -6.449  0.00  0.00    +0.035 A 
ATOM     32  C   UNL     1       2.209  -1.790  -6.656  0.00  0.00    +0.024 A 
ATOM     33  C   UNL     1       2.931  -1.967  -7.892  0.00  0.00    +0.007 A 
ATOM     34  C   UNL     1       2.382  -2.762  -8.952  0.00  0.00    -0.029 A 
ATOM     35  C   UNL     1       3.203  -2.923 -10.253  0.00  0.00    +0.045 C 
ENDROOT
BRANCH  10   9
ATOM      4  C   UNL     1      -1.636  -3.905 -12.675  0.00  0.00    +0.077 A 
ATOM      5  C   UNL     1      -1.926  -2.501 -12.733  0.00  0.00    +0.048 A 
ATOM      6  C   UNL     1      -1.365  -1.681 -11.728  0.00  0.00    +0.116 A 
ATOM      7  N   UNL     1      -0.575  -2.234 -10.744  0.00  0.00    -0.223 NA
ATOM      8  C   UNL     1      -0.317  -3.592 -10.716  0.00  0.00    +0.220 A 
ATOM      9  N   UNL     1       0.482  -4.168  -9.740  0.00  0.00    -0.283 N 
ATOM     36  H   UNL     1       0.642  -5.175  -9.750  0.00  0.00    +0.155 HD
ATOM     37  N   UNL     1      -0.842  -4.397 -11.663  0.00  0.00    -0.214 NA
BRANCH   4   3
ATOM      1  C   UNL     1      -2.799  -7.239 -14.357  0.00  0.00    +0.020 A 
ATOM      2  C   UNL     1      -2.295  -6.320 -13.364  0.00  0.00    +0.013 A 
ATOM      3  C   UNL     1      -2.153  -4.901 -13.666  0.00  0.00    +0.019 A 
ATOM     38  C   UNL     1      -2.533  -4.442 -14.993  0.00  0.00    +0.120 A 
ATOM     39  N   UNL     1      -3.015  -5.351 -15.930  0.00  0.00    -0.263 NA
ATOM     40  C   UNL     1      -3.154  -6.718 -15.651  0.00  0.00    +0.111 A 
ENDBRANCH   4   3
ENDBRANCH  10   9
BRANCH  12  13
ATOM     13  N   UNL     1       0.279  -2.180  -5.184  0.00  0.00    -0.281 N 
ATOM     14  C   UNL     1       0.601  -2.728  -3.953  0.00  0.00    +0.248 C 
ATOM     30  O   UNL     1       1.376  -3.659  -3.793  0.00  0.00    -0.270 OA
ATOM     31  H   UNL     1      -0.520  -1.546  -5.197  0.00  0.00    +0.155 HD
BRANCH  14  15
ATOM     15  C   UNL     1      -0.043  -2.171  -2.724  0.00  0.00    +0.037 A 
ATOM     16  C   UNL     1      -0.261  -0.731  -2.567  0.00  0.00    +0.013 A 
ATOM     17  C   UNL     1      -0.868  -0.219  -1.364  0.00  0.00    +0.005 A 
ATOM     18  C   UNL     1      -1.263  -1.149  -0.309  0.00  0.00    -0.033 A 
ATOM     28  C   UNL     1      -1.039  -2.574  -0.493  0.00  0.00    +0.005 A 
ATOM     29  C   UNL     1      -0.444  -3.079  -1.670  0.00  0.00    +0.013 A 
BRANCH  18  19
ATOM     19  C   UNL     1      -1.898  -0.689   1.017  0.00  0.00    +0.119 C 
BRANCH  19  20
ATOM     20  N   UNL     1      -1.188  -1.057   2.279  0.00  0.00    -0.302 NA
ATOM     21  C   UNL     1      -1.834  -0.414   3.509  0.00  0.00    +0.066 C 
ATOM     22  C   UNL     1      -1.093  -0.826   4.822  0.00  0.00    -0.064 C 
ATOM     23  N   UNL     1       0.381  -0.434   4.717  0.00  0.00    +0.379 N 
ATOM     24  C   UNL     1       1.069  -0.768   5.973  0.00  0.00    -0.096 C 
ATOM     25  H   UNL     1       0.428   0.673   4.590  0.00  0.00    -0.082 HD
ATOM     26  C   UNL     1       1.031  -1.067   3.495  0.00  0.00    -0.064 C 
ATOM     27  C   UNL     1       0.269  -0.674   2.198  0.00  0.00    +0.066 C 
ENDBRANCH  19  20
ENDBRANCH  18  19
ENDBRANCH  14  15
ENDBRANCH  12  13
TORSDOF 6
ENDMDL
MODEL 3
REMARK VINA RESULT:     -11.9      2.095     12.605
REMARK  Name = C:\Users\Docking\Desktop\test protocol\1iep_ligandH.pdb
REMARK  8 active torsions:
REMARK  status: ('A' for Active; 'I' for Inactive)
REMARK    1  A    between atoms: _5  and  _11
REMARK    2  A    between atoms: _19  and  _21
REMARK    3  A    between atoms: _22  and  _66
REMARK    4  A    between atoms: _27  and  _30
REMARK    5  A    between atoms: _32  and  _33
REMARK    6  A    between atoms: _38  and  _43
REMARK    7  A    between atoms: _43  and  _46
REMARK    8  A    between atoms: _53  and  _55
REMARK                            x       y       z     vdW  Elec       q    Type
REMARK                         _______ _______ _______ _____ _____    ______ ____
ROOT
ATOM     10  C   UNL     1       1.122  -3.418  -8.866  0.00  0.00    +0.038 A 
ATOM     11  C   UNL     1       0.425  -3.270  -7.639  0.00  0.00    +0.047 A 
ATOM     12  C   UNL     1       0.971  -2.467  -6.556  0.00  0.00    +0.035 A 
ATOM     32  C   UNL     1       2.227  -1.824  -6.758  0.00  0.00    +0.024 A 
ATOM     33  C   UNL     1       2.949  -1.964  -7.999  0.00  0.00    +0.007 A 
ATOM     34  C   UNL     1       2.417  -2.758  -9.069  0.00  0.00    -0.029 A 
ATOM     35  C   UNL     1       3.237  -2.877 -10.375  0.00  0.00    +0.045 C 
ENDROOT
BRANCH  10   9
ATOM      4  C   UNL     1      -1.715  -3.981 -12.696  0.00  0.00    +0.077 A 
ATOM      5  C   UNL     1      -2.116  -2.604 -12.676  0.00  0.00    +0.048 A 
ATOM      6  C   UNL     1      -1.575  -1.786 -11.659  0.00  0.00    +0.116 A 
ATOM      7  N   UNL     1      -0.699  -2.316 -10.737  0.00  0.00    -0.223 NA
ATOM      8  C   UNL     1      -0.334  -3.649 -10.784  0.00  0.00    +0.220 A 
ATOM      9  N   UNL     1       0.551  -4.201  -9.872  0.00  0.00    -0.283 N 
ATOM     36  H   UNL     1       0.790  -5.191  -9.936  0.00  0.00    +0.155 HD
ATOM     37  N   UNL     1      -0.838  -4.451 -11.744  0.00  0.00    -0.214 NA
BRANCH   4   3
ATOM      1  C   UNL     1      -2.795  -7.309 -14.445  0.00  0.00    +0.020 A 
ATOM      2  C   UNL     1      -2.323  -6.396 -13.430  0.00  0.00    +0.013 A 
ATOM      3  C   UNL     1      -2.198  -4.971 -13.711  0.00  0.00    +0.019 A 
ATOM     38  C   UNL     1      -2.562  -4.499 -15.038  0.00  0.00    +0.120 A 
ATOM     39  N   UNL     1      -3.012  -5.402 -15.996  0.00  0.00    -0.263 NA
ATOM     40  C   UNL     1      -3.135  -6.776 -15.738  0.00  0.00    +0.111 A 
ENDBRANCH   4   3
ENDBRANCH  10   9
BRANCH  12  13
ATOM     13  N   UNL     1       0.313  -2.287  -5.285  0.00  0.00    -0.281 N 
ATOM     14  C   UNL     1       0.748  -2.699  -4.036  0.00  0.00    +0.248 C 
ATOM     30  O   UNL     1       1.672  -3.476  -3.847  0.00  0.00    -0.270 OA
ATOM     31  H   UNL     1      -0.581  -1.798  -5.310  0.00  0.00    +0.155 HD
BRANCH  14  15
ATOM     15  C   UNL     1       0.046  -2.184  -2.822  0.00  0.00    +0.037 A 
ATOM     16  C   UNL     1      -0.220  -0.754  -2.647  0.00  0.00    +0.013 A 
ATOM     17  C   UNL     1      -0.884  -0.281  -1.458  0.00  0.00    +0.005 A 
ATOM     18  C   UNL     1      -1.288  -1.242  -0.434  0.00  0.00    -0.033 A 
ATOM     28  C   UNL     1      -1.017  -2.656  -0.635  0.00  0.00    +0.005 A 
ATOM     29  C   UNL     1      -0.365  -3.122  -1.799  0.00  0.00    +0.013 A 
BRANCH  18  19
ATOM     19  C   UNL     1      -1.983  -0.825   0.876  0.00  0.00    +0.119 C 
BRANCH  19  20
ATOM     20  N   UNL     1      -3.219  -1.570   1.261  0.00  0.00    -0.302 NA
ATOM     21  C   UNL     1      -4.428  -1.151   0.420  0.00  0.00    +0.066 C 
ATOM     22  C   UNL     1      -5.707  -1.956   0.820  0.00  0.00    -0.064 C 
ATOM     23  N   UNL     1      -5.988  -1.752   2.310  0.00  0.00    +0.379 N 
ATOM     24  C   UNL     1      -7.223  -2.461   2.678  0.00  0.00    -0.096 C 
ATOM     25  H   UNL     1      -6.160  -0.663   2.476  0.00  0.00    -0.082 HD
ATOM     26  C   UNL     1      -4.790  -2.164   3.155  0.00  0.00    -0.064 C 
ATOM     27  C   UNL     1      -3.518  -1.380   2.728  0.00  0.00    +0.066 C 
ENDBRANCH  19  20
ENDBRANCH  18  19
ENDBRANCH  14  15
ENDBRANCH  12  13
TORSDOF 6
ENDMDL
MODEL 4
REMARK VINA RESULT:     -11.7      4.566     14.317
REMARK  Name = C:\Users\Docking\Desktop\test protocol\1iep_ligandH.pdb
REMARK  8 active torsions:
REMARK  status: ('A' for Active; 'I' for Inactive)
REMARK    1  A    between atoms: _5  and  _11
REMARK    2  A    between atoms: _19  and  _21
REMARK    3  A    between atoms: _22  and  _66
REMARK    4  A    between atoms: _27  and  _30
REMARK    5  A    between atoms: _32  and  _33
REMARK    6  A    between atoms: _38  and  _43
REMARK    7  A    between atoms: _43  and  _46
REMARK    8  A    between atoms: _53  and  _55
REMARK                            x       y       z     vdW  Elec       q    Type
REMARK                         _______ _______ _______ _____ _____    ______ ____
ROOT
ATOM     10  C   UNL     1      -4.342  -4.827 -16.702  0.00  0.00    +0.038 A 
ATOM     11  C   UNL     1      -3.943  -4.219 -15.485  0.00  0.00    +0.047 A 
ATOM     12  C   UNL     1      -2.631  -4.475 -14.911  0.00  0.00    +0.035 A 
ATOM     32  C   UNL     1      -1.750  -5.354 -15.605  0.00  0.00    +0.024 A 
ATOM     33  C   UNL     1      -2.140  -5.982 -16.843  0.00  0.00    +0.007 A 
ATOM     34  C   UNL     1      -3.434  -5.735 -17.413  0.00  0.00    -0.029 A 
ATOM     35  C   UNL     1      -3.802  -6.440 -18.739  0.00  0.00    +0.045 C 
ENDROOT
BRANCH  10   9
ATOM      4  C   UNL     1      -7.765  -1.757 -18.082  0.00  0.00    +0.077 A 
ATOM      5  C   UNL     1      -6.962  -0.618 -17.742  0.00  0.00    +0.048 A 
ATOM      6  C   UNL     1      -5.677  -0.865 -17.208  0.00  0.00    +0.116 A 
ATOM      7  N   UNL     1      -5.238  -2.159 -17.032  0.00  0.00    -0.223 NA
ATOM      8  C   UNL     1      -6.038  -3.236 -17.369  0.00  0.00    +0.220 A 
ATOM      9  N   UNL     1      -5.614  -4.546 -17.207  0.00  0.00    -0.283 N 
ATOM     36  H   UNL     1      -6.236  -5.312 -17.461  0.00  0.00    +0.155 HD
ATOM     37  N   UNL     1      -7.269  -3.026 -17.879  0.00  0.00    -0.214 NA
BRANCH   4   3
ATOM      1  C   UNL     1     -11.299  -2.676 -19.483  0.00  0.00    +0.020 A 
ATOM      2  C   UNL     1      -9.975  -2.826 -18.925  0.00  0.00    +0.013 A 
ATOM      3  C   UNL     1      -9.143  -1.659 -18.659  0.00  0.00    +0.019 A 
ATOM     38  C   UNL     1      -9.685  -0.345 -18.971  0.00  0.00    +0.120 A 
ATOM     39  N   UNL     1     -10.963  -0.232 -19.509  0.00  0.00    -0.263 NA
ATOM     40  C   UNL     1     -11.772  -1.348 -19.771  0.00  0.00    +0.111 A 
ENDBRANCH   4   3
ENDBRANCH  10   9
BRANCH  12  13
ATOM     13  N   UNL     1      -2.172  -3.892 -13.674  0.00  0.00    -0.281 N 
ATOM     14  C   UNL     1      -1.761  -4.548 -12.525  0.00  0.00    +0.248 C 
ATOM     30  O   UNL     1      -1.927  -5.739 -12.312  0.00  0.00    -0.270 OA
ATOM     31  H   UNL     1      -2.149  -2.873 -13.641  0.00  0.00    +0.155 HD
BRANCH  14  15
ATOM     15  C   UNL     1      -1.078  -3.763 -11.452  0.00  0.00    +0.037 A 
ATOM     16  C   UNL     1      -0.732  -2.353 -11.645  0.00  0.00    +0.013 A 
ATOM     17  C   UNL     1      -0.058  -1.624 -10.599  0.00  0.00    +0.005 A 
ATOM     18  C   UNL     1       0.273  -2.305  -9.350  0.00  0.00    -0.033 A 
ATOM     28  C   UNL     1      -0.087  -3.703  -9.183  0.00  0.00    +0.005 A 
ATOM     29  C   UNL     1      -0.747  -4.421 -10.206  0.00  0.00    +0.013 A 
BRANCH  18  19
ATOM     19  C   UNL     1       1.009  -1.611  -8.189  0.00  0.00    +0.119 C 
BRANCH  19  20
ATOM     20  N   UNL     1       1.364  -2.450  -7.005  0.00  0.00    -0.302 NA
ATOM     21  C   UNL     1       0.507  -2.110  -5.783  0.00  0.00    +0.066 C 
ATOM     22  C   UNL     1       0.875  -3.013  -4.560  0.00  0.00    -0.064 C 
ATOM     23  N   UNL     1       2.362  -2.852  -4.241  0.00  0.00    +0.379 N 
ATOM     24  C   UNL     1       2.699  -3.654  -3.056  0.00  0.00    -0.096 C 
ATOM     25  H   UNL     1       2.539  -1.781  -3.986  0.00  0.00    -0.082 HD
ATOM     26  C   UNL     1       3.222  -3.185  -5.452  0.00  0.00    -0.064 C 
ATOM     27  C   UNL     1       2.827  -2.303  -6.670  0.00  0.00    +0.066 C 
ENDBRANCH  19  20
ENDBRANCH  18  19
ENDBRANCH  14  15
ENDBRANCH  12  13
TORSDOF 6
ENDMDL
MODEL 5
REMARK VINA RESULT:     -11.0      6.305     11.735
REMARK  Name = C:\Users\Docking\Desktop\test protocol\1iep_ligandH.pdb
REMARK  8 active torsions:
REMARK  status: ('A' for Active; 'I' for Inactive)
REMARK    1  A    between atoms: _5  and  _11
REMARK    2  A    between atoms: _19  and  _21
REMARK    3  A    between atoms: _22  and  _66
REMARK    4  A    between atoms: _27  and  _30
REMARK    5  A    between atoms: _32  and  _33
REMARK    6  A    between atoms: _38  and  _43
REMARK    7  A    between atoms: _43  and  _46
REMARK    8  A    between atoms: _53  and  _55
REMARK                            x       y       z     vdW  Elec       q    Type
REMARK                         _______ _______ _______ _____ _____    ______ ____
ROOT
ATOM     10  C   UNL     1      -3.507  -5.420 -14.986  0.00  0.00    +0.038 A 
ATOM     11  C   UNL     1      -4.470  -4.549 -15.555  0.00  0.00    +0.047 A 
ATOM     12  C   UNL     1      -5.069  -4.832 -16.850  0.00  0.00    +0.035 A 
ATOM     32  C   UNL     1      -4.665  -6.014 -17.537  0.00  0.00    +0.024 A 
ATOM     33  C   UNL     1      -3.686  -6.910 -16.974  0.00  0.00    +0.007 A 
ATOM     34  C   UNL     1      -3.090  -6.634 -15.698  0.00  0.00    -0.029 A 
ATOM     35  C   UNL     1      -2.041  -7.627 -15.145  0.00  0.00    +0.045 C 
ENDROOT
BRANCH  10   9
ATOM      4  C   UNL     1      -2.156  -2.246 -11.649  0.00  0.00    +0.077 A 
ATOM      5  C   UNL     1      -2.538  -1.133 -12.468  0.00  0.00    +0.048 A 
ATOM      6  C   UNL     1      -3.072  -1.419 -13.744  0.00  0.00    +0.116 A 
ATOM      7  N   UNL     1      -3.209  -2.726 -14.160  0.00  0.00    -0.223 NA
ATOM      8  C   UNL     1      -2.828  -3.777 -13.346  0.00  0.00    +0.220 A 
ATOM      9  N   UNL     1      -2.964  -5.099 -13.740  0.00  0.00    -0.283 N 
ATOM     36  H   UNL     1      -2.665  -5.845 -13.113  0.00  0.00    +0.155 HD
ATOM     37  N   UNL     1      -2.314  -3.529 -12.123  0.00  0.00    -0.214 NA
BRANCH   4   3
ATOM      1  C   UNL     1      -1.791  -1.965  -7.764  0.00  0.00    +0.020 A 
ATOM      2  C   UNL     1      -2.398  -2.104  -9.068  0.00  0.00    +0.013 A 
ATOM      3  C   UNL     1      -1.579  -2.106 -10.274  0.00  0.00    +0.019 A 
ATOM     38  C   UNL     1      -0.139  -1.965 -10.125  0.00  0.00    +0.120 A 
ATOM     39  N   UNL     1       0.417  -1.832  -8.856  0.00  0.00    -0.263 NA
ATOM     40  C   UNL     1      -0.361  -1.827  -7.688  0.00  0.00    +0.111 A 
ENDBRANCH   4   3
ENDBRANCH  10   9
BRANCH  12  13
ATOM     13  N   UNL     1      -6.047  -3.981 -17.482  0.00  0.00    -0.281 N 
ATOM     14  C   UNL     1      -6.054  -2.597 -17.549  0.00  0.00    +0.248 C 
ATOM     30  O   UNL     1      -5.328  -1.869 -16.888  0.00  0.00    -0.270 OA
ATOM     31  H   UNL     1      -6.828  -4.456 -17.934  0.00  0.00    +0.155 HD
BRANCH  14  15
ATOM     15  C   UNL     1      -7.017  -1.924 -18.473  0.00  0.00    +0.037 A 
ATOM     16  C   UNL     1      -8.419  -2.341 -18.545  0.00  0.00    +0.013 A 
ATOM     17  C   UNL     1      -9.323  -1.687 -19.458  0.00  0.00    +0.005 A 
ATOM     18  C   UNL     1      -8.826  -0.606 -20.306  0.00  0.00    -0.033 A 
ATOM     28  C   UNL     1      -7.431  -0.208 -20.210  0.00  0.00    +0.005 A 
ATOM     29  C   UNL     1      -6.542  -0.848 -19.317  0.00  0.00    +0.013 A 
BRANCH  18  19
ATOM     19  C   UNL     1      -9.713   0.135 -21.323  0.00  0.00    +0.119 C 
BRANCH  19  20
ATOM     20  N   UNL     1      -9.731  -0.387 -22.722  0.00  0.00    -0.302 NA
ATOM     21  C   UNL     1      -9.490  -1.898 -22.775  0.00  0.00    +0.066 C 
ATOM     22  C   UNL     1      -9.534  -2.431 -24.244  0.00  0.00    -0.064 C 
ATOM     23  N   UNL     1      -8.494  -1.688 -25.085  0.00  0.00    +0.379 N 
ATOM     24  C   UNL     1      -8.493  -2.226 -26.452  0.00  0.00    -0.096 C 
ATOM     25  H   UNL     1      -7.493  -1.891 -24.640  0.00  0.00    -0.082 HD
ATOM     26  C   UNL     1      -8.725  -0.184 -25.036  0.00  0.00    -0.064 C 
ATOM     27  C   UNL     1      -8.708   0.330 -23.569  0.00  0.00    +0.066 C 
ENDBRANCH  19  20
ENDBRANCH  18  19
ENDBRANCH  14  15
ENDBRANCH  12  13
TORSDOF 6
ENDMDL
