MODEL 1
REMARK VINA RESULT:      -8.1      0.000      0.000
REMARK  Name = C:\Users\Docking\Desktop\test protocol\1iep_ligandH.pdb
REMARK  8 active torsions:
REMARK  status: ('A' for Active; 'I' for Inactive)
REMARK    1  A    between atoms: _5  and  _11
REMARK    2  A    between atoms: _19  and  _21
REMARK    3  A    between atoms: _22  and  _66
REMARK    4  A    between atoms: _27  and  _30
REMARK    5  A    between atoms: _32  and  _33
REMARK    6  A    between atoms: _38  and  _43
REMARK    7  A    between atoms: _43  and  _46
REMARK    8  A    between atoms: _53  and  _55
REMARK                            x       y       z     vdW  Elec       q    Type
REMARK                         _______ _______ _______ _____ _____    ______ ____
ROOT
ATOM     10  C   UNL     1       7.394 -20.126 -36.146  0.00  0.00    +0.038 A 
ATOM     11  C   UNL     1       7.422 -20.165 -37.564  0.00  0.00    +0.047 A 
ATOM     12  C   UNL     1       8.642 -20.498 -38.283  0.00  0.00    +0.035 A 
ATOM     32  C   UNL     1       9.814 -20.789 -37.526  0.00  0.00    +0.024 A 
ATOM     33  C   UNL     1       9.803 -20.753 -36.085  0.00  0.00    +0.007 A 
ATOM     34  C   UNL     1       8.604 -20.423 -35.370  0.00  0.00    -0.029 A 
ATOM     35  C   UNL     1       8.652 -20.393 -33.825  0.00  0.00    +0.045 C 
ENDROOT
BRANCH  10   9
ATOM      4  C   UNL     1       3.017 -21.252 -34.528  0.00  0.00    +0.077 A 
ATOM      5  C   UNL     1       3.116 -22.595 -35.022  0.00  0.00    +0.048 A 
ATOM      6  C   UNL     1       4.307 -22.955 -35.692  0.00  0.00    +0.116 A 
ATOM      7  N   UNL     1       5.317 -22.031 -35.852  0.00  0.00    -0.223 NA
ATOM      8  C   UNL     1       5.189 -20.743 -35.365  0.00  0.00    +0.220 A 
ATOM      9  N   UNL     1       6.195 -19.800 -35.507  0.00  0.00    -0.283 N 
ATOM     36  H   UNL     1       6.059 -18.858 -35.141  0.00  0.00    +0.155 HD
ATOM     37  N   UNL     1       4.061 -20.375 -34.722  0.00  0.00    -0.214 NA
BRANCH   4   3
ATOM      1  C   UNL     1      -0.158 -19.178 -33.571  0.00  0.00    +0.020 A 
ATOM      2  C   UNL     1       0.984 -19.653 -34.319  0.00  0.00    +0.013 A 
ATOM      3  C   UNL     1       1.824 -20.723 -33.796  0.00  0.00    +0.019 A 
ATOM     38  C   UNL     1       1.478 -21.296 -32.504  0.00  0.00    +0.120 A 
ATOM     39  N   UNL     1       0.373 -20.818 -31.806  0.00  0.00    -0.263 NA
ATOM     40  C   UNL     1      -0.442 -19.788 -32.299  0.00  0.00    +0.111 A 
ENDBRANCH   4   3
ENDBRANCH  10   9
BRANCH  12  13
ATOM     13  N   UNL     1       8.733 -20.545 -39.721  0.00  0.00    -0.281 N 
ATOM     14  C   UNL     1       9.267 -19.592 -40.572  0.00  0.00    +0.248 C 
ATOM     30  O   UNL     1       9.556 -18.452 -40.239  0.00  0.00    -0.270 OA
ATOM     31  H   UNL     1       8.358 -21.383 -40.166  0.00  0.00    +0.155 HD
BRANCH  14  15
ATOM     15  C   UNL     1       9.500 -19.951 -42.004  0.00  0.00    +0.037 A 
ATOM     16  C   UNL     1       8.709 -20.993 -42.665  0.00  0.00    +0.013 A 
ATOM     17  C   UNL     1       8.966 -21.332 -44.042  0.00  0.00    +0.005 A 
ATOM     18  C   UNL     1      10.019 -20.627 -44.769  0.00  0.00    -0.033 A 
ATOM     28  C   UNL     1      10.786 -19.595 -44.090  0.00  0.00    +0.005 A 
ATOM     29  C   UNL     1      10.537 -19.260 -42.740  0.00  0.00    +0.013 A 
BRANCH  18  19
ATOM     19  C   UNL     1      10.377 -20.939 -46.234  0.00  0.00    +0.119 C 
BRANCH  19  20
ATOM     20  N   UNL     1      11.512 -20.179 -46.837  0.00  0.00    -0.302 NA
ATOM     21  C   UNL     1      11.287 -19.894 -48.325  0.00  0.00    +0.066 C 
ATOM     22  C   UNL     1      12.474 -19.079 -48.934  0.00  0.00    -0.064 C 
ATOM     23  N   UNL     1      13.779 -19.848 -48.722  0.00  0.00    +0.379 N 
ATOM     24  C   UNL     1      14.889 -19.112 -49.345  0.00  0.00    -0.096 C 
ATOM     25  H   UNL     1      13.684 -20.827 -49.248  0.00  0.00    -0.082 HD
ATOM     26  C   UNL     1      14.010 -20.138 -47.245  0.00  0.00    -0.064 C 
ATOM     27  C   UNL     1      12.811 -20.923 -46.642  0.00  0.00    +0.066 C 
ENDBRANCH  19  20
ENDBRANCH  18  19
ENDBRANCH  14  15
ENDBRANCH  12  13
TORSDOF 6
ENDMDL
MODEL 2
REMARK VINA RESULT:      -7.9      1.945      2.500
REMARK  Name = C:\Users\Docking\Desktop\test protocol\1iep_ligandH.pdb
REMARK  8 active torsions:
REMARK  status: ('A' for Active; 'I' for Inactive)
REMARK    1  A    between atoms: _5  and  _11
REMARK    2  A    between atoms: _19  and  _21
REMARK    3  A    between atoms: _22  and  _66
REMARK    4  A    between atoms: _27  and  _30
REMARK    5  A    between atoms: _32  and  _33
REMARK    6  A    between atoms: _38  and  _43
REMARK    7  A    between atoms: _43  and  _46
REMARK    8  A    between atoms: _53  and  _55
REMARK                            x       y       z     vdW  Elec       q    Type
REMARK                         _______ _______ _______ _____ _____    ______ ____
ROOT
ATOM     10  C   UNL     1       6.880 -19.989 -35.668  0.00  0.00    +0.038 A 
ATOM     11  C   UNL     1       7.010 -20.060 -37.078  0.00  0.00    +0.047 A 
ATOM     12  C   UNL     1       8.291 -20.353 -37.702  0.00  0.00    +0.035 A 
ATOM     32  C   UNL     1       9.419 -20.572 -36.858  0.00  0.00    +0.024 A 
ATOM     33  C   UNL     1       9.305 -20.502 -35.423  0.00  0.00    +0.007 A 
ATOM     34  C   UNL     1       8.045 -20.211 -34.802  0.00  0.00    -0.029 A 
ATOM     35  C   UNL     1       7.982 -20.142 -33.258  0.00  0.00    +0.045 C 
ENDROOT
BRANCH  10   9
ATOM      4  C   UNL     1       2.447 -21.271 -34.350  0.00  0.00    +0.077 A 
ATOM      5  C   UNL     1       2.635 -22.616 -34.812  0.00  0.00    +0.048 A 
ATOM      6  C   UNL     1       3.884 -22.936 -35.389  0.00  0.00    +0.116 A 
ATOM      7  N   UNL     1       4.866 -21.973 -35.491  0.00  0.00    -0.223 NA
ATOM      8  C   UNL     1       4.651 -20.685 -35.037  0.00  0.00    +0.220 A 
ATOM      9  N   UNL     1       5.626 -19.704 -35.122  0.00  0.00    -0.283 N 
ATOM     36  H   UNL     1       5.426 -18.763 -34.783  0.00  0.00    +0.155 HD
ATOM     37  N   UNL     1       3.466 -20.355 -34.484  0.00  0.00    -0.214 NA
BRANCH   4   3
ATOM      1  C   UNL     1      -0.546 -19.002 -33.258  0.00  0.00    +0.020 A 
ATOM      2  C   UNL     1       0.680 -19.425 -33.893  0.00  0.00    +0.013 A 
ATOM      3  C   UNL     1       1.183 -20.781 -33.715  0.00  0.00    +0.019 A 
ATOM     38  C   UNL     1       0.413 -21.693 -32.882  0.00  0.00    +0.120 A 
ATOM     39  N   UNL     1      -0.764 -21.257 -32.281  0.00  0.00    -0.263 NA
ATOM     40  C   UNL     1      -1.256 -19.954 -32.444  0.00  0.00    +0.111 A 
ENDBRANCH   4   3
ENDBRANCH  10   9
BRANCH  12  13
ATOM     13  N   UNL     1       8.486 -20.430 -39.129  0.00  0.00    -0.281 N 
ATOM     14  C   UNL     1       9.115 -19.512 -39.953  0.00  0.00    +0.248 C 
ATOM     30  O   UNL     1       9.421 -18.377 -39.618  0.00  0.00    -0.270 OA
ATOM     31  H   UNL     1       8.114 -21.263 -39.586  0.00  0.00    +0.155 HD
BRANCH  14  15
ATOM     15  C   UNL     1       9.439 -19.906 -41.358  0.00  0.00    +0.037 A 
ATOM     16  C   UNL     1      10.424 -19.163 -42.148  0.00  0.00    +0.013 A 
ATOM     17  C   UNL     1      10.706 -19.554 -43.507  0.00  0.00    +0.005 A 
ATOM     18  C   UNL     1      10.001 -20.696 -44.083  0.00  0.00    -0.033 A 
ATOM     28  C   UNL     1       9.033 -21.419 -43.275  0.00  0.00    +0.005 A 
ATOM     29  C   UNL     1       8.754 -21.038 -41.944  0.00  0.00    +0.013 A 
BRANCH  18  19
ATOM     19  C   UNL     1      10.223 -21.171 -45.532  0.00  0.00    +0.119 C 
BRANCH  19  20
ATOM     20  N   UNL     1      10.673 -22.582 -45.727  0.00  0.00    -0.302 NA
ATOM     21  C   UNL     1      11.986 -22.873 -44.996  0.00  0.00    +0.066 C 
ATOM     22  C   UNL     1      12.430 -24.359 -45.193  0.00  0.00    -0.064 C 
ATOM     23  N   UNL     1      12.566 -24.653 -46.688  0.00  0.00    +0.379 N 
ATOM     24  C   UNL     1      13.040 -26.033 -46.875  0.00  0.00    -0.096 C 
ATOM     25  H   UNL     1      13.346 -23.970 -47.097  0.00  0.00    -0.082 HD
ATOM     26  C   UNL     1      11.266 -24.364 -47.423  0.00  0.00    -0.064 C 
ATOM     27  C   UNL     1      10.818 -22.893 -47.197  0.00  0.00    +0.066 C 
ENDBRANCH  19  20
ENDBRANCH  18  19
ENDBRANCH  14  15
ENDBRANCH  12  13
TORSDOF 6
ENDMDL
MODEL 3
REMARK VINA RESULT:      -7.7      2.324      3.425
REMARK  Name = C:\Users\Docking\Desktop\test protocol\1iep_ligandH.pdb
REMARK  8 active torsions:
REMARK  status: ('A' for Active; 'I' for Inactive)
REMARK    1  A    between atoms: _5  and  _11
REMARK    2  A    between atoms: _19  and  _21
REMARK    3  A    between atoms: _22  and  _66
REMARK    4  A    between atoms: _27  and  _30
REMARK    5  A    between atoms: _32  and  _33
REMARK    6  A    between atoms: _38  and  _43
REMARK    7  A    between atoms: _43  and  _46
REMARK    8  A    between atoms: _53  and  _55
REMARK                            x       y       z     vdW  Elec       q    Type
REMARK                         _______ _______ _______ _____ _____    ______ ____
ROOT
ATOM     10  C   UNL     1       5.337 -21.555 -34.921  0.00  0.00    +0.038 A 
ATOM     11  C   UNL     1       5.754 -21.129 -36.208  0.00  0.00    +0.047 A 
ATOM     12  C   UNL     1       7.144 -21.234 -36.623  0.00  0.00    +0.035 A 
ATOM     32  C   UNL     1       8.084 -21.782 -35.702  0.00  0.00    +0.024 A 
ATOM     33  C   UNL     1       7.678 -22.219 -34.389  0.00  0.00    +0.007 A 
ATOM     34  C   UNL     1       6.308 -22.115 -33.974  0.00  0.00    -0.029 A 
ATOM     35  C   UNL     1       5.931 -22.593 -32.552  0.00  0.00    +0.045 C 
ENDROOT
BRANCH  10   9
ATOM      4  C   UNL     1       0.854 -23.252 -34.686  0.00  0.00    +0.077 A 
ATOM      5  C   UNL     1       1.221 -24.480 -35.330  0.00  0.00    +0.048 A 
ATOM      6  C   UNL     1       2.573 -24.632 -35.712  0.00  0.00    +0.116 A 
ATOM      7  N   UNL     1       3.481 -23.625 -35.464  0.00  0.00    -0.223 NA
ATOM      8  C   UNL     1       3.092 -22.453 -34.842  0.00  0.00    +0.220 A 
ATOM      9  N   UNL     1       3.990 -21.430 -34.576  0.00  0.00    -0.283 N 
ATOM     36  H   UNL     1       3.662 -20.578 -34.122  0.00  0.00    +0.155 HD
ATOM     37  N   UNL     1       1.807 -22.282 -34.469  0.00  0.00    -0.214 NA
BRANCH   4   3
ATOM      1  C   UNL     1      -3.039 -23.237 -34.304  0.00  0.00    +0.020 A 
ATOM      2  C   UNL     1      -1.720 -23.570 -34.790  0.00  0.00    +0.013 A 
ATOM      3  C   UNL     1      -0.535 -22.943 -34.219  0.00  0.00    +0.019 A 
ATOM     38  C   UNL     1      -0.721 -21.975 -33.149  0.00  0.00    +0.120 A 
ATOM     39  N   UNL     1      -2.003 -21.673 -32.701  0.00  0.00    -0.263 NA
ATOM     40  C   UNL     1      -3.151 -22.269 -33.244  0.00  0.00    +0.111 A 
ENDBRANCH   4   3
ENDBRANCH  10   9
BRANCH  12  13
ATOM     13  N   UNL     1       7.627 -20.811 -37.914  0.00  0.00    -0.281 N 
ATOM     14  C   UNL     1       8.363 -19.677 -38.218  0.00  0.00    +0.248 C 
ATOM     30  O   UNL     1       8.536 -18.740 -37.453  0.00  0.00    -0.270 OA
ATOM     31  H   UNL     1       7.398 -21.421 -38.699  0.00  0.00    +0.155 HD
BRANCH  14  15
ATOM     15  C   UNL     1       8.984 -19.561 -39.572  0.00  0.00    +0.037 A 
ATOM     16  C   UNL     1       9.811 -18.407 -39.933  0.00  0.00    +0.013 A 
ATOM     17  C   UNL     1      10.385 -18.312 -41.252  0.00  0.00    +0.005 A 
ATOM     18  C   UNL     1      10.133 -19.376 -42.220  0.00  0.00    -0.033 A 
ATOM     28  C   UNL     1       9.313 -20.513 -41.835  0.00  0.00    +0.005 A 
ATOM     29  C   UNL     1       8.748 -20.609 -40.543  0.00  0.00    +0.013 A 
BRANCH  18  19
ATOM     19  C   UNL     1      10.687 -19.348 -43.657  0.00  0.00    +0.119 C 
BRANCH  19  20
ATOM     20  N   UNL     1      10.431 -20.544 -44.513  0.00  0.00    -0.302 NA
ATOM     21  C   UNL     1      11.406 -21.686 -44.211  0.00  0.00    +0.066 C 
ATOM     22  C   UNL     1      11.110 -22.938 -45.099  0.00  0.00    -0.064 C 
ATOM     23  N   UNL     1      11.181 -22.541 -46.574  0.00  0.00    +0.379 N 
ATOM     24  C   UNL     1      10.960 -23.729 -47.413  0.00  0.00    -0.096 C 
ATOM     25  H   UNL     1      12.214 -22.172 -46.776  0.00  0.00    -0.082 HD
ATOM     26  C   UNL     1      10.217 -21.405 -46.883  0.00  0.00    -0.064 C 
ATOM     27  C   UNL     1      10.501 -20.176 -45.975  0.00  0.00    +0.066 C 
ENDBRANCH  19  20
ENDBRANCH  18  19
ENDBRANCH  14  15
ENDBRANCH  12  13
TORSDOF 6
ENDMDL
MODEL 4
REMARK VINA RESULT:      -7.7      7.148     13.060
REMARK  Name = C:\Users\Docking\Desktop\test protocol\1iep_ligandH.pdb
REMARK  8 active torsions:
REMARK  status: ('A' for Active; 'I' for Inactive)
REMARK    1  A    between atoms: _5  and  _11
REMARK    2  A    between atoms: _19  and  _21
REMARK    3  A    between atoms: _22  and  _66
REMARK    4  A    between atoms: _27  and  _30
REMARK    5  A    between atoms: _32  and  _33
REMARK    6  A    between atoms: _38  and  _43
REMARK    7  A    between atoms: _43  and  _46
REMARK    8  A    between atoms: _53  and  _55
REMARK                            x       y       z     vdW  Elec       q    Type
REMARK                         _______ _______ _______ _____ _____    ______ ____
ROOT
ATOM     10  C   UNL     1       0.376 -21.310 -34.816  0.00  0.00    +0.038 A 
ATOM     11  C   UNL     1       0.156 -22.645 -35.242  0.00  0.00    +0.047 A 
ATOM     12  C   UNL     1      -0.970 -23.418 -34.742  0.00  0.00    +0.035 A 
ATOM     32  C   UNL     1      -1.854 -22.800 -33.811  0.00  0.00    +0.024 A 
ATOM     33  C   UNL     1      -1.646 -21.444 -33.367  0.00  0.00    +0.007 A 
ATOM     34  C   UNL     1      -0.535 -20.677 -33.854  0.00  0.00    -0.029 A 
ATOM     35  C   UNL     1      -0.357 -19.230 -33.338  0.00  0.00    +0.045 C 
ENDROOT
BRANCH  10   9
ATOM      4  C   UNL     1       5.096 -20.513 -35.167  0.00  0.00    +0.077 A 
ATOM      5  C   UNL     1       5.401 -21.556 -34.230  0.00  0.00    +0.048 A 
ATOM      6  C   UNL     1       4.315 -22.268 -33.675  0.00  0.00    +0.116 A 
ATOM      7  N   UNL     1       3.023 -21.954 -34.038  0.00  0.00    -0.223 NA
ATOM      8  C   UNL     1       2.763 -20.941 -34.943  0.00  0.00    +0.220 A 
ATOM      9  N   UNL     1       1.472 -20.613 -35.328  0.00  0.00    -0.283 N 
ATOM     36  H   UNL     1       1.322 -19.855 -35.993  0.00  0.00    +0.155 HD
ATOM     37  N   UNL     1       3.783 -20.245 -35.486  0.00  0.00    -0.214 NA
BRANCH   4   3
ATOM      1  C   UNL     1       7.198 -17.456 -36.405  0.00  0.00    +0.020 A 
ATOM      2  C   UNL     1       6.172 -18.220 -35.734  0.00  0.00    +0.013 A 
ATOM      3  C   UNL     1       6.135 -19.673 -35.841  0.00  0.00    +0.019 A 
ATOM     38  C   UNL     1       7.160 -20.327 -36.641  0.00  0.00    +0.120 A 
ATOM     39  N   UNL     1       8.135 -19.565 -37.277  0.00  0.00    -0.263 NA
ATOM     40  C   UNL     1       8.179 -18.166 -37.182  0.00  0.00    +0.111 A 
ENDBRANCH   4   3
ENDBRANCH  10   9
BRANCH  12  13
ATOM     13  N   UNL     1      -1.239 -24.780 -35.132  0.00  0.00    -0.281 N 
ATOM     14  C   UNL     1      -2.130 -25.231 -36.092  0.00  0.00    +0.248 C 
ATOM     30  O   UNL     1      -2.990 -24.539 -36.615  0.00  0.00    -0.270 OA
ATOM     31  H   UNL     1      -0.708 -25.499 -34.641  0.00  0.00    +0.155 HD
BRANCH  14  15
ATOM     15  C   UNL     1      -2.064 -26.661 -36.523  0.00  0.00    +0.037 A 
ATOM     16  C   UNL     1      -1.648 -27.027 -37.879  0.00  0.00    +0.013 A 
ATOM     17  C   UNL     1      -1.610 -28.413 -38.275  0.00  0.00    +0.005 A 
ATOM     18  C   UNL     1      -1.989 -29.443 -37.311  0.00  0.00    -0.033 A 
ATOM     28  C   UNL     1      -2.393 -29.052 -35.971  0.00  0.00    +0.005 A 
ATOM     29  C   UNL     1      -2.432 -27.695 -35.580  0.00  0.00    +0.013 A 
BRANCH  18  19
ATOM     19  C   UNL     1      -1.998 -30.945 -37.652  0.00  0.00    +0.119 C 
BRANCH  19  20
ATOM     20  N   UNL     1      -1.573 -31.336 -39.029  0.00  0.00    -0.302 NA
ATOM     21  C   UNL     1      -2.392 -32.510 -39.572  0.00  0.00    +0.066 C 
ATOM     22  C   UNL     1      -1.949 -32.891 -41.022  0.00  0.00    -0.064 C 
ATOM     23  N   UNL     1      -0.457 -33.225 -41.025  0.00  0.00    +0.379 N 
ATOM     24  C   UNL     1      -0.049 -33.640 -42.376  0.00  0.00    -0.096 C 
ATOM     25  H   UNL     1      -0.304 -34.094 -40.344  0.00  0.00    -0.082 HD
ATOM     26  C   UNL     1       0.366 -32.064 -40.484  0.00  0.00    -0.064 C 
ATOM     27  C   UNL     1      -0.103 -31.674 -39.054  0.00  0.00    +0.066 C 
ENDBRANCH  19  20
ENDBRANCH  18  19
ENDBRANCH  14  15
ENDBRANCH  12  13
TORSDOF 6
ENDMDL
MODEL 5
REMARK VINA RESULT:      -7.3      2.990     12.767
REMARK  Name = C:\Users\Docking\Desktop\test protocol\1iep_ligandH.pdb
REMARK  8 active torsions:
REMARK  status: ('A' for Active; 'I' for Inactive)
REMARK    1  A    between atoms: _5  and  _11
REMARK    2  A    between atoms: _19  and  _21
REMARK    3  A    between atoms: _22  and  _66
REMARK    4  A    between atoms: _27  and  _30
REMARK    5  A    between atoms: _32  and  _33
REMARK    6  A    between atoms: _38  and  _43
REMARK    7  A    between atoms: _43  and  _46
REMARK    8  A    between atoms: _53  and  _55
REMARK                            x       y       z     vdW  Elec       q    Type
REMARK                         _______ _______ _______ _____ _____    ______ ____
ROOT
ATOM     10  C   UNL     1       9.413 -19.498 -39.722  0.00  0.00    +0.038 A 
ATOM     11  C   UNL     1       8.365 -20.152 -39.024  0.00  0.00    +0.047 A 
ATOM     12  C   UNL     1       8.220 -20.015 -37.583  0.00  0.00    +0.035 A 
ATOM     32  C   UNL     1       9.159 -19.202 -36.884  0.00  0.00    +0.024 A 
ATOM     33  C   UNL     1      10.231 -18.530 -37.577  0.00  0.00    +0.007 A 
ATOM     34  C   UNL     1      10.380 -18.664 -38.998  0.00  0.00    -0.029 A 
ATOM     35  C   UNL     1      11.551 -17.926 -39.688  0.00  0.00    +0.045 C 
ENDROOT
BRANCH  10   9
ATOM      4  C   UNL     1      10.868 -21.909 -43.608  0.00  0.00    +0.077 A 
ATOM      5  C   UNL     1      11.524 -22.908 -42.815  0.00  0.00    +0.048 A 
ATOM      6  C   UNL     1      11.470 -22.761 -41.411  0.00  0.00    +0.116 A 
ATOM      7  N   UNL     1      10.806 -21.691 -40.852  0.00  0.00    -0.223 NA
ATOM      8  C   UNL     1      10.185 -20.744 -41.646  0.00  0.00    +0.220 A 
ATOM      9  N   UNL     1       9.505 -19.664 -41.105  0.00  0.00    -0.283 N 
ATOM     36  H   UNL     1       9.066 -18.983 -41.725  0.00  0.00    +0.155 HD
ATOM     37  N   UNL     1      10.224 -20.861 -42.989  0.00  0.00    -0.214 NA
BRANCH   4   3
ATOM      1  C   UNL     1      11.217 -23.041 -47.336  0.00  0.00    +0.020 A 
ATOM      2  C   UNL     1      11.270 -23.074 -45.893  0.00  0.00    +0.013 A 
ATOM      3  C   UNL     1      10.835 -21.928 -45.105  0.00  0.00    +0.019 A 
ATOM     38  C   UNL     1      10.347 -20.754 -45.814  0.00  0.00    +0.120 A 
ATOM     39  N   UNL     1      10.309 -20.751 -47.204  0.00  0.00    -0.263 NA
ATOM     40  C   UNL     1      10.726 -21.847 -47.973  0.00  0.00    +0.111 A 
ENDBRANCH   4   3
ENDBRANCH  10   9
BRANCH  12  13
ATOM     13  N   UNL     1       7.182 -20.662 -36.820  0.00  0.00    -0.281 N 
ATOM     14  C   UNL     1       6.101 -20.074 -36.183  0.00  0.00    +0.248 C 
ATOM     30  O   UNL     1       5.981 -18.872 -35.993  0.00  0.00    -0.270 OA
ATOM     31  H   UNL     1       7.252 -21.676 -36.740  0.00  0.00    +0.155 HD
BRANCH  14  15
ATOM     15  C   UNL     1       5.002 -20.947 -35.671  0.00  0.00    +0.037 A 
ATOM     16  C   UNL     1       5.039 -22.401 -35.853  0.00  0.00    +0.013 A 
ATOM     17  C   UNL     1       3.957 -23.218 -35.364  0.00  0.00    +0.005 A 
ATOM     18  C   UNL     1       2.830 -22.584 -34.686  0.00  0.00    -0.033 A 
ATOM     28  C   UNL     1       2.822 -21.141 -34.513  0.00  0.00    +0.005 A 
ATOM     29  C   UNL     1       3.879 -20.336 -34.992  0.00  0.00    +0.013 A 
BRANCH  18  19
ATOM     19  C   UNL     1       1.623 -23.376 -34.150  0.00  0.00    +0.119 C 
BRANCH  19  20
ATOM     20  N   UNL     1       0.600 -23.819 -35.145  0.00  0.00    -0.302 NA
ATOM     21  C   UNL     1      -0.826 -23.664 -34.609  0.00  0.00    +0.066 C 
ATOM     22  C   UNL     1      -1.884 -24.111 -35.670  0.00  0.00    -0.064 C 
ATOM     23  N   UNL     1      -1.613 -25.560 -36.078  0.00  0.00    +0.379 N 
ATOM     24  C   UNL     1      -2.640 -26.002 -37.033  0.00  0.00    -0.096 C 
ATOM     25  H   UNL     1      -1.706 -26.192 -35.164  0.00  0.00    -0.082 HD
ATOM     26  C   UNL     1      -0.196 -25.723 -36.609  0.00  0.00    -0.064 C 
ATOM     27  C   UNL     1       0.846 -25.249 -35.558  0.00  0.00    +0.066 C 
ENDBRANCH  19  20
ENDBRANCH  18  19
ENDBRANCH  14  15
ENDBRANCH  12  13
TORSDOF 6
ENDMDL
