MODEL 1
REMARK VINA RESULT:      -8.3      0.000      0.000
REMARK  Name = C:\Users\Docking\Desktop\test protocol\1iep_ligandH.pdb
REMARK  8 active torsions:
REMARK  status: ('A' for Active; 'I' for Inactive)
REMARK    1  A    between atoms: _5  and  _11
REMARK    2  A    between atoms: _19  and  _21
REMARK    3  A    between atoms: _22  and  _66
REMARK    4  A    between atoms: _27  and  _30
REMARK    5  A    between atoms: _32  and  _33
REMARK    6  A    between atoms: _38  and  _43
REMARK    7  A    between atoms: _43  and  _46
REMARK    8  A    between atoms: _53  and  _55
REMARK                            x       y       z     vdW  Elec       q    Type
REMARK                         _______ _______ _______ _____ _____    ______ ____
ROOT
ATOM     10  C   UNL     1      11.938  25.893  18.878  0.00  0.00    +0.038 A 
ATOM     11  C   UNL     1      11.480  24.615  18.467  0.00  0.00    +0.047 A 
ATOM     12  C   UNL     1      10.568  23.841  19.295  0.00  0.00    +0.035 A 
ATOM     32  C   UNL     1      10.141  24.400  20.535  0.00  0.00    +0.024 A 
ATOM     33  C   UNL     1      10.598  25.697  20.968  0.00  0.00    +0.007 A 
ATOM     34  C   UNL     1      11.499  26.464  20.157  0.00  0.00    -0.029 A 
ATOM     35  C   UNL     1      11.961  27.846  20.675  0.00  0.00    +0.045 C 
ENDROOT
BRANCH  10   9
ATOM      4  C   UNL     1      16.289  27.599  17.784  0.00  0.00    +0.077 A 
ATOM      5  C   UNL     1      16.863  27.074  18.990  0.00  0.00    +0.048 A 
ATOM      6  C   UNL     1      16.003  26.378  19.868  0.00  0.00    +0.116 A 
ATOM      7  N   UNL     1      14.670  26.223  19.554  0.00  0.00    -0.223 NA
ATOM      8  C   UNL     1      14.148  26.744  18.384  0.00  0.00    +0.220 A 
ATOM      9  N   UNL     1      12.812  26.593  18.044  0.00  0.00    -0.283 N 
ATOM     36  H   UNL     1      12.465  26.998  17.175  0.00  0.00    +0.155 HD
ATOM     37  N   UNL     1      14.948  27.414  17.529  0.00  0.00    -0.214 NA
BRANCH   4   3
ATOM      1  C   UNL     1      18.702  30.149  16.059  0.00  0.00    +0.020 A 
ATOM      2  C   UNL     1      17.971  29.451  17.091  0.00  0.00    +0.013 A 
ATOM      3  C   UNL     1      17.069  28.356  16.755  0.00  0.00    +0.019 A 
ATOM     38  C   UNL     1      16.929  27.989  15.354  0.00  0.00    +0.120 A 
ATOM     39  N   UNL     1      17.645  28.681  14.381  0.00  0.00    -0.263 NA
ATOM     40  C   UNL     1      18.514  29.737  14.693  0.00  0.00    +0.111 A 
ENDBRANCH   4   3
ENDBRANCH  10   9
BRANCH  12  13
ATOM     13  N   UNL     1      10.076  22.535  18.934  0.00  0.00    -0.281 N 
ATOM     14  C   UNL     1       8.956  22.225  18.179  0.00  0.00    +0.248 C 
ATOM     30  O   UNL     1       8.083  23.026  17.878  0.00  0.00    -0.270 OA
ATOM     31  H   UNL     1      10.619  21.742  19.276  0.00  0.00    +0.155 HD
BRANCH  14  15
ATOM     15  C   UNL     1       8.772  20.821  17.702  0.00  0.00    +0.037 A 
ATOM     16  C   UNL     1       9.291  20.385  16.404  0.00  0.00    +0.013 A 
ATOM     17  C   UNL     1       9.085  19.029  15.961  0.00  0.00    +0.005 A 
ATOM     18  C   UNL     1       8.356  18.098  16.819  0.00  0.00    -0.033 A 
ATOM     28  C   UNL     1       7.856  18.556  18.105  0.00  0.00    +0.005 A 
ATOM     29  C   UNL     1       8.055  19.884  18.542  0.00  0.00    +0.013 A 
BRANCH  18  19
ATOM     19  C   UNL     1       8.071  16.638  16.418  0.00  0.00    +0.119 C 
BRANCH  19  20
ATOM     20  N   UNL     1       8.723  16.131  15.174  0.00  0.00    -0.302 NA
ATOM     21  C   UNL     1       7.870  15.074  14.468  0.00  0.00    +0.066 C 
ATOM     22  C   UNL     1       8.557  14.571  13.156  0.00  0.00    -0.064 C 
ATOM     23  N   UNL     1       9.941  14.014  13.491  0.00  0.00    +0.379 N 
ATOM     24  C   UNL     1      10.567  13.487  12.269  0.00  0.00    -0.096 C 
ATOM     25  H   UNL     1       9.802  13.161  14.195  0.00  0.00    -0.082 HD
ATOM     26  C   UNL     1      10.796  15.058  14.196  0.00  0.00    -0.064 C 
ATOM     27  C   UNL     1      10.091  15.573  15.482  0.00  0.00    +0.066 C 
ENDBRANCH  19  20
ENDBRANCH  18  19
ENDBRANCH  14  15
ENDBRANCH  12  13
TORSDOF 6
ENDMDL
MODEL 2
REMARK VINA RESULT:      -8.3      7.534     11.424
REMARK  Name = C:\Users\Docking\Desktop\test protocol\1iep_ligandH.pdb
REMARK  8 active torsions:
REMARK  status: ('A' for Active; 'I' for Inactive)
REMARK    1  A    between atoms: _5  and  _11
REMARK    2  A    between atoms: _19  and  _21
REMARK    3  A    between atoms: _22  and  _66
REMARK    4  A    between atoms: _27  and  _30
REMARK    5  A    between atoms: _32  and  _33
REMARK    6  A    between atoms: _38  and  _43
REMARK    7  A    between atoms: _43  and  _46
REMARK    8  A    between atoms: _53  and  _55
REMARK                            x       y       z     vdW  Elec       q    Type
REMARK                         _______ _______ _______ _____ _____    ______ ____
ROOT
ATOM     10  C   UNL     1       6.915  19.098  18.641  0.00  0.00    +0.038 A 
ATOM     11  C   UNL     1       5.651  19.135  19.283  0.00  0.00    +0.047 A 
ATOM     12  C   UNL     1       4.606  18.182  18.942  0.00  0.00    +0.035 A 
ATOM     32  C   UNL     1       4.885  17.202  17.945  0.00  0.00    +0.024 A 
ATOM     33  C   UNL     1       6.164  17.151  17.282  0.00  0.00    +0.007 A 
ATOM     34  C   UNL     1       7.197  18.090  17.612  0.00  0.00    -0.029 A 
ATOM     35  C   UNL     1       8.547  17.992  16.864  0.00  0.00    +0.045 C 
ENDROOT
BRANCH  10   9
ATOM      4  C   UNL     1       9.241  23.247  17.999  0.00  0.00    +0.077 A 
ATOM      5  C   UNL     1       8.486  23.556  16.819  0.00  0.00    +0.048 A 
ATOM      6  C   UNL     1       7.513  22.618  16.407  0.00  0.00    +0.116 A 
ATOM      7  N   UNL     1       7.318  21.460  17.129  0.00  0.00    -0.223 NA
ATOM      8  C   UNL     1       8.066  21.192  18.261  0.00  0.00    +0.220 A 
ATOM      9  N   UNL     1       7.882  20.038  19.007  0.00  0.00    -0.283 N 
ATOM     36  H   UNL     1       8.458  19.873  19.832  0.00  0.00    +0.155 HD
ATOM     37  N   UNL     1       9.002  22.071  18.674  0.00  0.00    -0.214 NA
BRANCH   4   3
ATOM      1  C   UNL     1      12.235  25.745  18.321  0.00  0.00    +0.020 A 
ATOM      2  C   UNL     1      11.228  24.896  17.727  0.00  0.00    +0.013 A 
ATOM      3  C   UNL     1      10.303  24.140  18.562  0.00  0.00    +0.019 A 
ATOM     38  C   UNL     1      10.424  24.268  20.007  0.00  0.00    +0.120 A 
ATOM     39  N   UNL     1      11.404  25.092  20.551  0.00  0.00    -0.263 NA
ATOM     40  C   UNL     1      12.301  25.822  19.757  0.00  0.00    +0.111 A 
ENDBRANCH   4   3
ENDBRANCH  10   9
BRANCH  12  13
ATOM     13  N   UNL     1       3.301  18.176  19.554  0.00  0.00    -0.281 N 
ATOM     14  C   UNL     1       2.775  17.239  20.429  0.00  0.00    +0.248 C 
ATOM     30  O   UNL     1       3.273  16.146  20.653  0.00  0.00    -0.270 OA
ATOM     31  H   UNL     1       2.690  18.956  19.313  0.00  0.00    +0.155 HD
BRANCH  14  15
ATOM     15  C   UNL     1       1.504  17.557  21.149  0.00  0.00    +0.037 A 
ATOM     16  C   UNL     1       0.544  18.522  20.606  0.00  0.00    +0.013 A 
ATOM     17  C   UNL     1      -0.666  18.823  21.329  0.00  0.00    +0.005 A 
ATOM     18  C   UNL     1      -0.924  18.157  22.603  0.00  0.00    -0.033 A 
ATOM     28  C   UNL     1       0.043  17.200  23.116  0.00  0.00    +0.005 A 
ATOM     29  C   UNL     1       1.231  16.903  22.411  0.00  0.00    +0.013 A 
BRANCH  18  19
ATOM     19  C   UNL     1      -2.179  18.433  23.452  0.00  0.00    +0.119 C 
BRANCH  19  20
ATOM     20  N   UNL     1      -1.980  19.127  24.760  0.00  0.00    -0.302 NA
ATOM     21  C   UNL     1      -3.166  18.918  25.707  0.00  0.00    +0.066 C 
ATOM     22  C   UNL     1      -2.931  19.632  27.078  0.00  0.00    -0.064 C 
ATOM     23  N   UNL     1      -2.685  21.122  26.838  0.00  0.00    +0.379 N 
ATOM     24  C   UNL     1      -2.522  21.806  28.130  0.00  0.00    -0.096 C 
ATOM     25  H   UNL     1      -3.594  21.540  26.346  0.00  0.00    -0.082 HD
ATOM     26  C   UNL     1      -1.510  21.339  25.896  0.00  0.00    -0.064 C 
ATOM     27  C   UNL     1      -1.740  20.601  24.547  0.00  0.00    +0.066 C 
ENDBRANCH  19  20
ENDBRANCH  18  19
ENDBRANCH  14  15
ENDBRANCH  12  13
TORSDOF 6
ENDMDL
MODEL 3
REMARK VINA RESULT:      -8.2      7.502     10.976
REMARK  Name = C:\Users\Docking\Desktop\test protocol\1iep_ligandH.pdb
REMARK  8 active torsions:
REMARK  status: ('A' for Active; 'I' for Inactive)
REMARK    1  A    between atoms: _5  and  _11
REMARK    2  A    between atoms: _19  and  _21
REMARK    3  A    between atoms: _22  and  _66
REMARK    4  A    between atoms: _27  and  _30
REMARK    5  A    between atoms: _32  and  _33
REMARK    6  A    between atoms: _38  and  _43
REMARK    7  A    between atoms: _43  and  _46
REMARK    8  A    between atoms: _53  and  _55
REMARK                            x       y       z     vdW  Elec       q    Type
REMARK                         _______ _______ _______ _____ _____    ______ ____
ROOT
ATOM     10  C   UNL     1       7.215  20.022  18.289  0.00  0.00    +0.038 A 
ATOM     11  C   UNL     1       5.960  20.316  18.881  0.00  0.00    +0.047 A 
ATOM     12  C   UNL     1       4.746  19.644  18.445  0.00  0.00    +0.035 A 
ATOM     32  C   UNL     1       4.847  18.675  17.404  0.00  0.00    +0.024 A 
ATOM     33  C   UNL     1       6.114  18.364  16.791  0.00  0.00    +0.007 A 
ATOM     34  C   UNL     1       7.314  19.026  17.216  0.00  0.00    -0.029 A 
ATOM     35  C   UNL     1       8.645  18.657  16.518  0.00  0.00    +0.045 C 
ENDROOT
BRANCH  10   9
ATOM      4  C   UNL     1      10.210  23.772  18.253  0.00  0.00    +0.077 A 
ATOM      5  C   UNL     1       9.468  24.429  17.215  0.00  0.00    +0.048 A 
ATOM      6  C   UNL     1       8.327  23.765  16.713  0.00  0.00    +0.116 A 
ATOM      7  N   UNL     1       7.963  22.536  17.219  0.00  0.00    -0.223 NA
ATOM      8  C   UNL     1       8.700  21.929  18.218  0.00  0.00    +0.220 A 
ATOM      9  N   UNL     1       8.348  20.697  18.747  0.00  0.00    -0.283 N 
ATOM     36  H   UNL     1       8.923  20.279  19.478  0.00  0.00    +0.155 HD
ATOM     37  N   UNL     1       9.796  22.542  18.714  0.00  0.00    -0.214 NA
BRANCH   4   3
ATOM      1  C   UNL     1      13.240  24.372  20.652  0.00  0.00    +0.020 A 
ATOM      2  C   UNL     1      12.055  23.778  20.079  0.00  0.00    +0.013 A 
ATOM      3  C   UNL     1      11.437  24.348  18.888  0.00  0.00    +0.019 A 
ATOM     38  C   UNL     1      12.049  25.529  18.297  0.00  0.00    +0.120 A 
ATOM     39  N   UNL     1      13.189  26.080  18.872  0.00  0.00    -0.263 NA
ATOM     40  C   UNL     1      13.792  25.541  20.019  0.00  0.00    +0.111 A 
ENDBRANCH   4   3
ENDBRANCH  10   9
BRANCH  12  13
ATOM     13  N   UNL     1       3.442  19.907  19.003  0.00  0.00    -0.281 N 
ATOM     14  C   UNL     1       2.326  20.414  18.358  0.00  0.00    +0.248 C 
ATOM     30  O   UNL     1       2.342  20.921  17.246  0.00  0.00    -0.270 OA
ATOM     31  H   UNL     1       3.329  19.694  19.994  0.00  0.00    +0.155 HD
BRANCH  14  15
ATOM     15  C   UNL     1       1.005  20.363  19.054  0.00  0.00    +0.037 A 
ATOM     16  C   UNL     1       0.354  19.086  19.357  0.00  0.00    +0.013 A 
ATOM     17  C   UNL     1      -0.929  19.066  20.014  0.00  0.00    +0.005 A 
ATOM     18  C   UNL     1      -1.569  20.329  20.374  0.00  0.00    -0.033 A 
ATOM     28  C   UNL     1      -0.898  21.582  20.067  0.00  0.00    +0.005 A 
ATOM     29  C   UNL     1       0.359  21.605  19.422  0.00  0.00    +0.013 A 
BRANCH  18  19
ATOM     19  C   UNL     1      -2.947  20.404  21.058  0.00  0.00    +0.119 C 
BRANCH  19  20
ATOM     20  N   UNL     1      -3.028  21.144  22.353  0.00  0.00    -0.302 NA
ATOM     21  C   UNL     1      -3.009  20.199  23.557  0.00  0.00    +0.066 C 
ATOM     22  C   UNL     1      -3.072  20.991  24.904  0.00  0.00    -0.064 C 
ATOM     23  N   UNL     1      -4.328  21.863  24.920  0.00  0.00    +0.379 N 
ATOM     24  C   UNL     1      -4.421  22.565  26.209  0.00  0.00    -0.096 C 
ATOM     25  H   UNL     1      -5.211  21.187  24.839  0.00  0.00    -0.082 HD
ATOM     26  C   UNL     1      -4.357  22.805  23.725  0.00  0.00    -0.064 C 
ATOM     27  C   UNL     1      -4.264  22.009  22.393  0.00  0.00    +0.066 C 
ENDBRANCH  19  20
ENDBRANCH  18  19
ENDBRANCH  14  15
ENDBRANCH  12  13
TORSDOF 6
ENDMDL
MODEL 4
REMARK VINA RESULT:      -8.1      7.580     10.933
REMARK  Name = C:\Users\Docking\Desktop\test protocol\1iep_ligandH.pdb
REMARK  8 active torsions:
REMARK  status: ('A' for Active; 'I' for Inactive)
REMARK    1  A    between atoms: _5  and  _11
REMARK    2  A    between atoms: _19  and  _21
REMARK    3  A    between atoms: _22  and  _66
REMARK    4  A    between atoms: _27  and  _30
REMARK    5  A    between atoms: _32  and  _33
REMARK    6  A    between atoms: _38  and  _43
REMARK    7  A    between atoms: _43  and  _46
REMARK    8  A    between atoms: _53  and  _55
REMARK                            x       y       z     vdW  Elec       q    Type
REMARK                         _______ _______ _______ _____ _____    ______ ____
ROOT
ATOM     10  C   UNL     1       7.059  19.389  18.340  0.00  0.00    +0.038 A 
ATOM     11  C   UNL     1       5.883  19.320  19.129  0.00  0.00    +0.047 A 
ATOM     12  C   UNL     1       4.746  18.512  18.716  0.00  0.00    +0.035 A 
ATOM     32  C   UNL     1       4.842  17.786  17.493  0.00  0.00    +0.024 A 
ATOM     33  C   UNL     1       6.030  17.846  16.678  0.00  0.00    +0.007 A 
ATOM     34  C   UNL     1       7.154  18.643  17.080  0.00  0.00    -0.029 A 
ATOM     35  C   UNL     1       8.399  18.675  16.163  0.00  0.00    +0.045 C 
ENDROOT
BRANCH  10   9
ATOM      4  C   UNL     1       9.694  23.399  18.214  0.00  0.00    +0.077 A 
ATOM      5  C   UNL     1       8.905  23.955  17.152  0.00  0.00    +0.048 A 
ATOM      6  C   UNL     1       7.834  23.173  16.662  0.00  0.00    +0.116 A 
ATOM      7  N   UNL     1       7.581  21.931  17.201  0.00  0.00    -0.223 NA
ATOM      8  C   UNL     1       8.363  21.424  18.223  0.00  0.00    +0.220 A 
ATOM      9  N   UNL     1       8.121  20.180  18.786  0.00  0.00    -0.283 N 
ATOM     36  H   UNL     1       8.725  19.838  19.533  0.00  0.00    +0.155 HD
ATOM     37  N   UNL     1       9.392  22.150  18.708  0.00  0.00    -0.214 NA
BRANCH   4   3
ATOM      1  C   UNL     1      12.728  24.271  20.523  0.00  0.00    +0.020 A 
ATOM      2  C   UNL     1      11.613  23.549  19.955  0.00  0.00    +0.013 A 
ATOM      3  C   UNL     1      10.857  24.104  18.840  0.00  0.00    +0.019 A 
ATOM     38  C   UNL     1      11.259  25.402  18.318  0.00  0.00    +0.120 A 
ATOM     39  N   UNL     1      12.336  26.075  18.886  0.00  0.00    -0.263 NA
ATOM     40  C   UNL     1      13.070  25.551  19.961  0.00  0.00    +0.111 A 
ENDBRANCH   4   3
ENDBRANCH  10   9
BRANCH  12  13
ATOM     13  N   UNL     1       3.522  18.410  19.471  0.00  0.00    -0.281 N 
ATOM     14  C   UNL     1       2.251  18.812  19.094  0.00  0.00    +0.248 C 
ATOM     30  O   UNL     1       2.009  19.520  18.128  0.00  0.00    -0.270 OA
ATOM     31  H   UNL     1       3.602  17.989  20.397  0.00  0.00    +0.155 HD
BRANCH  14  15
ATOM     15  C   UNL     1       1.082  18.377  19.916  0.00  0.00    +0.037 A 
ATOM     16  C   UNL     1       1.261  17.561  21.120  0.00  0.00    +0.013 A 
ATOM     17  C   UNL     1       0.115  17.140  21.886  0.00  0.00    +0.005 A 
ATOM     18  C   UNL     1      -1.222  17.537  21.450  0.00  0.00    -0.033 A 
ATOM     28  C   UNL     1      -1.371  18.351  20.255  0.00  0.00    +0.005 A 
ATOM     29  C   UNL     1      -0.250  18.764  19.501  0.00  0.00    +0.013 A 
BRANCH  18  19
ATOM     19  C   UNL     1      -2.504  17.116  22.194  0.00  0.00    +0.119 C 
BRANCH  19  20
ATOM     20  N   UNL     1      -2.386  16.843  23.658  0.00  0.00    -0.302 NA
ATOM     21  C   UNL     1      -3.528  15.962  24.171  0.00  0.00    +0.066 C 
ATOM     22  C   UNL     1      -3.378  15.668  25.699  0.00  0.00    -0.064 C 
ATOM     23  N   UNL     1      -3.326  16.989  26.468  0.00  0.00    +0.379 N 
ATOM     24  C   UNL     1      -3.242  16.716  27.910  0.00  0.00    -0.096 C 
ATOM     25  H   UNL     1      -4.284  17.527  26.280  0.00  0.00    -0.082 HD
ATOM     26  C   UNL     1      -2.194  17.873  25.961  0.00  0.00    -0.064 C 
ATOM     27  C   UNL     1      -2.337  18.135  24.436  0.00  0.00    +0.066 C 
ENDBRANCH  19  20
ENDBRANCH  18  19
ENDBRANCH  14  15
ENDBRANCH  12  13
TORSDOF 6
ENDMDL
MODEL 5
REMARK VINA RESULT:      -8.0      2.828     12.568
REMARK  Name = C:\Users\Docking\Desktop\test protocol\1iep_ligandH.pdb
REMARK  8 active torsions:
REMARK  status: ('A' for Active; 'I' for Inactive)
REMARK    1  A    between atoms: _5  and  _11
REMARK    2  A    between atoms: _19  and  _21
REMARK    3  A    between atoms: _22  and  _66
REMARK    4  A    between atoms: _27  and  _30
REMARK    5  A    between atoms: _32  and  _33
REMARK    6  A    between atoms: _38  and  _43
REMARK    7  A    between atoms: _43  and  _46
REMARK    8  A    between atoms: _53  and  _55
REMARK                            x       y       z     vdW  Elec       q    Type
REMARK                         _______ _______ _______ _____ _____    ______ ____
ROOT
ATOM     10  C   UNL     1      12.102  24.808  19.866  0.00  0.00    +0.038 A 
ATOM     11  C   UNL     1      13.169  25.197  19.017  0.00  0.00    +0.047 A 
ATOM     12  C   UNL     1      13.811  26.495  19.162  0.00  0.00    +0.035 A 
ATOM     32  C   UNL     1      13.342  27.370  20.185  0.00  0.00    +0.024 A 
ATOM     33  C   UNL     1      12.258  26.991  21.056  0.00  0.00    +0.007 A 
ATOM     34  C   UNL     1      11.619  25.713  20.916  0.00  0.00    -0.029 A 
ATOM     35  C   UNL     1      10.457  25.362  21.874  0.00  0.00    +0.045 C 
ENDROOT
BRANCH  10   9
ATOM      4  C   UNL     1       8.977  21.860  17.726  0.00  0.00    +0.077 A 
ATOM      5  C   UNL     1       8.435  22.920  16.926  0.00  0.00    +0.048 A 
ATOM      6  C   UNL     1       8.983  24.210  17.100  0.00  0.00    +0.116 A 
ATOM      7  N   UNL     1       9.998  24.414  18.010  0.00  0.00    -0.223 NA
ATOM      8  C   UNL     1      10.497  23.370  18.767  0.00  0.00    +0.220 A 
ATOM      9  N   UNL     1      11.522  23.551  19.682  0.00  0.00    -0.283 N 
ATOM     36  H   UNL     1      11.857  22.757  20.227  0.00  0.00    +0.155 HD
ATOM     37  N   UNL     1       9.989  22.129  18.621  0.00  0.00    -0.214 NA
BRANCH   4   3
ATOM      1  C   UNL     1       8.483  18.142  16.617  0.00  0.00    +0.020 A 
ATOM      2  C   UNL     1       8.970  19.501  16.642  0.00  0.00    +0.013 A 
ATOM      3  C   UNL     1       8.504  20.441  17.655  0.00  0.00    +0.019 A 
ATOM     38  C   UNL     1       7.538  19.969  18.635  0.00  0.00    +0.120 A 
ATOM     39  N   UNL     1       7.085  18.654  18.585  0.00  0.00    -0.263 NA
ATOM     40  C   UNL     1       7.525  17.742  17.615  0.00  0.00    +0.111 A 
ENDBRANCH   4   3
ENDBRANCH  10   9
BRANCH  12  13
ATOM     13  N   UNL     1      14.894  26.948  18.324  0.00  0.00    -0.281 N 
ATOM     14  C   UNL     1      14.821  27.444  17.033  0.00  0.00    +0.248 C 
ATOM     30  O   UNL     1      13.831  27.373  16.320  0.00  0.00    -0.270 OA
ATOM     31  H   UNL     1      15.827  26.897  18.733  0.00  0.00    +0.155 HD
BRANCH  14  15
ATOM     15  C   UNL     1      16.027  28.101  16.443  0.00  0.00    +0.037 A 
ATOM     16  C   UNL     1      16.869  28.998  17.238  0.00  0.00    +0.013 A 
ATOM     17  C   UNL     1      18.017  29.632  16.639  0.00  0.00    +0.005 A 
ATOM     18  C   UNL     1      18.330  29.370  15.237  0.00  0.00    -0.033 A 
ATOM     28  C   UNL     1      17.480  28.471  14.472  0.00  0.00    +0.005 A 
ATOM     29  C   UNL     1      16.354  27.849  15.056  0.00  0.00    +0.013 A 
BRANCH  18  19
ATOM     19  C   UNL     1      19.522  30.019  14.510  0.00  0.00    +0.119 C 
BRANCH  19  20
ATOM     20  N   UNL     1      19.316  30.431  13.089  0.00  0.00    -0.302 NA
ATOM     21  C   UNL     1      20.474  29.991  12.189  0.00  0.00    +0.066 C 
ATOM     22  C   UNL     1      20.231  30.410  10.703  0.00  0.00    -0.064 C 
ATOM     23  N   UNL     1      20.032  31.925  10.629  0.00  0.00    +0.379 N 
ATOM     24  C   UNL     1      19.861  32.330   9.226  0.00  0.00    -0.096 C 
ATOM     25  H   UNL     1      20.963  32.407  11.009  0.00  0.00    -0.082 HD
ATOM     26  C   UNL     1      18.884  32.371  11.523  0.00  0.00    -0.064 C 
ATOM     27  C   UNL     1      19.121  31.924  12.993  0.00  0.00    +0.066 C 
ENDBRANCH  19  20
ENDBRANCH  18  19
ENDBRANCH  14  15
ENDBRANCH  12  13
TORSDOF 6
ENDMDL
