MODEL 1
REMARK VINA RESULT:      -8.5      0.000      0.000
REMARK  Name = C:\Users\Docking\Desktop\test protocol\1iep_ligandH.pdb
REMARK  8 active torsions:
REMARK  status: ('A' for Active; 'I' for Inactive)
REMARK    1  A    between atoms: _5  and  _11
REMARK    2  A    between atoms: _19  and  _21
REMARK    3  A    between atoms: _22  and  _66
REMARK    4  A    between atoms: _27  and  _30
REMARK    5  A    between atoms: _32  and  _33
REMARK    6  A    between atoms: _38  and  _43
REMARK    7  A    between atoms: _43  and  _46
REMARK    8  A    between atoms: _53  and  _55
REMARK                            x       y       z     vdW  Elec       q    Type
REMARK                         _______ _______ _______ _____ _____    ______ ____
ROOT
ATOM     10  C   UNL     1      36.294  61.767  16.228  0.00  0.00    +0.038 A 
ATOM     11  C   UNL     1      37.520  62.381  15.868  0.00  0.00    +0.047 A 
ATOM     12  C   UNL     1      37.559  63.743  15.358  0.00  0.00    +0.035 A 
ATOM     32  C   UNL     1      36.329  64.452  15.232  0.00  0.00    +0.024 A 
ATOM     33  C   UNL     1      35.073  63.843  15.593  0.00  0.00    +0.007 A 
ATOM     34  C   UNL     1      35.029  62.499  16.093  0.00  0.00    -0.029 A 
ATOM     35  C   UNL     1      33.653  61.895  16.458  0.00  0.00    +0.045 C 
ENDROOT
BRANCH  10   9
ATOM      4  C   UNL     1      36.771  57.032  15.604  0.00  0.00    +0.077 A 
ATOM      5  C   UNL     1      36.968  57.179  14.190  0.00  0.00    +0.048 A 
ATOM      6  C   UNL     1      36.933  58.489  13.663  0.00  0.00    +0.116 A 
ATOM      7  N   UNL     1      36.715  59.565  14.496  0.00  0.00    -0.223 NA
ATOM      8  C   UNL     1      36.527  59.389  15.854  0.00  0.00    +0.220 A 
ATOM      9  N   UNL     1      36.315  60.457  16.712  0.00  0.00    -0.283 N 
ATOM     36  H   UNL     1      36.173  60.284  17.707  0.00  0.00    +0.155 HD
ATOM     37  N   UNL     1      36.555  58.147  16.382  0.00  0.00    -0.214 NA
BRANCH   4   3
ATOM      1  C   UNL     1      36.287  53.243  16.446  0.00  0.00    +0.020 A 
ATOM      2  C   UNL     1      36.249  54.492  15.721  0.00  0.00    +0.013 A 
ATOM      3  C   UNL     1      36.784  55.713  16.311  0.00  0.00    +0.019 A 
ATOM     38  C   UNL     1      37.356  55.634  17.647  0.00  0.00    +0.120 A 
ATOM     39  N   UNL     1      37.377  54.418  18.322  0.00  0.00    -0.263 NA
ATOM     40  C   UNL     1      36.863  53.237  17.765  0.00  0.00    +0.111 A 
ENDBRANCH   4   3
ENDBRANCH  10   9
BRANCH  12  13
ATOM     13  N   UNL     1      38.774  64.415  14.969  0.00  0.00    -0.281 N 
ATOM     14  C   UNL     1      39.722  65.005  15.789  0.00  0.00    +0.248 C 
ATOM     30  O   UNL     1      39.562  65.230  16.979  0.00  0.00    -0.270 OA
ATOM     31  H   UNL     1      38.957  64.463  13.966  0.00  0.00    +0.155 HD
BRANCH  14  15
ATOM     15  C   UNL     1      41.032  65.415  15.199  0.00  0.00    +0.037 A 
ATOM     16  C   UNL     1      41.391  66.828  15.054  0.00  0.00    +0.013 A 
ATOM     17  C   UNL     1      42.655  67.197  14.466  0.00  0.00    +0.005 A 
ATOM     18  C   UNL     1      43.570  66.149  14.019  0.00  0.00    -0.033 A 
ATOM     28  C   UNL     1      43.191  64.755  14.180  0.00  0.00    +0.005 A 
ATOM     29  C   UNL     1      41.953  64.390  14.755  0.00  0.00    +0.013 A 
BRANCH  18  19
ATOM     19  C   UNL     1      44.929  66.451  13.361  0.00  0.00    +0.119 C 
BRANCH  19  20
ATOM     20  N   UNL     1      45.612  65.326  12.656  0.00  0.00    -0.302 NA
ATOM     21  C   UNL     1      47.137  65.454  12.711  0.00  0.00    +0.066 C 
ATOM     22  C   UNL     1      47.836  64.257  11.988  0.00  0.00    -0.064 C 
ATOM     23  N   UNL     1      47.350  64.187  10.539  0.00  0.00    +0.379 N 
ATOM     24  C   UNL     1      48.049  63.098   9.840  0.00  0.00    -0.096 C 
ATOM     25  H   UNL     1      47.632  65.144  10.042  0.00  0.00    -0.082 HD
ATOM     26  C   UNL     1      45.835  64.062  10.475  0.00  0.00    -0.064 C 
ATOM     27  C   UNL     1      45.151  65.241  11.222  0.00  0.00    +0.066 C 
ENDBRANCH  19  20
ENDBRANCH  18  19
ENDBRANCH  14  15
ENDBRANCH  12  13
TORSDOF 6
ENDMDL
MODEL 2
REMARK VINA RESULT:      -8.4     21.462     25.510
REMARK  Name = C:\Users\Docking\Desktop\test protocol\1iep_ligandH.pdb
REMARK  8 active torsions:
REMARK  status: ('A' for Active; 'I' for Inactive)
REMARK    1  A    between atoms: _5  and  _11
REMARK    2  A    between atoms: _19  and  _21
REMARK    3  A    between atoms: _22  and  _66
REMARK    4  A    between atoms: _27  and  _30
REMARK    5  A    between atoms: _32  and  _33
REMARK    6  A    between atoms: _38  and  _43
REMARK    7  A    between atoms: _43  and  _46
REMARK    8  A    between atoms: _53  and  _55
REMARK                            x       y       z     vdW  Elec       q    Type
REMARK                         _______ _______ _______ _____ _____    ______ ____
ROOT
ATOM     10  C   UNL     1      30.018  64.846  32.690  0.00  0.00    +0.038 A 
ATOM     11  C   UNL     1      29.535  66.103  33.137  0.00  0.00    +0.047 A 
ATOM     12  C   UNL     1      28.179  66.537  32.841  0.00  0.00    +0.035 A 
ATOM     32  C   UNL     1      27.339  65.663  32.090  0.00  0.00    +0.024 A 
ATOM     33  C   UNL     1      27.813  64.383  31.628  0.00  0.00    +0.007 A 
ATOM     34  C   UNL     1      29.152  63.951  31.914  0.00  0.00    -0.029 A 
ATOM     35  C   UNL     1      29.609  62.571  31.388  0.00  0.00    +0.045 C 
ENDROOT
BRANCH  10   9
ATOM      4  C   UNL     1      33.513  63.908  35.843  0.00  0.00    +0.077 A 
ATOM      5  C   UNL     1      32.663  64.197  36.961  0.00  0.00    +0.048 A 
ATOM      6  C   UNL     1      31.335  64.590  36.682  0.00  0.00    +0.116 A 
ATOM      7  N   UNL     1      30.901  64.684  35.378  0.00  0.00    -0.223 NA
ATOM      8  C   UNL     1      31.747  64.400  34.322  0.00  0.00    +0.220 A 
ATOM      9  N   UNL     1      31.329  64.481  33.003  0.00  0.00    -0.283 N 
ATOM     36  H   UNL     1      31.986  64.270  32.252  0.00  0.00    +0.155 HD
ATOM     37  N   UNL     1      33.020  64.024  34.562  0.00  0.00    -0.214 NA
BRANCH   4   3
ATOM      1  C   UNL     1      37.218  62.958  35.021  0.00  0.00    +0.020 A 
ATOM      2  C   UNL     1      35.848  63.379  34.839  0.00  0.00    +0.013 A 
ATOM      3  C   UNL     1      34.941  63.477  35.975  0.00  0.00    +0.019 A 
ATOM     38  C   UNL     1      35.456  63.139  37.294  0.00  0.00    +0.120 A 
ATOM     39  N   UNL     1      36.779  62.735  37.439  0.00  0.00    -0.263 NA
ATOM     40  C   UNL     1      37.661  62.636  36.352  0.00  0.00    +0.111 A 
ENDBRANCH   4   3
ENDBRANCH  10   9
BRANCH  12  13
ATOM     13  N   UNL     1      27.636  67.805  33.261  0.00  0.00    -0.281 N 
ATOM     14  C   UNL     1      27.139  68.148  34.508  0.00  0.00    +0.248 C 
ATOM     30  O   UNL     1      26.887  67.347  35.395  0.00  0.00    -0.270 OA
ATOM     31  H   UNL     1      27.617  68.539  32.553  0.00  0.00    +0.155 HD
BRANCH  14  15
ATOM     15  C   UNL     1      26.869  69.587  34.806  0.00  0.00    +0.037 A 
ATOM     16  C   UNL     1      25.707  70.276  34.238  0.00  0.00    +0.013 A 
ATOM     17  C   UNL     1      25.479  71.669  34.529  0.00  0.00    +0.005 A 
ATOM     18  C   UNL     1      26.415  72.383  35.394  0.00  0.00    -0.033 A 
ATOM     28  C   UNL     1      27.557  71.674  35.948  0.00  0.00    +0.005 A 
ATOM     29  C   UNL     1      27.784  70.308  35.665  0.00  0.00    +0.013 A 
BRANCH  18  19
ATOM     19  C   UNL     1      26.262  73.876  35.741  0.00  0.00    +0.119 C 
BRANCH  19  20
ATOM     20  N   UNL     1      25.993  74.222  37.168  0.00  0.00    -0.302 NA
ATOM     21  C   UNL     1      24.928  73.313  37.789  0.00  0.00    +0.066 C 
ATOM     22  C   UNL     1      24.676  73.675  39.289  0.00  0.00    -0.064 C 
ATOM     23  N   UNL     1      24.262  75.144  39.394  0.00  0.00    +0.379 N 
ATOM     24  C   UNL     1      23.968  75.472  40.796  0.00  0.00    -0.096 C 
ATOM     25  H   UNL     1      23.320  75.272  38.811  0.00  0.00    -0.082 HD
ATOM     26  C   UNL     1      25.314  76.054  38.776  0.00  0.00    -0.064 C 
ATOM     27  C   UNL     1      25.579  75.668  37.294  0.00  0.00    +0.066 C 
ENDBRANCH  19  20
ENDBRANCH  18  19
ENDBRANCH  14  15
ENDBRANCH  12  13
TORSDOF 6
ENDMDL
MODEL 3
REMARK VINA RESULT:      -8.3     14.050     16.717
REMARK  Name = C:\Users\Docking\Desktop\test protocol\1iep_ligandH.pdb
REMARK  8 active torsions:
REMARK  status: ('A' for Active; 'I' for Inactive)
REMARK    1  A    between atoms: _5  and  _11
REMARK    2  A    between atoms: _19  and  _21
REMARK    3  A    between atoms: _22  and  _66
REMARK    4  A    between atoms: _27  and  _30
REMARK    5  A    between atoms: _32  and  _33
REMARK    6  A    between atoms: _38  and  _43
REMARK    7  A    between atoms: _43  and  _46
REMARK    8  A    between atoms: _53  and  _55
REMARK                            x       y       z     vdW  Elec       q    Type
REMARK                         _______ _______ _______ _____ _____    ______ ____
ROOT
ATOM     10  C   UNL     1      44.347  66.696  27.402  0.00  0.00    +0.038 A 
ATOM     11  C   UNL     1      43.337  67.552  27.908  0.00  0.00    +0.047 A 
ATOM     12  C   UNL     1      43.329  68.973  27.597  0.00  0.00    +0.035 A 
ATOM     32  C   UNL     1      44.366  69.488  26.765  0.00  0.00    +0.024 A 
ATOM     33  C   UNL     1      45.401  68.632  26.242  0.00  0.00    +0.007 A 
ATOM     34  C   UNL     1      45.415  67.230  26.547  0.00  0.00    -0.029 A 
ATOM     35  C   UNL     1      46.554  66.360  25.965  0.00  0.00    +0.045 C 
ENDROOT
BRANCH  10   9
ATOM      4  C   UNL     1      42.380  62.327  27.112  0.00  0.00    +0.077 A 
ATOM      5  C   UNL     1      41.331  62.792  26.251  0.00  0.00    +0.048 A 
ATOM      6  C   UNL     1      41.329  64.164  25.913  0.00  0.00    +0.116 A 
ATOM      7  N   UNL     1      42.309  64.999  26.404  0.00  0.00    -0.223 NA
ATOM      8  C   UNL     1      43.306  64.519  27.233  0.00  0.00    +0.220 A 
ATOM      9  N   UNL     1      44.306  65.339  27.732  0.00  0.00    -0.283 N 
ATOM     36  H   UNL     1      45.019  64.948  28.347  0.00  0.00    +0.155 HD
ATOM     37  N   UNL     1      43.329  63.213  27.572  0.00  0.00    -0.214 NA
BRANCH   4   3
ATOM      1  C   UNL     1      42.269  58.418  27.210  0.00  0.00    +0.020 A 
ATOM      2  C   UNL     1      42.112  59.773  26.733  0.00  0.00    +0.013 A 
ATOM      3  C   UNL     1      42.519  60.904  27.557  0.00  0.00    +0.019 A 
ATOM     38  C   UNL     1      43.086  60.628  28.868  0.00  0.00    +0.120 A 
ATOM     39  N   UNL     1      43.224  59.313  29.301  0.00  0.00    -0.263 NA
ATOM     40  C   UNL     1      42.834  58.216  28.518  0.00  0.00    +0.111 A 
ENDBRANCH   4   3
ENDBRANCH  10   9
BRANCH  12  13
ATOM     13  N   UNL     1      42.334  69.893  28.089  0.00  0.00    -0.281 N 
ATOM     14  C   UNL     1      42.529  71.022  28.867  0.00  0.00    +0.248 C 
ATOM     30  O   UNL     1      43.573  71.295  29.440  0.00  0.00    -0.270 OA
ATOM     31  H   UNL     1      41.368  69.686  27.832  0.00  0.00    +0.155 HD
BRANCH  14  15
ATOM     15  C   UNL     1      41.395  71.979  29.047  0.00  0.00    +0.037 A 
ATOM     16  C   UNL     1      40.021  71.603  28.705  0.00  0.00    +0.013 A 
ATOM     17  C   UNL     1      38.948  72.551  28.872  0.00  0.00    +0.005 A 
ATOM     18  C   UNL     1      39.246  73.886  29.386  0.00  0.00    -0.033 A 
ATOM     28  C   UNL     1      40.617  74.231  29.722  0.00  0.00    +0.005 A 
ATOM     29  C   UNL     1      41.671  73.305  29.559  0.00  0.00    +0.013 A 
BRANCH  18  19
ATOM     19  C   UNL     1      38.167  74.968  29.576  0.00  0.00    +0.119 C 
BRANCH  19  20
ATOM     20  N   UNL     1      36.997  74.938  28.649  0.00  0.00    -0.302 NA
ATOM     21  C   UNL     1      37.381  75.353  27.226  0.00  0.00    +0.066 C 
ATOM     22  C   UNL     1      36.150  75.294  26.264  0.00  0.00    -0.064 C 
ATOM     23  N   UNL     1      35.038  76.192  26.808  0.00  0.00    +0.379 N 
ATOM     24  C   UNL     1      33.901  76.185  25.876  0.00  0.00    -0.096 C 
ATOM     25  H   UNL     1      35.434  77.234  26.849  0.00  0.00    -0.082 HD
ATOM     26  C   UNL     1      34.651  75.789  28.224  0.00  0.00    -0.064 C 
ATOM     27  C   UNL     1      35.888  75.822  29.165  0.00  0.00    +0.066 C 
ENDBRANCH  19  20
ENDBRANCH  18  19
ENDBRANCH  14  15
ENDBRANCH  12  13
TORSDOF 6
ENDMDL
MODEL 4
REMARK VINA RESULT:      -8.3     12.469     16.286
REMARK  Name = C:\Users\Docking\Desktop\test protocol\1iep_ligandH.pdb
REMARK  8 active torsions:
REMARK  status: ('A' for Active; 'I' for Inactive)
REMARK    1  A    between atoms: _5  and  _11
REMARK    2  A    between atoms: _19  and  _21
REMARK    3  A    between atoms: _22  and  _66
REMARK    4  A    between atoms: _27  and  _30
REMARK    5  A    between atoms: _32  and  _33
REMARK    6  A    between atoms: _38  and  _43
REMARK    7  A    between atoms: _43  and  _46
REMARK    8  A    between atoms: _53  and  _55
REMARK                            x       y       z     vdW  Elec       q    Type
REMARK                         _______ _______ _______ _____ _____    ______ ____
ROOT
ATOM     10  C   UNL     1      42.643  67.227   4.132  0.00  0.00    +0.038 A 
ATOM     11  C   UNL     1      43.929  67.217   3.534  0.00  0.00    +0.047 A 
ATOM     12  C   UNL     1      44.771  66.031   3.577  0.00  0.00    +0.035 A 
ATOM     32  C   UNL     1      44.269  64.871   4.236  0.00  0.00    +0.024 A 
ATOM     33  C   UNL     1      42.965  64.863   4.850  0.00  0.00    +0.007 A 
ATOM     34  C   UNL     1      42.131  66.031   4.813  0.00  0.00    -0.029 A 
ATOM     35  C   UNL     1      40.744  65.968   5.494  0.00  0.00    +0.045 C 
ENDROOT
BRANCH  10   9
ATOM      4  C   UNL     1      39.509  70.102   1.909  0.00  0.00    +0.077 A 
ATOM      5  C   UNL     1      39.408  69.220   0.782  0.00  0.00    +0.048 A 
ATOM      6  C   UNL     1      40.185  68.040   0.811  0.00  0.00    +0.116 A 
ATOM      7  N   UNL     1      40.998  67.772   1.891  0.00  0.00    -0.223 NA
ATOM      8  C   UNL     1      41.073  68.645   2.960  0.00  0.00    +0.220 A 
ATOM      9  N   UNL     1      41.878  68.393   4.060  0.00  0.00    -0.283 N 
ATOM     36  H   UNL     1      41.911  69.065   4.826  0.00  0.00    +0.155 HD
ATOM     37  N   UNL     1      40.342  69.780   2.956  0.00  0.00    -0.214 NA
BRANCH   4   3
ATOM      1  C   UNL     1      37.815  73.528   1.076  0.00  0.00    +0.020 A 
ATOM      2  C   UNL     1      38.559  72.301   0.909  0.00  0.00    +0.013 A 
ATOM      3  C   UNL     1      38.748  71.386   2.027  0.00  0.00    +0.019 A 
ATOM     38  C   UNL     1      38.167  71.745   3.312  0.00  0.00    +0.120 A 
ATOM     39  N   UNL     1      37.457  72.934   3.444  0.00  0.00    -0.263 NA
ATOM     40  C   UNL     1      37.270  73.823   2.375  0.00  0.00    +0.111 A 
ENDBRANCH   4   3
ENDBRANCH  10   9
BRANCH  12  13
ATOM     13  N   UNL     1      46.088  65.965   2.995  0.00  0.00    -0.281 N 
ATOM     14  C   UNL     1      47.248  66.576   3.442  0.00  0.00    +0.248 C 
ATOM     30  O   UNL     1      47.285  67.449   4.296  0.00  0.00    -0.270 OA
ATOM     31  H   UNL     1      46.176  65.400   2.151  0.00  0.00    +0.155 HD
BRANCH  14  15
ATOM     15  C   UNL     1      48.556  66.167   2.845  0.00  0.00    +0.037 A 
ATOM     16  C   UNL     1      49.227  66.999   1.844  0.00  0.00    +0.013 A 
ATOM     17  C   UNL     1      50.479  66.573   1.270  0.00  0.00    +0.005 A 
ATOM     18  C   UNL     1      51.069  65.307   1.699  0.00  0.00    -0.033 A 
ATOM     28  C   UNL     1      50.384  64.503   2.698  0.00  0.00    +0.005 A 
ATOM     29  C   UNL     1      49.157  64.917   3.261  0.00  0.00    +0.013 A 
BRANCH  18  19
ATOM     19  C   UNL     1      52.391  64.764   1.126  0.00  0.00    +0.119 C 
BRANCH  19  20
ATOM     20  N   UNL     1      53.637  65.038   1.902  0.00  0.00    -0.302 NA
ATOM     21  C   UNL     1      53.693  64.233   3.203  0.00  0.00    +0.066 C 
ATOM     22  C   UNL     1      55.013  64.515   3.992  0.00  0.00    -0.064 C 
ATOM     23  N   UNL     1      55.123  66.014   4.277  0.00  0.00    +0.379 N 
ATOM     24  C   UNL     1      56.334  66.276   5.069  0.00  0.00    -0.096 C 
ATOM     25  H   UNL     1      54.243  66.305   4.898  0.00  0.00    -0.082 HD
ATOM     26  C   UNL     1      55.065  66.823   2.989  0.00  0.00    -0.064 C 
ATOM     27  C   UNL     1      53.763  66.512   2.199  0.00  0.00    +0.066 C 
ENDBRANCH  19  20
ENDBRANCH  18  19
ENDBRANCH  14  15
ENDBRANCH  12  13
TORSDOF 6
ENDMDL
MODEL 5
REMARK VINA RESULT:      -8.1      4.895      7.256
REMARK  Name = C:\Users\Docking\Desktop\test protocol\1iep_ligandH.pdb
REMARK  8 active torsions:
REMARK  status: ('A' for Active; 'I' for Inactive)
REMARK    1  A    between atoms: _5  and  _11
REMARK    2  A    between atoms: _19  and  _21
REMARK    3  A    between atoms: _22  and  _66
REMARK    4  A    between atoms: _27  and  _30
REMARK    5  A    between atoms: _32  and  _33
REMARK    6  A    between atoms: _38  and  _43
REMARK    7  A    between atoms: _43  and  _46
REMARK    8  A    between atoms: _53  and  _55
REMARK                            x       y       z     vdW  Elec       q    Type
REMARK                         _______ _______ _______ _____ _____    ______ ____
ROOT
ATOM     10  C   UNL     1      39.090  55.156  16.207  0.00  0.00    +0.038 A 
ATOM     11  C   UNL     1      39.312  56.552  16.090  0.00  0.00    +0.047 A 
ATOM     12  C   UNL     1      38.202  57.493  16.092  0.00  0.00    +0.035 A 
ATOM     32  C   UNL     1      36.879  56.977  16.217  0.00  0.00    +0.024 A 
ATOM     33  C   UNL     1      36.636  55.560  16.335  0.00  0.00    +0.007 A 
ATOM     34  C   UNL     1      37.726  54.628  16.332  0.00  0.00    -0.029 A 
ATOM     35  C   UNL     1      37.406  53.120  16.455  0.00  0.00    +0.045 C 
ENDROOT
BRANCH  10   9
ATOM      4  C   UNL     1      42.366  52.493  13.923  0.00  0.00    +0.077 A 
ATOM      5  C   UNL     1      41.819  52.817  12.637  0.00  0.00    +0.048 A 
ATOM      6  C   UNL     1      40.690  53.666  12.607  0.00  0.00    +0.116 A 
ATOM      7  N   UNL     1      40.157  54.150  13.782  0.00  0.00    -0.223 NA
ATOM      8  C   UNL     1      40.708  53.817  15.006  0.00  0.00    +0.220 A 
ATOM      9  N   UNL     1      40.192  54.298  16.199  0.00  0.00    -0.283 N 
ATOM     36  H   UNL     1      40.623  54.023  17.082  0.00  0.00    +0.155 HD
ATOM     37  N   UNL     1      41.785  53.006  15.061  0.00  0.00    -0.214 NA
BRANCH   4   3
ATOM      1  C   UNL     1      46.044  51.223  14.326  0.00  0.00    +0.020 A 
ATOM      2  C   UNL     1      44.926  52.117  14.132  0.00  0.00    +0.013 A 
ATOM      3  C   UNL     1      43.559  51.610  14.119  0.00  0.00    +0.019 A 
ATOM     38  C   UNL     1      43.357  50.182  14.306  0.00  0.00    +0.120 A 
ATOM     39  N   UNL     1      44.453  49.344  14.488  0.00  0.00    -0.263 NA
ATOM     40  C   UNL     1      45.772  49.820  14.501  0.00  0.00    +0.111 A 
ENDBRANCH   4   3
ENDBRANCH  10   9
BRANCH  12  13
ATOM     13  N   UNL     1      38.365  58.920  15.969  0.00  0.00    -0.281 N 
ATOM     14  C   UNL     1      38.652  59.834  16.970  0.00  0.00    +0.248 C 
ATOM     30  O   UNL     1      38.601  59.588  18.166  0.00  0.00    -0.270 OA
ATOM     31  H   UNL     1      38.256  59.303  15.030  0.00  0.00    +0.155 HD
BRANCH  14  15
ATOM     15  C   UNL     1      39.038  61.226  16.587  0.00  0.00    +0.037 A 
ATOM     16  C   UNL     1      38.429  62.389  17.238  0.00  0.00    +0.013 A 
ATOM     17  C   UNL     1      38.806  63.722  16.838  0.00  0.00    +0.005 A 
ATOM     18  C   UNL     1      39.800  63.898  15.782  0.00  0.00    -0.033 A 
ATOM     28  C   UNL     1      40.392  62.727  15.157  0.00  0.00    +0.005 A 
ATOM     29  C   UNL     1      40.024  61.419  15.545  0.00  0.00    +0.013 A 
BRANCH  18  19
ATOM     19  C   UNL     1      40.247  65.283  15.276  0.00  0.00    +0.119 C 
BRANCH  19  20
ATOM     20  N   UNL     1      40.154  65.538  13.808  0.00  0.00    -0.302 NA
ATOM     21  C   UNL     1      40.764  66.887  13.419  0.00  0.00    +0.066 C 
ATOM     22  C   UNL     1      40.679  67.127  11.877  0.00  0.00    -0.064 C 
ATOM     23  N   UNL     1      39.218  67.045  11.431  0.00  0.00    +0.379 N 
ATOM     24  C   UNL     1      39.128  67.328   9.991  0.00  0.00    -0.096 C 
ATOM     25  H   UNL     1      38.655  67.843  11.969  0.00  0.00    -0.082 HD
ATOM     26  C   UNL     1      38.602  65.707  11.816  0.00  0.00    -0.064 C 
ATOM     27  C   UNL     1      38.719  65.465  13.347  0.00  0.00    +0.066 C 
ENDBRANCH  19  20
ENDBRANCH  18  19
ENDBRANCH  14  15
ENDBRANCH  12  13
TORSDOF 6
ENDMDL
