MODEL 1
REMARK VINA RESULT:      -9.1      0.000      0.000
REMARK  Name = C:\Users\Docking\Desktop\test protocol\1iep_ligandH.pdb
REMARK  8 active torsions:
REMARK  status: ('A' for Active; 'I' for Inactive)
REMARK    1  A    between atoms: _5  and  _11
REMARK    2  A    between atoms: _19  and  _21
REMARK    3  A    between atoms: _22  and  _66
REMARK    4  A    between atoms: _27  and  _30
REMARK    5  A    between atoms: _32  and  _33
REMARK    6  A    between atoms: _38  and  _43
REMARK    7  A    between atoms: _43  and  _46
REMARK    8  A    between atoms: _53  and  _55
REMARK                            x       y       z     vdW  Elec       q    Type
REMARK                         _______ _______ _______ _____ _____    ______ ____
ROOT
ATOM     10  C   UNL     1     -12.091   2.945   8.905  0.00  0.00    +0.038 A 
ATOM     11  C   UNL     1     -10.693   2.748   9.048  0.00  0.00    +0.047 A 
ATOM     12  C   UNL     1      -9.987   1.757   8.252  0.00  0.00    +0.035 A 
ATOM     32  C   UNL     1     -10.736   0.984   7.317  0.00  0.00    +0.024 A 
ATOM     33  C   UNL     1     -12.157   1.169   7.159  0.00  0.00    +0.007 A 
ATOM     34  C   UNL     1     -12.859   2.144   7.943  0.00  0.00    -0.029 A 
ATOM     35  C   UNL     1     -14.384   2.296   7.737  0.00  0.00    +0.045 C 
ENDROOT
BRANCH  10   9
ATOM      4  C   UNL     1     -13.972   7.312   9.553  0.00  0.00    +0.077 A 
ATOM      5  C   UNL     1     -13.654   7.713   8.213  0.00  0.00    +0.048 A 
ATOM      6  C   UNL     1     -13.000   6.768   7.391  0.00  0.00    +0.116 A 
ATOM      7  N   UNL     1     -12.692   5.518   7.883  0.00  0.00    -0.223 NA
ATOM      8  C   UNL     1     -13.011   5.165   9.181  0.00  0.00    +0.220 A 
ATOM      9  N   UNL     1     -12.718   3.911   9.695  0.00  0.00    -0.283 N 
ATOM     36  H   UNL     1     -12.963   3.691  10.660  0.00  0.00    +0.155 HD
ATOM     37  N   UNL     1     -13.634   6.050   9.986  0.00  0.00    -0.214 NA
BRANCH   4   3
ATOM      1  C   UNL     1     -14.690   9.685  12.579  0.00  0.00    +0.020 A 
ATOM      2  C   UNL     1     -13.973   8.838  11.653  0.00  0.00    +0.013 A 
ATOM      3  C   UNL     1     -14.665   8.198  10.541  0.00  0.00    +0.019 A 
ATOM     38  C   UNL     1     -16.093   8.438  10.393  0.00  0.00    +0.120 A 
ATOM     39  N   UNL     1     -16.756   9.257  11.301  0.00  0.00    -0.263 NA
ATOM     40  C   UNL     1     -16.101   9.877  12.376  0.00  0.00    +0.111 A 
ENDBRANCH   4   3
ENDBRANCH  10   9
BRANCH  12  13
ATOM     13  N   UNL     1      -8.571   1.507   8.359  0.00  0.00    -0.281 N 
ATOM     14  C   UNL     1      -7.541   2.433   8.352  0.00  0.00    +0.248 C 
ATOM     30  O   UNL     1      -7.668   3.607   8.036  0.00  0.00    -0.270 OA
ATOM     31  H   UNL     1      -8.295   0.530   8.452  0.00  0.00    +0.155 HD
BRANCH  14  15
ATOM     15  C   UNL     1      -6.167   1.988   8.738  0.00  0.00    +0.037 A 
ATOM     16  C   UNL     1      -4.975   2.610   8.157  0.00  0.00    +0.013 A 
ATOM     17  C   UNL     1      -3.662   2.150   8.534  0.00  0.00    +0.005 A 
ATOM     18  C   UNL     1      -3.535   1.061   9.500  0.00  0.00    -0.033 A 
ATOM     28  C   UNL     1      -4.734   0.464  10.064  0.00  0.00    +0.005 A 
ATOM     29  C   UNL     1      -6.023   0.912   9.696  0.00  0.00    +0.013 A 
BRANCH  18  19
ATOM     19  C   UNL     1      -2.175   0.491   9.944  0.00  0.00    +0.119 C 
BRANCH  19  20
ATOM     20  N   UNL     1      -1.452   1.217  11.031  0.00  0.00    -0.302 NA
ATOM     21  C   UNL     1       0.064   1.216  10.813  0.00  0.00    +0.066 C 
ATOM     22  C   UNL     1       0.803   1.998  11.947  0.00  0.00    -0.064 C 
ATOM     23  N   UNL     1       0.450   1.381  13.301  0.00  0.00    +0.379 N 
ATOM     24  C   UNL     1       1.188   2.077  14.365  0.00  0.00    -0.096 C 
ATOM     25  H   UNL     1       0.794   0.321  13.289  0.00  0.00    -0.082 HD
ATOM     26  C   UNL     1      -1.055   1.375  13.525  0.00  0.00    -0.064 C 
ATOM     27  C   UNL     1      -1.782   0.621  12.377  0.00  0.00    +0.066 C 
ENDBRANCH  19  20
ENDBRANCH  18  19
ENDBRANCH  14  15
ENDBRANCH  12  13
TORSDOF 6
ENDMDL
MODEL 2
REMARK VINA RESULT:      -8.7      4.552     12.619
REMARK  Name = C:\Users\Docking\Desktop\test protocol\1iep_ligandH.pdb
REMARK  8 active torsions:
REMARK  status: ('A' for Active; 'I' for Inactive)
REMARK    1  A    between atoms: _5  and  _11
REMARK    2  A    between atoms: _19  and  _21
REMARK    3  A    between atoms: _22  and  _66
REMARK    4  A    between atoms: _27  and  _30
REMARK    5  A    between atoms: _32  and  _33
REMARK    6  A    between atoms: _38  and  _43
REMARK    7  A    between atoms: _43  and  _46
REMARK    8  A    between atoms: _53  and  _55
REMARK                            x       y       z     vdW  Elec       q    Type
REMARK                         _______ _______ _______ _____ _____    ______ ____
ROOT
ATOM     10  C   UNL     1      -6.224   4.054  11.074  0.00  0.00    +0.038 A 
ATOM     11  C   UNL     1      -7.125   3.082  10.568  0.00  0.00    +0.047 A 
ATOM     12  C   UNL     1      -8.160   3.441   9.611  0.00  0.00    +0.035 A 
ATOM     32  C   UNL     1      -8.247   4.800   9.189  0.00  0.00    +0.024 A 
ATOM     33  C   UNL     1      -7.340   5.801   9.694  0.00  0.00    +0.007 A 
ATOM     34  C   UNL     1      -6.319   5.453  10.640  0.00  0.00    -0.029 A 
ATOM     35  C   UNL     1      -5.378   6.568  11.152  0.00  0.00    +0.045 C 
ENDROOT
BRANCH  10   9
ATOM      4  C   UNL     1      -1.893   2.283  12.146  0.00  0.00    +0.077 A 
ATOM      5  C   UNL     1      -1.554   2.117  10.762  0.00  0.00    +0.048 A 
ATOM      6  C   UNL     1      -2.524   2.492   9.806  0.00  0.00    +0.116 A 
ATOM      7  N   UNL     1      -3.740   2.996  10.215  0.00  0.00    -0.223 NA
ATOM      8  C   UNL     1      -4.036   3.142  11.557  0.00  0.00    +0.220 A 
ATOM      9  N   UNL     1      -5.249   3.653  11.991  0.00  0.00    -0.283 N 
ATOM     36  H   UNL     1      -5.432   3.738  12.991  0.00  0.00    +0.155 HD
ATOM     37  N   UNL     1      -3.127   2.789  12.490  0.00  0.00    -0.214 NA
BRANCH   4   3
ATOM      1  C   UNL     1       1.063   2.345  14.706  0.00  0.00    +0.020 A 
ATOM      2  C   UNL     1       0.207   2.724  13.606  0.00  0.00    +0.013 A 
ATOM      3  C   UNL     1      -0.972   1.935  13.274  0.00  0.00    +0.019 A 
ATOM     38  C   UNL     1      -1.260   0.759  14.081  0.00  0.00    +0.120 A 
ATOM     39  N   UNL     1      -0.416   0.417  15.133  0.00  0.00    -0.263 NA
ATOM     40  C   UNL     1       0.723   1.168  15.461  0.00  0.00    +0.111 A 
ENDBRANCH   4   3
ENDBRANCH  10   9
BRANCH  12  13
ATOM     13  N   UNL     1      -9.107   2.500   9.069  0.00  0.00    -0.281 N 
ATOM     14  C   UNL     1     -10.069   1.772   9.750  0.00  0.00    +0.248 C 
ATOM     30  O   UNL     1     -10.119   1.659  10.966  0.00  0.00    -0.270 OA
ATOM     31  H   UNL     1      -9.064   2.352   8.060  0.00  0.00    +0.155 HD
BRANCH  14  15
ATOM     15  C   UNL     1     -11.119   1.052   8.966  0.00  0.00    +0.037 A 
ATOM     16  C   UNL     1     -12.042   0.116   9.613  0.00  0.00    +0.013 A 
ATOM     17  C   UNL     1     -13.034  -0.578   8.831  0.00  0.00    +0.005 A 
ATOM     18  C   UNL     1     -13.110  -0.336   7.392  0.00  0.00    -0.033 A 
ATOM     28  C   UNL     1     -12.186   0.602   6.777  0.00  0.00    +0.005 A 
ATOM     29  C   UNL     1     -11.211   1.283   7.540  0.00  0.00    +0.013 A 
BRANCH  18  19
ATOM     19  C   UNL     1     -14.123  -1.048   6.477  0.00  0.00    +0.119 C 
BRANCH  19  20
ATOM     20  N   UNL     1     -15.094  -0.190   5.733  0.00  0.00    -0.302 NA
ATOM     21  C   UNL     1     -15.897   0.715   6.672  0.00  0.00    +0.066 C 
ATOM     22  C   UNL     1     -16.891   1.622   5.875  0.00  0.00    -0.064 C 
ATOM     23  N   UNL     1     -17.824   0.742   5.041  0.00  0.00    +0.379 N 
ATOM     24  C   UNL     1     -18.797   1.589   4.336  0.00  0.00    -0.096 C 
ATOM     25  H   UNL     1     -18.390   0.089   5.745  0.00  0.00    -0.082 HD
ATOM     26  C   UNL     1     -17.033  -0.163   4.107  0.00  0.00    -0.064 C 
ATOM     27  C   UNL     1     -16.027  -1.039   4.906  0.00  0.00    +0.066 C 
ENDBRANCH  19  20
ENDBRANCH  18  19
ENDBRANCH  14  15
ENDBRANCH  12  13
TORSDOF 6
ENDMDL
MODEL 3
REMARK VINA RESULT:      -8.5      5.370     11.083
REMARK  Name = C:\Users\Docking\Desktop\test protocol\1iep_ligandH.pdb
REMARK  8 active torsions:
REMARK  status: ('A' for Active; 'I' for Inactive)
REMARK    1  A    between atoms: _5  and  _11
REMARK    2  A    between atoms: _19  and  _21
REMARK    3  A    between atoms: _22  and  _66
REMARK    4  A    between atoms: _27  and  _30
REMARK    5  A    between atoms: _32  and  _33
REMARK    6  A    between atoms: _38  and  _43
REMARK    7  A    between atoms: _43  and  _46
REMARK    8  A    between atoms: _53  and  _55
REMARK                            x       y       z     vdW  Elec       q    Type
REMARK                         _______ _______ _______ _____ _____    ______ ____
ROOT
ATOM     10  C   UNL     1      -4.861   4.042  11.509  0.00  0.00    +0.038 A 
ATOM     11  C   UNL     1      -6.186   3.671  11.163  0.00  0.00    +0.047 A 
ATOM     12  C   UNL     1      -6.446   2.707  10.105  0.00  0.00    +0.035 A 
ATOM     32  C   UNL     1      -5.332   2.137   9.422  0.00  0.00    +0.024 A 
ATOM     33  C   UNL     1      -3.979   2.503   9.760  0.00  0.00    +0.007 A 
ATOM     34  C   UNL     1      -3.717   3.455  10.800  0.00  0.00    -0.029 A 
ATOM     35  C   UNL     1      -2.246   3.815  11.116  0.00  0.00    +0.045 C 
ENDROOT
BRANCH  10   9
ATOM      4  C   UNL     1      -4.242   8.533  13.084  0.00  0.00    +0.077 A 
ATOM      5  C   UNL     1      -4.277   9.068  11.754  0.00  0.00    +0.048 A 
ATOM      6  C   UNL     1      -4.449   8.152  10.691  0.00  0.00    +0.116 A 
ATOM      7  N   UNL     1      -4.576   6.805  10.951  0.00  0.00    -0.223 NA
ATOM      8  C   UNL     1      -4.536   6.322  12.246  0.00  0.00    +0.220 A 
ATOM      9  N   UNL     1      -4.669   4.972  12.532  0.00  0.00    -0.283 N 
ATOM     36  H   UNL     1      -4.627   4.655  13.500  0.00  0.00    +0.155 HD
ATOM     37  N   UNL     1      -4.371   7.176  13.279  0.00  0.00    -0.214 NA
BRANCH   4   3
ATOM      1  C   UNL     1      -2.655  10.494  16.074  0.00  0.00    +0.020 A 
ATOM      2  C   UNL     1      -2.766   9.677  14.887  0.00  0.00    +0.013 A 
ATOM      3  C   UNL     1      -4.070   9.373  14.312  0.00  0.00    +0.019 A 
ATOM     38  C   UNL     1      -5.251   9.915  14.966  0.00  0.00    +0.120 A 
ATOM     39  N   UNL     1      -5.114  10.698  16.108  0.00  0.00    -0.263 NA
ATOM     40  C   UNL     1      -3.864  10.996  16.672  0.00  0.00    +0.111 A 
ENDBRANCH   4   3
ENDBRANCH  10   9
BRANCH  12  13
ATOM     13  N   UNL     1      -7.769   2.299   9.705  0.00  0.00    -0.281 N 
ATOM     14  C   UNL     1      -8.450   2.634   8.546  0.00  0.00    +0.248 C 
ATOM     30  O   UNL     1      -8.105   3.515   7.772  0.00  0.00    -0.270 OA
ATOM     31  H   UNL     1      -8.265   1.688  10.355  0.00  0.00    +0.155 HD
BRANCH  14  15
ATOM     15  C   UNL     1      -9.704   1.895   8.205  0.00  0.00    +0.037 A 
ATOM     16  C   UNL     1     -10.399   2.124   6.936  0.00  0.00    +0.013 A 
ATOM     17  C   UNL     1     -11.616   1.410   6.639  0.00  0.00    +0.005 A 
ATOM     18  C   UNL     1     -12.144   0.459   7.615  0.00  0.00    -0.033 A 
ATOM     28  C   UNL     1     -11.431   0.248   8.863  0.00  0.00    +0.005 A 
ATOM     29  C   UNL     1     -10.239   0.946   9.158  0.00  0.00    +0.013 A 
BRANCH  18  19
ATOM     19  C   UNL     1     -13.447  -0.332   7.391  0.00  0.00    +0.119 C 
BRANCH  19  20
ATOM     20  N   UNL     1     -14.461   0.267   6.473  0.00  0.00    -0.302 NA
ATOM     21  C   UNL     1     -15.498   1.103   7.228  0.00  0.00    +0.066 C 
ATOM     22  C   UNL     1     -16.537   1.741   6.250  0.00  0.00    -0.064 C 
ATOM     23  N   UNL     1     -17.218   0.634   5.442  0.00  0.00    +0.379 N 
ATOM     24  C   UNL     1     -18.237   1.225   4.563  0.00  0.00    -0.096 C 
ATOM     25  H   UNL     1     -17.741  -0.037   6.163  0.00  0.00    -0.082 HD
ATOM     26  C   UNL     1     -16.194  -0.204   4.690  0.00  0.00    -0.064 C 
ATOM     27  C   UNL     1     -15.149  -0.808   5.668  0.00  0.00    +0.066 C 
ENDBRANCH  19  20
ENDBRANCH  18  19
ENDBRANCH  14  15
ENDBRANCH  12  13
TORSDOF 6
ENDMDL
MODEL 4
REMARK VINA RESULT:      -8.5      6.032      9.212
REMARK  Name = C:\Users\Docking\Desktop\test protocol\1iep_ligandH.pdb
REMARK  8 active torsions:
REMARK  status: ('A' for Active; 'I' for Inactive)
REMARK    1  A    between atoms: _5  and  _11
REMARK    2  A    between atoms: _19  and  _21
REMARK    3  A    between atoms: _22  and  _66
REMARK    4  A    between atoms: _27  and  _30
REMARK    5  A    between atoms: _32  and  _33
REMARK    6  A    between atoms: _38  and  _43
REMARK    7  A    between atoms: _43  and  _46
REMARK    8  A    between atoms: _53  and  _55
REMARK                            x       y       z     vdW  Elec       q    Type
REMARK                         _______ _______ _______ _____ _____    ______ ____
ROOT
ATOM     10  C   UNL     1     -16.222  -1.385   7.213  0.00  0.00    +0.038 A 
ATOM     11  C   UNL     1     -14.819  -1.181   7.215  0.00  0.00    +0.047 A 
ATOM     12  C   UNL     1     -14.162  -0.475   8.305  0.00  0.00    +0.035 A 
ATOM     32  C   UNL     1     -14.966   0.007   9.378  0.00  0.00    +0.024 A 
ATOM     33  C   UNL     1     -16.394  -0.191   9.392  0.00  0.00    +0.007 A 
ATOM     34  C   UNL     1     -17.047  -0.884   8.319  0.00  0.00    -0.029 A 
ATOM     35  C   UNL     1     -18.582  -1.061   8.383  0.00  0.00    +0.045 C 
ENDROOT
BRANCH  10   9
ATOM      4  C   UNL     1     -18.051  -1.534   2.778  0.00  0.00    +0.077 A 
ATOM      5  C   UNL     1     -17.865  -0.124   2.590  0.00  0.00    +0.048 A 
ATOM      6  C   UNL     1     -17.301   0.604   3.662  0.00  0.00    +0.116 A 
ATOM      7  N   UNL     1     -16.954  -0.039   4.830  0.00  0.00    -0.223 NA
ATOM      8  C   UNL     1     -17.149  -1.400   4.979  0.00  0.00    +0.220 A 
ATOM      9  N   UNL     1     -16.800  -2.070   6.142  0.00  0.00    -0.283 N 
ATOM     36  H   UNL     1     -16.967  -3.073   6.216  0.00  0.00    +0.155 HD
ATOM     37  N   UNL     1     -17.687  -2.118   3.971  0.00  0.00    -0.214 NA
BRANCH   4   3
ATOM      1  C   UNL     1     -20.245  -4.223   0.973  0.00  0.00    +0.020 A 
ATOM      2  C   UNL     1     -19.720  -3.369   2.014  0.00  0.00    +0.013 A 
ATOM      3  C   UNL     1     -18.632  -2.440   1.738  0.00  0.00    +0.019 A 
ATOM     38  C   UNL     1     -18.093  -2.399   0.387  0.00  0.00    +0.120 A 
ATOM     39  N   UNL     1     -18.617  -3.233  -0.595  0.00  0.00    -0.263 NA
ATOM     40  C   UNL     1     -19.664  -4.132  -0.341  0.00  0.00    +0.111 A 
ENDBRANCH   4   3
ENDBRANCH  10   9
BRANCH  12  13
ATOM     13  N   UNL     1     -12.742  -0.231   8.357  0.00  0.00    -0.281 N 
ATOM     14  C   UNL     1     -12.013   0.710   7.648  0.00  0.00    +0.248 C 
ATOM     30  O   UNL     1     -12.444   1.345   6.697  0.00  0.00    -0.270 OA
ATOM     31  H   UNL     1     -12.210  -0.823   8.994  0.00  0.00    +0.155 HD
BRANCH  14  15
ATOM     15  C   UNL     1     -10.596   0.973   8.043  0.00  0.00    +0.037 A 
ATOM     16  C   UNL     1     -10.128   0.717   9.407  0.00  0.00    +0.013 A 
ATOM     17  C   UNL     1      -8.760   0.995   9.767  0.00  0.00    +0.005 A 
ATOM     18  C   UNL     1      -7.849   1.532   8.758  0.00  0.00    -0.033 A 
ATOM     28  C   UNL     1      -8.339   1.771   7.410  0.00  0.00    +0.005 A 
ATOM     29  C   UNL     1      -9.679   1.501   7.055  0.00  0.00    +0.013 A 
BRANCH  18  19
ATOM     19  C   UNL     1      -6.379   1.878   9.058  0.00  0.00    +0.119 C 
BRANCH  19  20
ATOM     20  N   UNL     1      -6.119   3.082   9.902  0.00  0.00    -0.302 NA
ATOM     21  C   UNL     1      -6.717   4.353   9.291  0.00  0.00    +0.066 C 
ATOM     22  C   UNL     1      -6.455   5.599  10.198  0.00  0.00    -0.064 C 
ATOM     23  N   UNL     1      -4.949   5.760  10.416  0.00  0.00    +0.379 N 
ATOM     24  C   UNL     1      -4.696   6.964  11.221  0.00  0.00    -0.096 C 
ATOM     25  H   UNL     1      -4.478   5.914   9.418  0.00  0.00    -0.082 HD
ATOM     26  C   UNL     1      -4.346   4.500  11.021  0.00  0.00    -0.064 C 
ATOM     27  C   UNL     1      -4.637   3.263  10.126  0.00  0.00    +0.066 C 
ENDBRANCH  19  20
ENDBRANCH  18  19
ENDBRANCH  14  15
ENDBRANCH  12  13
TORSDOF 6
ENDMDL
MODEL 5
REMARK VINA RESULT:      -8.4      5.664      8.805
REMARK  Name = C:\Users\Docking\Desktop\test protocol\1iep_ligandH.pdb
REMARK  8 active torsions:
REMARK  status: ('A' for Active; 'I' for Inactive)
REMARK    1  A    between atoms: _5  and  _11
REMARK    2  A    between atoms: _19  and  _21
REMARK    3  A    between atoms: _22  and  _66
REMARK    4  A    between atoms: _27  and  _30
REMARK    5  A    between atoms: _32  and  _33
REMARK    6  A    between atoms: _38  and  _43
REMARK    7  A    between atoms: _43  and  _46
REMARK    8  A    between atoms: _53  and  _55
REMARK                            x       y       z     vdW  Elec       q    Type
REMARK                         _______ _______ _______ _____ _____    ______ ____
ROOT
ATOM     10  C   UNL     1     -15.730  -1.029   6.915  0.00  0.00    +0.038 A 
ATOM     11  C   UNL     1     -14.392  -0.564   6.857  0.00  0.00    +0.047 A 
ATOM     12  C   UNL     1     -13.788   0.135   7.981  0.00  0.00    +0.035 A 
ATOM     32  C   UNL     1     -14.577   0.340   9.151  0.00  0.00    +0.024 A 
ATOM     33  C   UNL     1     -15.940  -0.125   9.226  0.00  0.00    +0.007 A 
ATOM     34  C   UNL     1     -16.541  -0.812   8.119  0.00  0.00    -0.029 A 
ATOM     35  C   UNL     1     -18.008  -1.283   8.253  0.00  0.00    +0.045 C 
ENDROOT
BRANCH  10   9
ATOM      4  C   UNL     1     -17.868  -1.053   2.617  0.00  0.00    +0.077 A 
ATOM      5  C   UNL     1     -17.964   0.378   2.591  0.00  0.00    +0.048 A 
ATOM      6  C   UNL     1     -17.458   1.083   3.706  0.00  0.00    +0.116 A 
ATOM      7  N   UNL     1     -16.900   0.397   4.763  0.00  0.00    -0.223 NA
ATOM      8  C   UNL     1     -16.824  -0.984   4.757  0.00  0.00    +0.220 A 
ATOM      9  N   UNL     1     -16.259  -1.693   5.806  0.00  0.00    -0.283 N 
ATOM     36  H   UNL     1     -16.229  -2.712   5.767  0.00  0.00    +0.155 HD
ATOM     37  N   UNL     1     -17.301  -1.680   3.705  0.00  0.00    -0.214 NA
BRANCH   4   3
ATOM      1  C   UNL     1     -19.103  -2.343  -0.863  0.00  0.00    +0.020 A 
ATOM      2  C   UNL     1     -18.635  -1.446   0.169  0.00  0.00    +0.013 A 
ATOM      3  C   UNL     1     -18.355  -1.938   1.512  0.00  0.00    +0.019 A 
ATOM     38  C   UNL     1     -18.560  -3.353   1.780  0.00  0.00    +0.120 A 
ATOM     39  N   UNL     1     -19.014  -4.193   0.767  0.00  0.00    -0.263 NA
ATOM     40  C   UNL     1     -19.287  -3.731  -0.529  0.00  0.00    +0.111 A 
ENDBRANCH   4   3
ENDBRANCH  10   9
BRANCH  12  13
ATOM     13  N   UNL     1     -12.437   0.636   7.978  0.00  0.00    -0.281 N 
ATOM     14  C   UNL     1     -11.969   1.819   7.428  0.00  0.00    +0.248 C 
ATOM     30  O   UNL     1     -12.609   2.527   6.665  0.00  0.00    -0.270 OA
ATOM     31  H   UNL     1     -11.740   0.048   8.436  0.00  0.00    +0.155 HD
BRANCH  14  15
ATOM     15  C   UNL     1     -10.584   2.272   7.763  0.00  0.00    +0.037 A 
ATOM     16  C   UNL     1      -9.416   1.452   7.436  0.00  0.00    +0.013 A 
ATOM     17  C   UNL     1      -8.093   1.905   7.785  0.00  0.00    +0.005 A 
ATOM     18  C   UNL     1      -7.932   3.188   8.465  0.00  0.00    -0.033 A 
ATOM     28  C   UNL     1      -9.108   3.984   8.773  0.00  0.00    +0.005 A 
ATOM     29  C   UNL     1     -10.406   3.543   8.433  0.00  0.00    +0.013 A 
BRANCH  18  19
ATOM     19  C   UNL     1      -6.560   3.741   8.894  0.00  0.00    +0.119 C 
BRANCH  19  20
ATOM     20  N   UNL     1      -5.527   2.750   9.321  0.00  0.00    -0.302 NA
ATOM     21  C   UNL     1      -4.761   3.217  10.562  0.00  0.00    +0.066 C 
ATOM     22  C   UNL     1      -3.700   2.158  11.008  0.00  0.00    -0.064 C 
ATOM     23  N   UNL     1      -2.739   1.886   9.850  0.00  0.00    +0.379 N 
ATOM     24  C   UNL     1      -1.705   0.935  10.284  0.00  0.00    -0.096 C 
ATOM     25  H   UNL     1      -2.231   2.846   9.599  0.00  0.00    -0.082 HD
ATOM     26  C   UNL     1      -3.492   1.424   8.610  0.00  0.00    -0.064 C 
ATOM     27  C   UNL     1      -4.564   2.469   8.193  0.00  0.00    +0.066 C 
ENDBRANCH  19  20
ENDBRANCH  18  19
ENDBRANCH  14  15
ENDBRANCH  12  13
TORSDOF 6
ENDMDL
