MODEL 1
REMARK VINA RESULT:     -11.1      0.000      0.000
REMARK  Name = C:\Users\Docking\Desktop\test protocol\1iep_ligandH.pdb
REMARK  8 active torsions:
REMARK  status: ('A' for Active; 'I' for Inactive)
REMARK    1  A    between atoms: _5  and  _11
REMARK    2  A    between atoms: _19  and  _21
REMARK    3  A    between atoms: _22  and  _66
REMARK    4  A    between atoms: _27  and  _30
REMARK    5  A    between atoms: _32  and  _33
REMARK    6  A    between atoms: _38  and  _43
REMARK    7  A    between atoms: _43  and  _46
REMARK    8  A    between atoms: _53  and  _55
REMARK                            x       y       z     vdW  Elec       q    Type
REMARK                         _______ _______ _______ _____ _____    ______ ____
ROOT
ATOM     10  C   UNL     1      12.959  -5.135  12.443  0.00  0.00    +0.038 A 
ATOM     11  C   UNL     1      11.983  -5.914  11.771  0.00  0.00    +0.047 A 
ATOM     12  C   UNL     1      12.327  -6.704  10.599  0.00  0.00    +0.035 A 
ATOM     32  C   UNL     1      13.676  -6.680  10.140  0.00  0.00    +0.024 A 
ATOM     33  C   UNL     1      14.681  -5.893  10.810  0.00  0.00    +0.007 A 
ATOM     34  C   UNL     1      14.347  -5.110  11.965  0.00  0.00    -0.029 A 
ATOM     35  C   UNL     1      15.464  -4.280  12.640  0.00  0.00    +0.045 C 
ENDROOT
BRANCH  10   9
ATOM      4  C   UNL     1      12.600  -4.518  17.189  0.00  0.00    +0.077 A 
ATOM      5  C   UNL     1      13.208  -5.789  17.460  0.00  0.00    +0.048 A 
ATOM      6  C   UNL     1      13.592  -6.574  16.350  0.00  0.00    +0.116 A 
ATOM      7  N   UNL     1      13.380  -6.113  15.069  0.00  0.00    -0.223 NA
ATOM      8  C   UNL     1      12.789  -4.883  14.842  0.00  0.00    +0.220 A 
ATOM      9  N   UNL     1      12.574  -4.395  13.563  0.00  0.00    -0.283 N 
ATOM     36  H   UNL     1      12.129  -3.486  13.438  0.00  0.00    +0.155 HD
ATOM     37  N   UNL     1      12.412  -4.115  15.886  0.00  0.00    -0.214 NA
BRANCH   4   3
ATOM      1  C   UNL     1      11.901  -2.870  20.667  0.00  0.00    +0.020 A 
ATOM      2  C   UNL     1      12.362  -3.816  19.676  0.00  0.00    +0.013 A 
ATOM      3  C   UNL     1      12.143  -3.573  18.256  0.00  0.00    +0.019 A 
ATOM     38  C   UNL     1      11.450  -2.353  17.868  0.00  0.00    +0.120 A 
ATOM     39  N   UNL     1      11.017  -1.462  18.845  0.00  0.00    -0.263 NA
ATOM     40  C   UNL     1      11.220  -1.686  20.214  0.00  0.00    +0.111 A 
ENDBRANCH   4   3
ENDBRANCH  10   9
BRANCH  12  13
ATOM     13  N   UNL     1      11.376  -7.508   9.871  0.00  0.00    -0.281 N 
ATOM     14  C   UNL     1      10.772  -8.687  10.275  0.00  0.00    +0.248 C 
ATOM     30  O   UNL     1      11.120  -9.346  11.244  0.00  0.00    -0.270 OA
ATOM     31  H   UNL     1      11.118  -7.167   8.945  0.00  0.00    +0.155 HD
BRANCH  14  15
ATOM     15  C   UNL     1       9.623  -9.219   9.481  0.00  0.00    +0.037 A 
ATOM     16  C   UNL     1       8.636  -8.320   8.877  0.00  0.00    +0.013 A 
ATOM     17  C   UNL     1       7.528  -8.860   8.129  0.00  0.00    +0.005 A 
ATOM     18  C   UNL     1       7.402 -10.308   7.981  0.00  0.00    -0.033 A 
ATOM     28  C   UNL     1       8.398 -11.176   8.586  0.00  0.00    +0.005 A 
ATOM     29  C   UNL     1       9.485 -10.651   9.320  0.00  0.00    +0.013 A 
BRANCH  18  19
ATOM     19  C   UNL     1       6.240 -10.972   7.218  0.00  0.00    +0.119 C 
BRANCH  19  20
ATOM     20  N   UNL     1       4.857 -10.717   7.721  0.00  0.00    -0.302 NA
ATOM     21  C   UNL     1       4.565 -11.484   9.013  0.00  0.00    +0.066 C 
ATOM     22  C   UNL     1       3.122 -11.188   9.538  0.00  0.00    -0.064 C 
ATOM     23  N   UNL     1       2.105 -11.547   8.453  0.00  0.00    +0.379 N 
ATOM     24  C   UNL     1       0.745 -11.324   8.963  0.00  0.00    -0.096 C 
ATOM     25  H   UNL     1       2.212 -12.635   8.237  0.00  0.00    -0.082 HD
ATOM     26  C   UNL     1       2.390 -10.790   7.163  0.00  0.00    -0.064 C 
ATOM     27  C   UNL     1       3.836 -11.068   6.667  0.00  0.00    +0.066 C 
ENDBRANCH  19  20
ENDBRANCH  18  19
ENDBRANCH  14  15
ENDBRANCH  12  13
TORSDOF 6
ENDMDL
MODEL 2
REMARK VINA RESULT:     -10.4      1.827      2.421
REMARK  Name = C:\Users\Docking\Desktop\test protocol\1iep_ligandH.pdb
REMARK  8 active torsions:
REMARK  status: ('A' for Active; 'I' for Inactive)
REMARK    1  A    between atoms: _5  and  _11
REMARK    2  A    between atoms: _19  and  _21
REMARK    3  A    between atoms: _22  and  _66
REMARK    4  A    between atoms: _27  and  _30
REMARK    5  A    between atoms: _32  and  _33
REMARK    6  A    between atoms: _38  and  _43
REMARK    7  A    between atoms: _43  and  _46
REMARK    8  A    between atoms: _53  and  _55
REMARK                            x       y       z     vdW  Elec       q    Type
REMARK                         _______ _______ _______ _____ _____    ______ ____
ROOT
ATOM     10  C   UNL     1      13.003  -5.440  11.956  0.00  0.00    +0.038 A 
ATOM     11  C   UNL     1      11.983  -6.210  11.341  0.00  0.00    +0.047 A 
ATOM     12  C   UNL     1      12.255  -7.012  10.158  0.00  0.00    +0.035 A 
ATOM     32  C   UNL     1      13.579  -7.009   9.630  0.00  0.00    +0.024 A 
ATOM     33  C   UNL     1      14.627  -6.231  10.241  0.00  0.00    +0.007 A 
ATOM     34  C   UNL     1      14.364  -5.435  11.407  0.00  0.00    -0.029 A 
ATOM     35  C   UNL     1      15.525  -4.616  12.017  0.00  0.00    +0.045 C 
ENDROOT
BRANCH  10   9
ATOM      4  C   UNL     1      12.753  -4.855  16.713  0.00  0.00    +0.077 A 
ATOM      5  C   UNL     1      13.274  -6.168  16.961  0.00  0.00    +0.048 A 
ATOM      6  C   UNL     1      13.586  -6.965  15.837  0.00  0.00    +0.116 A 
ATOM      7  N   UNL     1      13.390  -6.475  14.565  0.00  0.00    -0.223 NA
ATOM      8  C   UNL     1      12.884  -5.204  14.360  0.00  0.00    +0.220 A 
ATOM      9  N   UNL     1      12.686  -4.688  13.089  0.00  0.00    -0.283 N 
ATOM     36  H   UNL     1      12.304  -3.748  12.980  0.00  0.00    +0.155 HD
ATOM     37  N   UNL     1      12.576  -4.424  15.417  0.00  0.00    -0.214 NA
BRANCH   4   3
ATOM      1  C   UNL     1      12.349  -3.135  20.203  0.00  0.00    +0.020 A 
ATOM      2  C   UNL     1      12.735  -4.096  19.195  0.00  0.00    +0.013 A 
ATOM      3  C   UNL     1      12.379  -3.892  17.797  0.00  0.00    +0.019 A 
ATOM     38  C   UNL     1      11.626  -2.696  17.449  0.00  0.00    +0.120 A 
ATOM     39  N   UNL     1      11.267  -1.789  18.441  0.00  0.00    -0.263 NA
ATOM     40  C   UNL     1      11.603  -1.976  19.790  0.00  0.00    +0.111 A 
ENDBRANCH   4   3
ENDBRANCH  10   9
BRANCH  12  13
ATOM     13  N   UNL     1      11.258  -7.808   9.486  0.00  0.00    -0.281 N 
ATOM     14  C   UNL     1      10.562  -8.897   9.983  0.00  0.00    +0.248 C 
ATOM     30  O   UNL     1      10.846  -9.488  11.014  0.00  0.00    -0.270 OA
ATOM     31  H   UNL     1      11.039  -7.534   8.528  0.00  0.00    +0.155 HD
BRANCH  14  15
ATOM     15  C   UNL     1       9.388  -9.415   9.216  0.00  0.00    +0.037 A 
ATOM     16  C   UNL     1       8.277  -8.535   8.841  0.00  0.00    +0.013 A 
ATOM     17  C   UNL     1       7.149  -9.063   8.116  0.00  0.00    +0.005 A 
ATOM     18  C   UNL     1       7.127 -10.480   7.759  0.00  0.00    -0.033 A 
ATOM     28  C   UNL     1       8.244 -11.329   8.139  0.00  0.00    +0.005 A 
ATOM     29  C   UNL     1       9.351 -10.815   8.850  0.00  0.00    +0.013 A 
BRANCH  18  19
ATOM     19  C   UNL     1       5.954 -11.133   7.004  0.00  0.00    +0.119 C 
BRANCH  19  20
ATOM     20  N   UNL     1       6.135 -12.544   6.550  0.00  0.00    -0.302 NA
ATOM     21  C   UNL     1       6.512 -12.626   5.068  0.00  0.00    +0.066 C 
ATOM     22  C   UNL     1       6.720 -14.108   4.615  0.00  0.00    -0.064 C 
ATOM     23  N   UNL     1       5.446 -14.908   4.894  0.00  0.00    +0.379 N 
ATOM     24  C   UNL     1       5.618 -16.287   4.416  0.00  0.00    -0.096 C 
ATOM     25  H   UNL     1       4.621 -14.445   4.305  0.00  0.00    -0.082 HD
ATOM     26  C   UNL     1       5.062 -14.829   6.365  0.00  0.00    -0.064 C 
ATOM     27  C   UNL     1       4.887 -13.351   6.813  0.00  0.00    +0.066 C 
ENDBRANCH  19  20
ENDBRANCH  18  19
ENDBRANCH  14  15
ENDBRANCH  12  13
TORSDOF 6
ENDMDL
MODEL 3
REMARK VINA RESULT:      -8.8      2.352      3.247
REMARK  Name = C:\Users\Docking\Desktop\test protocol\1iep_ligandH.pdb
REMARK  8 active torsions:
REMARK  status: ('A' for Active; 'I' for Inactive)
REMARK    1  A    between atoms: _5  and  _11
REMARK    2  A    between atoms: _19  and  _21
REMARK    3  A    between atoms: _22  and  _66
REMARK    4  A    between atoms: _27  and  _30
REMARK    5  A    between atoms: _32  and  _33
REMARK    6  A    between atoms: _38  and  _43
REMARK    7  A    between atoms: _43  and  _46
REMARK    8  A    between atoms: _53  and  _55
REMARK                            x       y       z     vdW  Elec       q    Type
REMARK                         _______ _______ _______ _____ _____    ______ ____
ROOT
ATOM     10  C   UNL     1      12.711  -5.864  11.895  0.00  0.00    +0.038 A 
ATOM     11  C   UNL     1      11.708  -6.748  11.420  0.00  0.00    +0.047 A 
ATOM     12  C   UNL     1      11.948  -7.612  10.275  0.00  0.00    +0.035 A 
ATOM     32  C   UNL     1      13.222  -7.552   9.639  0.00  0.00    +0.024 A 
ATOM     33  C   UNL     1      14.252  -6.659  10.107  0.00  0.00    +0.007 A 
ATOM     34  C   UNL     1      14.021  -5.802  11.235  0.00  0.00    -0.029 A 
ATOM     35  C   UNL     1      15.159  -4.860  11.690  0.00  0.00    +0.045 C 
ENDROOT
BRANCH  10   9
ATOM      4  C   UNL     1      12.787  -4.958  16.608  0.00  0.00    +0.077 A 
ATOM      5  C   UNL     1      13.422  -6.211  16.899  0.00  0.00    +0.048 A 
ATOM      6  C   UNL     1      13.706  -7.063  15.808  0.00  0.00    +0.116 A 
ATOM      7  N   UNL     1      13.375  -6.680  14.526  0.00  0.00    -0.223 NA
ATOM      8  C   UNL     1      12.762  -5.465  14.281  0.00  0.00    +0.220 A 
ATOM      9  N   UNL     1      12.427  -5.057  12.999  0.00  0.00    -0.283 N 
ATOM     36  H   UNL     1      11.968  -4.156  12.860  0.00  0.00    +0.155 HD
ATOM     37  N   UNL     1      12.479  -4.634  15.306  0.00  0.00    -0.214 NA
BRANCH   4   3
ATOM      1  C   UNL     1      11.421  -1.755  18.391  0.00  0.00    +0.020 A 
ATOM      2  C   UNL     1      11.747  -2.696  17.344  0.00  0.00    +0.013 A 
ATOM      3  C   UNL     1      12.426  -3.948  17.653  0.00  0.00    +0.019 A 
ATOM     38  C   UNL     1      12.763  -4.221  19.042  0.00  0.00    +0.120 A 
ATOM     39  N   UNL     1      12.437  -3.295  20.029  0.00  0.00    -0.263 NA
ATOM     40  C   UNL     1      11.785  -2.086  19.744  0.00  0.00    +0.111 A 
ENDBRANCH   4   3
ENDBRANCH  10   9
BRANCH  12  13
ATOM     13  N   UNL     1      10.966  -8.523   9.743  0.00  0.00    -0.281 N 
ATOM     14  C   UNL     1      10.214  -8.386   8.588  0.00  0.00    +0.248 C 
ATOM     30  O   UNL     1      10.118  -7.351   7.944  0.00  0.00    -0.270 OA
ATOM     31  H   UNL     1      10.805  -9.373  10.284  0.00  0.00    +0.155 HD
BRANCH  14  15
ATOM     15  C   UNL     1       9.446  -9.564   8.081  0.00  0.00    +0.037 A 
ATOM     16  C   UNL     1      10.045 -10.901   8.041  0.00  0.00    +0.013 A 
ATOM     17  C   UNL     1       9.288 -12.017   7.532  0.00  0.00    +0.005 A 
ATOM     18  C   UNL     1       7.922 -11.801   7.060  0.00  0.00    -0.033 A 
ATOM     28  C   UNL     1       7.351 -10.465   7.116  0.00  0.00    +0.005 A 
ATOM     29  C   UNL     1       8.091  -9.368   7.614  0.00  0.00    +0.013 A 
BRANCH  18  19
ATOM     19  C   UNL     1       7.049 -12.929   6.481  0.00  0.00    +0.119 C 
BRANCH  19  20
ATOM     20  N   UNL     1       6.758 -12.887   5.017  0.00  0.00    -0.302 NA
ATOM     21  C   UNL     1       7.766 -12.021   4.256  0.00  0.00    +0.066 C 
ATOM     22  C   UNL     1       7.461 -12.006   2.723  0.00  0.00    -0.064 C 
ATOM     23  N   UNL     1       6.034 -11.502   2.495  0.00  0.00    +0.379 N 
ATOM     24  C   UNL     1       5.763 -11.431   1.052  0.00  0.00    -0.096 C 
ATOM     25  H   UNL     1       5.973 -10.466   2.902  0.00  0.00    -0.082 HD
ATOM     26  C   UNL     1       5.025 -12.355   3.251  0.00  0.00    -0.064 C 
ATOM     27  C   UNL     1       5.356 -12.388   4.769  0.00  0.00    +0.066 C 
ENDBRANCH  19  20
ENDBRANCH  18  19
ENDBRANCH  14  15
ENDBRANCH  12  13
TORSDOF 6
ENDMDL
MODEL 4
REMARK VINA RESULT:      -8.7      1.974      2.824
REMARK  Name = C:\Users\Docking\Desktop\test protocol\1iep_ligandH.pdb
REMARK  8 active torsions:
REMARK  status: ('A' for Active; 'I' for Inactive)
REMARK    1  A    between atoms: _5  and  _11
REMARK    2  A    between atoms: _19  and  _21
REMARK    3  A    between atoms: _22  and  _66
REMARK    4  A    between atoms: _27  and  _30
REMARK    5  A    between atoms: _32  and  _33
REMARK    6  A    between atoms: _38  and  _43
REMARK    7  A    between atoms: _43  and  _46
REMARK    8  A    between atoms: _53  and  _55
REMARK                            x       y       z     vdW  Elec       q    Type
REMARK                         _______ _______ _______ _____ _____    ______ ____
ROOT
ATOM     10  C   UNL     1      12.582  -5.842   9.848  0.00  0.00    +0.038 A 
ATOM     11  C   UNL     1      11.654  -6.785   9.338  0.00  0.00    +0.047 A 
ATOM     12  C   UNL     1      11.820  -7.364   8.014  0.00  0.00    +0.035 A 
ATOM     32  C   UNL     1      12.945  -6.961   7.237  0.00  0.00    +0.024 A 
ATOM     33  C   UNL     1      13.898  -6.003   7.740  0.00  0.00    +0.007 A 
ATOM     34  C   UNL     1      13.738  -5.427   9.044  0.00  0.00    -0.029 A 
ATOM     35  C   UNL     1      14.786  -4.399   9.530  0.00  0.00    +0.045 C 
ENDROOT
BRANCH  10   9
ATOM      4  C   UNL     1      13.201  -5.921  14.607  0.00  0.00    +0.077 A 
ATOM      5  C   UNL     1      13.983  -7.121  14.545  0.00  0.00    +0.048 A 
ATOM      6  C   UNL     1      14.197  -7.691  13.270  0.00  0.00    +0.116 A 
ATOM      7  N   UNL     1      13.664  -7.096  12.148  0.00  0.00    -0.223 NA
ATOM      8  C   UNL     1      12.912  -5.939  12.243  0.00  0.00    +0.220 A 
ATOM      9  N   UNL     1      12.373  -5.319  11.126  0.00  0.00    -0.283 N 
ATOM     36  H   UNL     1      11.818  -4.471  11.239  0.00  0.00    +0.155 HD
ATOM     37  N   UNL     1      12.692  -5.376  13.449  0.00  0.00    -0.214 NA
BRANCH   4   3
ATOM      1  C   UNL     1      12.921  -4.982  18.394  0.00  0.00    +0.020 A 
ATOM      2  C   UNL     1      13.244  -5.720  17.195  0.00  0.00    +0.013 A 
ATOM      3  C   UNL     1      12.890  -5.198  15.881  0.00  0.00    +0.019 A 
ATOM     38  C   UNL     1      12.205  -3.916  15.815  0.00  0.00    +0.120 A 
ATOM     39  N   UNL     1      11.905  -3.229  16.987  0.00  0.00    -0.263 NA
ATOM     40  C   UNL     1      12.240  -3.722  18.257  0.00  0.00    +0.111 A 
ENDBRANCH   4   3
ENDBRANCH  10   9
BRANCH  12  13
ATOM     13  N   UNL     1      10.906  -8.320   7.439  0.00  0.00    -0.281 N 
ATOM     14  C   UNL     1      10.995  -9.702   7.460  0.00  0.00    +0.248 C 
ATOM     30  O   UNL     1      11.992 -10.325   7.793  0.00  0.00    -0.270 OA
ATOM     31  H   UNL     1      10.094  -7.930   6.959  0.00  0.00    +0.155 HD
BRANCH  14  15
ATOM     15  C   UNL     1       9.810 -10.508   7.035  0.00  0.00    +0.037 A 
ATOM     16  C   UNL     1       8.893 -10.024   6.000  0.00  0.00    +0.013 A 
ATOM     17  C   UNL     1       7.748 -10.814   5.621  0.00  0.00    +0.005 A 
ATOM     18  C   UNL     1       7.515 -12.098   6.277  0.00  0.00    -0.033 A 
ATOM     28  C   UNL     1       8.444 -12.557   7.297  0.00  0.00    +0.005 A 
ATOM     29  C   UNL     1       9.566 -11.785   7.672  0.00  0.00    +0.013 A 
BRANCH  18  19
ATOM     19  C   UNL     1       6.308 -12.997   5.951  0.00  0.00    +0.119 C 
BRANCH  19  20
ATOM     20  N   UNL     1       4.993 -12.621   6.552  0.00  0.00    -0.302 NA
ATOM     21  C   UNL     1       4.220 -11.636   5.671  0.00  0.00    +0.066 C 
ATOM     22  C   UNL     1       2.838 -11.270   6.304  0.00  0.00    -0.064 C 
ATOM     23  N   UNL     1       3.057 -10.690   7.702  0.00  0.00    +0.379 N 
ATOM     24  C   UNL     1       1.764 -10.292   8.276  0.00  0.00    -0.096 C 
ATOM     25  H   UNL     1       3.676  -9.770   7.592  0.00  0.00    -0.082 HD
ATOM     26  C   UNL     1       3.828 -11.662   8.583  0.00  0.00    -0.064 C 
ATOM     27  C   UNL     1       5.187 -12.041   7.932  0.00  0.00    +0.066 C 
ENDBRANCH  19  20
ENDBRANCH  18  19
ENDBRANCH  14  15
ENDBRANCH  12  13
TORSDOF 6
ENDMDL
MODEL 5
REMARK VINA RESULT:      -8.6      6.292     11.712
REMARK  Name = C:\Users\Docking\Desktop\test protocol\1iep_ligandH.pdb
REMARK  8 active torsions:
REMARK  status: ('A' for Active; 'I' for Inactive)
REMARK    1  A    between atoms: _5  and  _11
REMARK    2  A    between atoms: _19  and  _21
REMARK    3  A    between atoms: _22  and  _66
REMARK    4  A    between atoms: _27  and  _30
REMARK    5  A    between atoms: _32  and  _33
REMARK    6  A    between atoms: _38  and  _43
REMARK    7  A    between atoms: _43  and  _46
REMARK    8  A    between atoms: _53  and  _55
REMARK                            x       y       z     vdW  Elec       q    Type
REMARK                         _______ _______ _______ _____ _____    ______ ____
ROOT
ATOM     10  C   UNL     1      13.425  -5.755  11.665  0.00  0.00    +0.038 A 
ATOM     11  C   UNL     1      14.684  -5.438  11.093  0.00  0.00    +0.047 A 
ATOM     12  C   UNL     1      15.197  -6.175   9.949  0.00  0.00    +0.035 A 
ATOM     32  C   UNL     1      14.401  -7.228   9.410  0.00  0.00    +0.024 A 
ATOM     33  C   UNL     1      13.119  -7.564   9.980  0.00  0.00    +0.007 A 
ATOM     34  C   UNL     1      12.609  -6.842  11.110  0.00  0.00    -0.029 A 
ATOM     35  C   UNL     1      11.232  -7.249  11.684  0.00  0.00    +0.045 C 
ENDROOT
BRANCH  10   9
ATOM      4  C   UNL     1      13.002  -5.031  16.391  0.00  0.00    +0.077 A 
ATOM      5  C   UNL     1      13.701  -6.245  16.699  0.00  0.00    +0.048 A 
ATOM      6  C   UNL     1      14.148  -7.031  15.613  0.00  0.00    +0.116 A 
ATOM      7  N   UNL     1      13.907  -6.623  14.319  0.00  0.00    -0.223 NA
ATOM      8  C   UNL     1      13.227  -5.448  14.056  0.00  0.00    +0.220 A 
ATOM      9  N   UNL     1      12.981  -5.014  12.763  0.00  0.00    -0.283 N 
ATOM     36  H   UNL     1      12.470  -4.145  12.611  0.00  0.00    +0.155 HD
ATOM     37  N   UNL     1      12.790  -4.680  15.076  0.00  0.00    -0.214 NA
BRANCH   4   3
ATOM      1  C   UNL     1      12.151  -3.353  19.820  0.00  0.00    +0.020 A 
ATOM      2  C   UNL     1      12.684  -4.289  18.858  0.00  0.00    +0.013 A 
ATOM      3  C   UNL     1      12.471  -4.093  17.430  0.00  0.00    +0.019 A 
ATOM     38  C   UNL     1      11.709  -2.928  17.004  0.00  0.00    +0.120 A 
ATOM     39  N   UNL     1      11.206  -2.044  17.954  0.00  0.00    -0.263 NA
ATOM     40  C   UNL     1      11.403  -2.224  19.331  0.00  0.00    +0.111 A 
ENDBRANCH   4   3
ENDBRANCH  10   9
BRANCH  12  13
ATOM     13  N   UNL     1      16.471  -5.905   9.331  0.00  0.00    -0.281 N 
ATOM     14  C   UNL     1      16.713  -5.307   8.104  0.00  0.00    +0.248 C 
ATOM     30  O   UNL     1      15.860  -5.107   7.253  0.00  0.00    -0.270 OA
ATOM     31  H   UNL     1      17.295  -6.188   9.862  0.00  0.00    +0.155 HD
BRANCH  14  15
ATOM     15  C   UNL     1      18.107  -4.884   7.770  0.00  0.00    +0.037 A 
ATOM     16  C   UNL     1      18.683  -3.658   8.327  0.00  0.00    +0.013 A 
ATOM     17  C   UNL     1      20.024  -3.263   7.975  0.00  0.00    +0.005 A 
ATOM     18  C   UNL     1      20.799  -4.098   7.060  0.00  0.00    -0.033 A 
ATOM     28  C   UNL     1      20.205  -5.312   6.526  0.00  0.00    +0.005 A 
ATOM     29  C   UNL     1      18.890  -5.701   6.868  0.00  0.00    +0.013 A 
BRANCH  18  19
ATOM     19  C   UNL     1      22.230  -3.744   6.612  0.00  0.00    +0.119 C 
BRANCH  19  20
ATOM     20  N   UNL     1      23.252  -4.831   6.665  0.00  0.00    -0.302 NA
ATOM     21  C   UNL     1      24.402  -4.493   7.617  0.00  0.00    +0.066 C 
ATOM     22  C   UNL     1      25.451  -5.651   7.677  0.00  0.00    -0.064 C 
ATOM     23  N   UNL     1      25.978  -5.931   6.268  0.00  0.00    +0.379 N 
ATOM     24  C   UNL     1      27.007  -6.980   6.329  0.00  0.00    -0.096 C 
ATOM     25  H   UNL     1      26.466  -4.999   5.899  0.00  0.00    -0.082 HD
ATOM     26  C   UNL     1      24.840  -6.265   5.314  0.00  0.00    -0.064 C 
ATOM     27  C   UNL     1      23.789  -5.121   5.285  0.00  0.00    +0.066 C 
ENDBRANCH  19  20
ENDBRANCH  18  19
ENDBRANCH  14  15
ENDBRANCH  12  13
TORSDOF 6
ENDMDL
