MODEL 1
REMARK VINA RESULT:     -11.7      0.000      0.000
REMARK  Name = C:\Users\Docking\Desktop\test protocol\1iep_ligandH.pdb
REMARK  8 active torsions:
REMARK  status: ('A' for Active; 'I' for Inactive)
REMARK    1  A    between atoms: _5  and  _11
REMARK    2  A    between atoms: _19  and  _21
REMARK    3  A    between atoms: _22  and  _66
REMARK    4  A    between atoms: _27  and  _30
REMARK    5  A    between atoms: _32  and  _33
REMARK    6  A    between atoms: _38  and  _43
REMARK    7  A    between atoms: _43  and  _46
REMARK    8  A    between atoms: _53  and  _55
REMARK                            x       y       z     vdW  Elec       q    Type
REMARK                         _______ _______ _______ _____ _____    ______ ____
ROOT
ATOM     10  C   UNL     1       1.363   4.113   3.732  0.00  0.00    +0.038 A 
ATOM     11  C   UNL     1       0.513   3.960   4.857  0.00  0.00    +0.047 A 
ATOM     12  C   UNL     1       1.058   3.716   6.184  0.00  0.00    +0.035 A 
ATOM     32  C   UNL     1       2.474   3.637   6.328  0.00  0.00    +0.024 A 
ATOM     33  C   UNL     1       3.352   3.790   5.195  0.00  0.00    +0.007 A 
ATOM     34  C   UNL     1       2.820   4.028   3.884  0.00  0.00    -0.029 A 
ATOM     35  C   UNL     1       3.809   4.177   2.704  0.00  0.00    +0.045 C 
ENDROOT
BRANCH  10   9
ATOM      4  C   UNL     1      -0.870   2.615  -0.244  0.00  0.00    +0.077 A 
ATOM      5  C   UNL     1      -0.863   1.249   0.196  0.00  0.00    +0.048 A 
ATOM      6  C   UNL     1      -0.269   0.974   1.448  0.00  0.00    +0.116 A 
ATOM      7  N   UNL     1       0.274   1.996   2.196  0.00  0.00    -0.223 NA
ATOM      8  C   UNL     1       0.252   3.301   1.742  0.00  0.00    +0.220 A 
ATOM      9  N   UNL     1       0.786   4.346   2.481  0.00  0.00    -0.283 N 
ATOM     36  H   UNL     1       0.756   5.294   2.108  0.00  0.00    +0.155 HD
ATOM     37  N   UNL     1      -0.308   3.590   0.549  0.00  0.00    -0.214 NA
BRANCH   4   3
ATOM      1  C   UNL     1      -2.694   4.736  -2.978  0.00  0.00    +0.020 A 
ATOM      2  C   UNL     1      -2.137   4.348  -1.702  0.00  0.00    +0.013 A 
ATOM      3  C   UNL     1      -1.465   3.066  -1.542  0.00  0.00    +0.019 A 
ATOM     38  C   UNL     1      -1.370   2.192  -2.702  0.00  0.00    +0.120 A 
ATOM     39  N   UNL     1      -1.917   2.591  -3.917  0.00  0.00    -0.263 NA
ATOM     40  C   UNL     1      -2.568   3.822  -4.083  0.00  0.00    +0.111 A 
ENDBRANCH   4   3
ENDBRANCH  10   9
BRANCH  12  13
ATOM     13  N   UNL     1       0.244   3.544   7.362  0.00  0.00    -0.281 N 
ATOM     14  C   UNL     1       0.392   2.604   8.369  0.00  0.00    +0.248 C 
ATOM     30  O   UNL     1       1.123   1.627   8.300  0.00  0.00    -0.270 OA
ATOM     31  H   UNL     1      -0.535   4.194   7.466  0.00  0.00    +0.155 HD
BRANCH  14  15
ATOM     15  C   UNL     1      -0.397   2.765   9.628  0.00  0.00    +0.037 A 
ATOM     16  C   UNL     1      -1.862   2.797   9.608  0.00  0.00    +0.013 A 
ATOM     17  C   UNL     1      -2.598   2.970  10.835  0.00  0.00    +0.005 A 
ATOM     18  C   UNL     1      -1.870   3.111  12.093  0.00  0.00    -0.033 A 
ATOM     28  C   UNL     1      -0.417   3.071  12.085  0.00  0.00    +0.005 A 
ATOM     29  C   UNL     1       0.308   2.902  10.884  0.00  0.00    +0.013 A 
BRANCH  18  19
ATOM     19  C   UNL     1      -2.573   3.321  13.447  0.00  0.00    +0.119 C 
BRANCH  19  20
ATOM     20  N   UNL     1      -2.188   4.528  14.238  0.00  0.00    -0.302 NA
ATOM     21  C   UNL     1      -3.262   4.913  15.259  0.00  0.00    +0.066 C 
ATOM     22  C   UNL     1      -2.832   6.164  16.093  0.00  0.00    -0.064 C 
ATOM     23  N   UNL     1      -2.542   7.330  15.146  0.00  0.00    +0.379 N 
ATOM     24  C   UNL     1      -2.194   8.524  15.930  0.00  0.00    -0.096 C 
ATOM     25  H   UNL     1      -3.481   7.553  14.588  0.00  0.00    -0.082 HD
ATOM     26  C   UNL     1      -1.477   6.955  14.126  0.00  0.00    -0.064 C 
ATOM     27  C   UNL     1      -1.901   5.693  13.323  0.00  0.00    +0.066 C 
ENDBRANCH  19  20
ENDBRANCH  18  19
ENDBRANCH  14  15
ENDBRANCH  12  13
TORSDOF 6
ENDMDL
MODEL 2
REMARK VINA RESULT:     -11.4      2.220     13.163
REMARK  Name = C:\Users\Docking\Desktop\test protocol\1iep_ligandH.pdb
REMARK  8 active torsions:
REMARK  status: ('A' for Active; 'I' for Inactive)
REMARK    1  A    between atoms: _5  and  _11
REMARK    2  A    between atoms: _19  and  _21
REMARK    3  A    between atoms: _22  and  _66
REMARK    4  A    between atoms: _27  and  _30
REMARK    5  A    between atoms: _32  and  _33
REMARK    6  A    between atoms: _38  and  _43
REMARK    7  A    between atoms: _43  and  _46
REMARK    8  A    between atoms: _53  and  _55
REMARK                            x       y       z     vdW  Elec       q    Type
REMARK                         _______ _______ _______ _____ _____    ______ ____
ROOT
ATOM     10  C   UNL     1       1.692   4.165   8.615  0.00  0.00    +0.038 A 
ATOM     11  C   UNL     1       1.007   4.020   7.381  0.00  0.00    +0.047 A 
ATOM     12  C   UNL     1       1.551   3.200   6.310  0.00  0.00    +0.035 A 
ATOM     32  C   UNL     1       2.794   2.538   6.531  0.00  0.00    +0.024 A 
ATOM     33  C   UNL     1       3.504   2.675   7.778  0.00  0.00    +0.007 A 
ATOM     34  C   UNL     1       2.974   3.485   8.837  0.00  0.00    -0.029 A 
ATOM     35  C   UNL     1       3.782   3.602  10.150  0.00  0.00    +0.045 C 
ENDROOT
BRANCH  10   9
ATOM      4  C   UNL     1      -0.931   4.752  12.591  0.00  0.00    +0.077 A 
ATOM      5  C   UNL     1      -1.216   3.349  12.681  0.00  0.00    +0.048 A 
ATOM      6  C   UNL     1      -0.675   2.511  11.680  0.00  0.00    +0.116 A 
ATOM      7  N   UNL     1       0.093   3.047  10.670  0.00  0.00    -0.223 NA
ATOM      8  C   UNL     1       0.348   4.405  10.611  0.00  0.00    +0.220 A 
ATOM      9  N   UNL     1       1.124   4.965   9.609  0.00  0.00    -0.283 N 
ATOM     36  H   UNL     1       1.282   5.973   9.597  0.00  0.00    +0.155 HD
ATOM     37  N   UNL     1      -0.159   5.227  11.555  0.00  0.00    -0.214 NA
BRANCH   4   3
ATOM      1  C   UNL     1      -2.108   8.106  14.225  0.00  0.00    +0.020 A 
ATOM      2  C   UNL     1      -1.624   7.169  13.237  0.00  0.00    +0.013 A 
ATOM      3  C   UNL     1      -1.429   5.764  13.575  0.00  0.00    +0.019 A 
ATOM     38  C   UNL     1      -1.735   5.337  14.932  0.00  0.00    +0.120 A 
ATOM     39  N   UNL     1      -2.198   6.263  15.863  0.00  0.00    -0.263 NA
ATOM     40  C   UNL     1      -2.388   7.617  15.549  0.00  0.00    +0.111 A 
ENDBRANCH   4   3
ENDBRANCH  10   9
BRANCH  12  13
ATOM     13  N   UNL     1       0.904   3.022   5.034  0.00  0.00    -0.281 N 
ATOM     14  C   UNL     1       1.300   3.516   3.802  0.00  0.00    +0.248 C 
ATOM     30  O   UNL     1       2.160   4.370   3.645  0.00  0.00    -0.270 OA
ATOM     31  H   UNL     1       0.050   2.463   5.039  0.00  0.00    +0.155 HD
BRANCH  14  15
ATOM     15  C   UNL     1       0.635   2.998   2.568  0.00  0.00    +0.037 A 
ATOM     16  C   UNL     1       0.301   1.579   2.424  0.00  0.00    +0.013 A 
ATOM     17  C   UNL     1      -0.324   1.103   1.216  0.00  0.00    +0.005 A 
ATOM     18  C   UNL     1      -0.622   2.048   0.142  0.00  0.00    -0.033 A 
ATOM     28  C   UNL     1      -0.284   3.451   0.314  0.00  0.00    +0.005 A 
ATOM     29  C   UNL     1       0.330   3.922   1.496  0.00  0.00    +0.013 A 
BRANCH  18  19
ATOM     19  C   UNL     1      -1.269   1.625  -1.190  0.00  0.00    +0.119 C 
BRANCH  19  20
ATOM     20  N   UNL     1      -0.517   1.931  -2.443  0.00  0.00    -0.302 NA
ATOM     21  C   UNL     1      -1.228   1.389  -3.687  0.00  0.00    +0.066 C 
ATOM     22  C   UNL     1      -0.439   1.738  -4.991  0.00  0.00    -0.064 C 
ATOM     23  N   UNL     1       0.981   1.177  -4.890  0.00  0.00    +0.379 N 
ATOM     24  C   UNL     1       1.706   1.454  -6.139  0.00  0.00    -0.096 C 
ATOM     25  H   UNL     1       0.900   0.071  -4.784  0.00  0.00    -0.082 HD
ATOM     26  C   UNL     1       1.694   1.709  -3.655  0.00  0.00    -0.064 C 
ATOM     27  C   UNL     1       0.887   1.383  -2.368  0.00  0.00    +0.066 C 
ENDBRANCH  19  20
ENDBRANCH  18  19
ENDBRANCH  14  15
ENDBRANCH  12  13
TORSDOF 6
ENDMDL
MODEL 3
REMARK VINA RESULT:     -11.4      2.143     12.603
REMARK  Name = C:\Users\Docking\Desktop\test protocol\1iep_ligandH.pdb
REMARK  8 active torsions:
REMARK  status: ('A' for Active; 'I' for Inactive)
REMARK    1  A    between atoms: _5  and  _11
REMARK    2  A    between atoms: _19  and  _21
REMARK    3  A    between atoms: _22  and  _66
REMARK    4  A    between atoms: _27  and  _30
REMARK    5  A    between atoms: _32  and  _33
REMARK    6  A    between atoms: _38  and  _43
REMARK    7  A    between atoms: _43  and  _46
REMARK    8  A    between atoms: _53  and  _55
REMARK                            x       y       z     vdW  Elec       q    Type
REMARK                         _______ _______ _______ _____ _____    ______ ____
ROOT
ATOM     10  C   UNL     1       1.737   4.175   8.607  0.00  0.00    +0.038 A 
ATOM     11  C   UNL     1       1.042   4.038   7.378  0.00  0.00    +0.047 A 
ATOM     12  C   UNL     1       1.580   3.228   6.296  0.00  0.00    +0.035 A 
ATOM     32  C   UNL     1       2.827   2.569   6.501  0.00  0.00    +0.024 A 
ATOM     33  C   UNL     1       3.547   2.698   7.743  0.00  0.00    +0.007 A 
ATOM     34  C   UNL     1       3.023   3.498   8.813  0.00  0.00    -0.029 A 
ATOM     35  C   UNL     1       3.841   3.607  10.121  0.00  0.00    +0.045 C 
ENDROOT
BRANCH  10   9
ATOM      4  C   UNL     1      -0.916   4.731  12.567  0.00  0.00    +0.077 A 
ATOM      5  C   UNL     1      -1.230   3.332  12.624  0.00  0.00    +0.048 A 
ATOM      6  C   UNL     1      -0.695   2.505  11.611  0.00  0.00    +0.116 A 
ATOM      7  N   UNL     1       0.094   3.047  10.621  0.00  0.00    -0.223 NA
ATOM      8  C   UNL     1       0.377   4.401  10.594  0.00  0.00    +0.220 A 
ATOM      9  N   UNL     1       1.175   4.966   9.611  0.00  0.00    -0.283 N 
ATOM     36  H   UNL     1       1.354   5.970   9.623  0.00  0.00    +0.155 HD
ATOM     37  N   UNL     1      -0.123   5.212  11.549  0.00  0.00    -0.214 NA
BRANCH   4   3
ATOM      1  C   UNL     1      -2.103   8.061  14.243  0.00  0.00    +0.020 A 
ATOM      2  C   UNL     1      -1.630   7.134  13.240  0.00  0.00    +0.013 A 
ATOM      3  C   UNL     1      -1.404   5.732  13.568  0.00  0.00    +0.019 A 
ATOM     38  C   UNL     1      -1.668   5.296  14.931  0.00  0.00    +0.120 A 
ATOM     39  N   UNL     1      -2.121   6.211  15.876  0.00  0.00    -0.263 NA
ATOM     40  C   UNL     1      -2.341   7.563  15.572  0.00  0.00    +0.111 A 
ENDBRANCH   4   3
ENDBRANCH  10   9
BRANCH  12  13
ATOM     13  N   UNL     1       0.923   3.058   5.023  0.00  0.00    -0.281 N 
ATOM     14  C   UNL     1       1.343   3.508   3.782  0.00  0.00    +0.248 C 
ATOM     30  O   UNL     1       2.245   4.313   3.607  0.00  0.00    -0.270 OA
ATOM     31  H   UNL     1       0.043   2.544   5.040  0.00  0.00    +0.155 HD
BRANCH  14  15
ATOM     15  C   UNL     1       0.651   3.000   2.558  0.00  0.00    +0.037 A 
ATOM     16  C   UNL     1       0.292   1.586   2.420  0.00  0.00    +0.013 A 
ATOM     17  C   UNL     1      -0.359   1.119   1.222  0.00  0.00    +0.005 A 
ATOM     18  C   UNL     1      -0.658   2.069   0.153  0.00  0.00    -0.033 A 
ATOM     28  C   UNL     1      -0.296   3.467   0.319  0.00  0.00    +0.005 A 
ATOM     29  C   UNL     1       0.343   3.928   1.491  0.00  0.00    +0.013 A 
BRANCH  18  19
ATOM     19  C   UNL     1      -1.333   1.655  -1.169  0.00  0.00    +0.119 C 
BRANCH  19  20
ATOM     20  N   UNL     1      -2.441   2.521  -1.671  0.00  0.00    -0.302 NA
ATOM     21  C   UNL     1      -3.760   2.245  -0.943  0.00  0.00    +0.066 C 
ATOM     22  C   UNL     1      -4.903   3.175  -1.465  0.00  0.00    -0.064 C 
ATOM     23  N   UNL     1      -5.066   2.981  -2.974  0.00  0.00    +0.379 N 
ATOM     24  C   UNL     1      -6.179   3.811  -3.458  0.00  0.00    -0.096 C 
ATOM     25  H   UNL     1      -5.338   1.914  -3.150  0.00  0.00    -0.082 HD
ATOM     26  C   UNL     1      -3.759   3.250  -3.705  0.00  0.00    -0.064 C 
ATOM     27  C   UNL     1      -2.622   2.342  -3.158  0.00  0.00    +0.066 C 
ENDBRANCH  19  20
ENDBRANCH  18  19
ENDBRANCH  14  15
ENDBRANCH  12  13
TORSDOF 6
ENDMDL
MODEL 4
REMARK VINA RESULT:     -10.3      4.411     11.264
REMARK  Name = C:\Users\Docking\Desktop\test protocol\1iep_ligandH.pdb
REMARK  8 active torsions:
REMARK  status: ('A' for Active; 'I' for Inactive)
REMARK    1  A    between atoms: _5  and  _11
REMARK    2  A    between atoms: _19  and  _21
REMARK    3  A    between atoms: _22  and  _66
REMARK    4  A    between atoms: _27  and  _30
REMARK    5  A    between atoms: _32  and  _33
REMARK    6  A    between atoms: _38  and  _43
REMARK    7  A    between atoms: _43  and  _46
REMARK    8  A    between atoms: _53  and  _55
REMARK                            x       y       z     vdW  Elec       q    Type
REMARK                         _______ _______ _______ _____ _____    ______ ____
ROOT
ATOM     10  C   UNL     1       1.386   3.917   4.386  0.00  0.00    +0.038 A 
ATOM     11  C   UNL     1       0.224   3.433   3.733  0.00  0.00    +0.047 A 
ATOM     12  C   UNL     1       0.299   2.828   2.413  0.00  0.00    +0.035 A 
ATOM     32  C   UNL     1       1.576   2.729   1.787  0.00  0.00    +0.024 A 
ATOM     33  C   UNL     1       2.768   3.216   2.435  0.00  0.00    +0.007 A 
ATOM     34  C   UNL     1       2.699   3.816   3.737  0.00  0.00    -0.029 A 
ATOM     35  C   UNL     1       4.008   4.328   4.382  0.00  0.00    +0.045 C 
ENDROOT
BRANCH  10   9
ATOM      4  C   UNL     1       1.633   3.697   9.174  0.00  0.00    +0.077 A 
ATOM      5  C   UNL     1       2.030   2.319   9.150  0.00  0.00    +0.048 A 
ATOM      6  C   UNL     1       2.152   1.701   7.885  0.00  0.00    +0.116 A 
ATOM      7  N   UNL     1       1.894   2.418   6.737  0.00  0.00    -0.223 NA
ATOM      8  C   UNL     1       1.512   3.746   6.796  0.00  0.00    +0.220 A 
ATOM      9  N   UNL     1       1.256   4.489   5.653  0.00  0.00    -0.283 N 
ATOM     36  H   UNL     1       0.969   5.463   5.740  0.00  0.00    +0.155 HD
ATOM     37  N   UNL     1       1.387   4.358   7.992  0.00  0.00    -0.214 NA
BRANCH   4   3
ATOM      1  C   UNL     1       0.107   5.909  12.017  0.00  0.00    +0.020 A 
ATOM      2  C   UNL     1       0.218   5.156  10.789  0.00  0.00    +0.013 A 
ATOM      3  C   UNL     1       1.464   4.490  10.433  0.00  0.00    +0.019 A 
ATOM     38  C   UNL     1       2.588   4.604  11.350  0.00  0.00    +0.120 A 
ATOM     39  N   UNL     1       2.453   5.337  12.525  0.00  0.00    -0.263 NA
ATOM     40  C   UNL     1       1.258   5.984  12.877  0.00  0.00    +0.111 A 
ENDBRANCH   4   3
ENDBRANCH  10   9
BRANCH  12  13
ATOM     13  N   UNL     1      -0.848   2.326   1.697  0.00  0.00    -0.281 N 
ATOM     14  C   UNL     1      -1.003   1.088   1.096  0.00  0.00    +0.248 C 
ATOM     30  O   UNL     1      -0.092   0.298   0.898  0.00  0.00    -0.270 OA
ATOM     31  H   UNL     1      -1.643   2.962   1.625  0.00  0.00    +0.155 HD
BRANCH  14  15
ATOM     15  C   UNL     1      -2.363   0.673   0.636  0.00  0.00    +0.037 A 
ATOM     16  C   UNL     1      -2.656  -0.720   0.289  0.00  0.00    +0.013 A 
ATOM     17  C   UNL     1      -3.972  -1.090  -0.168  0.00  0.00    +0.005 A 
ATOM     18  C   UNL     1      -5.006  -0.064  -0.280  0.00  0.00    -0.033 A 
ATOM     28  C   UNL     1      -4.689   1.309   0.076  0.00  0.00    +0.005 A 
ATOM     29  C   UNL     1      -3.400   1.676   0.524  0.00  0.00    +0.013 A 
BRANCH  18  19
ATOM     19  C   UNL     1      -6.431  -0.365  -0.779  0.00  0.00    +0.119 C 
BRANCH  19  20
ATOM     20  N   UNL     1      -7.523  -0.384   0.240  0.00  0.00    -0.302 NA
ATOM     21  C   UNL     1      -8.157   0.997   0.429  0.00  0.00    +0.066 C 
ATOM     22  C   UNL     1      -9.311   0.954   1.482  0.00  0.00    -0.064 C 
ATOM     23  N   UNL     1      -8.768   0.421   2.809  0.00  0.00    +0.379 N 
ATOM     24  C   UNL     1      -9.838   0.433   3.818  0.00  0.00    -0.096 C 
ATOM     25  H   UNL     1      -7.971   1.119   3.153  0.00  0.00    -0.082 HD
ATOM     26  C   UNL     1      -8.134  -0.951   2.629  0.00  0.00    -0.064 C 
ATOM     27  C   UNL     1      -7.008  -0.904   1.559  0.00  0.00    +0.066 C 
ENDBRANCH  19  20
ENDBRANCH  18  19
ENDBRANCH  14  15
ENDBRANCH  12  13
TORSDOF 6
ENDMDL
MODEL 5
REMARK VINA RESULT:     -10.1      6.068     15.122
REMARK  Name = C:\Users\Docking\Desktop\test protocol\1iep_ligandH.pdb
REMARK  8 active torsions:
REMARK  status: ('A' for Active; 'I' for Inactive)
REMARK    1  A    between atoms: _5  and  _11
REMARK    2  A    between atoms: _19  and  _21
REMARK    3  A    between atoms: _22  and  _66
REMARK    4  A    between atoms: _27  and  _30
REMARK    5  A    between atoms: _32  and  _33
REMARK    6  A    between atoms: _38  and  _43
REMARK    7  A    between atoms: _43  and  _46
REMARK    8  A    between atoms: _53  and  _55
REMARK                            x       y       z     vdW  Elec       q    Type
REMARK                         _______ _______ _______ _____ _____    ______ ____
ROOT
ATOM     10  C   UNL     1      -5.765   2.564  17.238  0.00  0.00    +0.038 A 
ATOM     11  C   UNL     1      -5.154   2.486  15.960  0.00  0.00    +0.047 A 
ATOM     12  C   UNL     1      -4.783   3.687  15.228  0.00  0.00    +0.035 A 
ATOM     32  C   UNL     1      -5.048   4.952  15.829  0.00  0.00    +0.024 A 
ATOM     33  C   UNL     1      -5.670   5.051  17.126  0.00  0.00    +0.007 A 
ATOM     34  C   UNL     1      -6.039   3.869  17.851  0.00  0.00    -0.029 A 
ATOM     35  C   UNL     1      -6.709   4.034  19.236  0.00  0.00    +0.045 C 
ENDROOT
BRANCH  10   9
ATOM      4  C   UNL     1      -8.719  -1.126  18.071  0.00  0.00    +0.077 A 
ATOM      5  C   UNL     1      -9.690  -0.637  17.135  0.00  0.00    +0.048 A 
ATOM      6  C   UNL     1      -9.394   0.572  16.465  0.00  0.00    +0.116 A 
ATOM      7  N   UNL     1      -8.212   1.233  16.720  0.00  0.00    -0.223 NA
ATOM      8  C   UNL     1      -7.298   0.735  17.630  0.00  0.00    +0.220 A 
ATOM      9  N   UNL     1      -6.100   1.379  17.896  0.00  0.00    -0.283 N 
ATOM     36  H   UNL     1      -5.455   0.983  18.580  0.00  0.00    +0.155 HD
ATOM     37  N   UNL     1      -7.558  -0.417  18.284  0.00  0.00    -0.214 NA
BRANCH   4   3
ATOM      1  C   UNL     1      -8.689  -3.754  20.968  0.00  0.00    +0.020 A 
ATOM      2  C   UNL     1      -8.507  -2.510  20.257  0.00  0.00    +0.013 A 
ATOM      3  C   UNL     1      -8.886  -2.391  18.855  0.00  0.00    +0.019 A 
ATOM     38  C   UNL     1      -9.452  -3.558  18.196  0.00  0.00    +0.120 A 
ATOM     39  N   UNL     1      -9.615  -4.744  18.906  0.00  0.00    -0.263 NA
ATOM     40  C   UNL     1      -9.252  -4.871  20.255  0.00  0.00    +0.111 A 
ENDBRANCH   4   3
ENDBRANCH  10   9
BRANCH  12  13
ATOM     13  N   UNL     1      -4.167   3.670  13.925  0.00  0.00    -0.281 N 
ATOM     14  C   UNL     1      -2.831   3.858  13.612  0.00  0.00    +0.248 C 
ATOM     30  O   UNL     1      -1.992   4.284  14.391  0.00  0.00    -0.270 OA
ATOM     31  H   UNL     1      -4.792   3.497  13.137  0.00  0.00    +0.155 HD
BRANCH  14  15
ATOM     15  C   UNL     1      -2.362   3.540  12.229  0.00  0.00    +0.037 A 
ATOM     16  C   UNL     1      -3.263   2.945  11.238  0.00  0.00    +0.013 A 
ATOM     17  C   UNL     1      -2.780   2.633   9.917  0.00  0.00    +0.005 A 
ATOM     18  C   UNL     1      -1.388   2.917   9.577  0.00  0.00    -0.033 A 
ATOM     28  C   UNL     1      -0.517   3.513  10.577  0.00  0.00    +0.005 A 
ATOM     29  C   UNL     1      -0.987   3.820  11.874  0.00  0.00    +0.013 A 
BRANCH  18  19
ATOM     19  C   UNL     1      -0.781   2.598   8.198  0.00  0.00    +0.119 C 
BRANCH  19  20
ATOM     20  N   UNL     1       0.667   2.905   8.000  0.00  0.00    -0.302 NA
ATOM     21  C   UNL     1       0.926   3.616   6.668  0.00  0.00    +0.066 C 
ATOM     22  C   UNL     1       2.443   3.950   6.488  0.00  0.00    -0.064 C 
ATOM     23  N   UNL     1       3.261   2.661   6.582  0.00  0.00    +0.379 N 
ATOM     24  C   UNL     1       4.682   2.964   6.355  0.00  0.00    -0.096 C 
ATOM     25  H   UNL     1       2.924   1.985   5.762  0.00  0.00    -0.082 HD
ATOM     26  C   UNL     1       3.007   1.946   7.902  0.00  0.00    -0.064 C 
ATOM     27  C   UNL     1       1.493   1.645   8.085  0.00  0.00    +0.066 C 
ENDBRANCH  19  20
ENDBRANCH  18  19
ENDBRANCH  14  15
ENDBRANCH  12  13
TORSDOF 6
ENDMDL
