MODEL 1
REMARK VINA RESULT:      -8.6      0.000      0.000
REMARK  Name = C:\Users\Docking\Desktop\test protocol\1iep_ligandH.pdb
REMARK  8 active torsions:
REMARK  status: ('A' for Active; 'I' for Inactive)
REMARK    1  A    between atoms: _5  and  _11
REMARK    2  A    between atoms: _19  and  _21
REMARK    3  A    between atoms: _22  and  _66
REMARK    4  A    between atoms: _27  and  _30
REMARK    5  A    between atoms: _32  and  _33
REMARK    6  A    between atoms: _38  and  _43
REMARK    7  A    between atoms: _43  and  _46
REMARK    8  A    between atoms: _53  and  _55
REMARK                            x       y       z     vdW  Elec       q    Type
REMARK                         _______ _______ _______ _____ _____    ______ ____
ROOT
ATOM     10  C   UNL     1      16.264  26.765  37.498  0.00  0.00    +0.038 A 
ATOM     11  C   UNL     1      16.663  25.809  38.466  0.00  0.00    +0.047 A 
ATOM     12  C   UNL     1      15.803  24.690  38.819  0.00  0.00    +0.035 A 
ATOM     32  C   UNL     1      14.543  24.574  38.163  0.00  0.00    +0.024 A 
ATOM     33  C   UNL     1      14.120  25.537  37.177  0.00  0.00    +0.007 A 
ATOM     34  C   UNL     1      14.964  26.644  36.827  0.00  0.00    -0.029 A 
ATOM     35  C   UNL     1      14.457  27.650  35.767  0.00  0.00    +0.045 C 
ENDROOT
BRANCH  10   9
ATOM      4  C   UNL     1      20.308  28.509  35.591  0.00  0.00    +0.077 A 
ATOM      5  C   UNL     1      20.747  27.206  35.182  0.00  0.00    +0.048 A 
ATOM      6  C   UNL     1      19.906  26.112  35.487  0.00  0.00    +0.116 A 
ATOM      7  N   UNL     1      18.717  26.318  36.153  0.00  0.00    -0.223 NA
ATOM      8  C   UNL     1      18.325  27.588  36.535  0.00  0.00    +0.220 A 
ATOM      9  N   UNL     1      17.129  27.819  37.198  0.00  0.00    -0.283 N 
ATOM     36  H   UNL     1      16.879  28.769  37.469  0.00  0.00    +0.155 HD
ATOM     37  N   UNL     1      19.111  28.648  36.256  0.00  0.00    -0.214 NA
BRANCH   4   3
ATOM      1  C   UNL     1      22.430  31.754  36.107  0.00  0.00    +0.020 A 
ATOM      2  C   UNL     1      21.689  30.550  36.406  0.00  0.00    +0.013 A 
ATOM      3  C   UNL     1      21.085  29.763  35.338  0.00  0.00    +0.019 A 
ATOM     38  C   UNL     1      21.251  30.225  33.968  0.00  0.00    +0.120 A 
ATOM     39  N   UNL     1      21.969  31.389  33.711  0.00  0.00    -0.263 NA
ATOM     40  C   UNL     1      22.553  32.156  34.730  0.00  0.00    +0.111 A 
ENDBRANCH   4   3
ENDBRANCH  10   9
BRANCH  12  13
ATOM     13  N   UNL     1      16.152  23.693  39.800  0.00  0.00    -0.281 N 
ATOM     14  C   UNL     1      17.182  22.768  39.746  0.00  0.00    +0.248 C 
ATOM     30  O   UNL     1      17.833  22.516  38.743  0.00  0.00    -0.270 OA
ATOM     31  H   UNL     1      15.568  23.665  40.637  0.00  0.00    +0.155 HD
BRANCH  14  15
ATOM     15  C   UNL     1      17.531  22.003  40.982  0.00  0.00    +0.037 A 
ATOM     16  C   UNL     1      18.789  21.259  41.085  0.00  0.00    +0.013 A 
ATOM     17  C   UNL     1      19.093  20.515  42.281  0.00  0.00    +0.005 A 
ATOM     18  C   UNL     1      18.136  20.512  43.386  0.00  0.00    -0.033 A 
ATOM     28  C   UNL     1      16.898  21.263  43.259  0.00  0.00    +0.005 A 
ATOM     29  C   UNL     1      16.596  21.993  42.087  0.00  0.00    +0.013 A 
BRANCH  18  19
ATOM     19  C   UNL     1      18.368  19.729  44.691  0.00  0.00    +0.119 C 
BRANCH  19  20
ATOM     20  N   UNL     1      17.638  18.436  44.852  0.00  0.00    -0.302 NA
ATOM     21  C   UNL     1      17.468  18.051  46.324  0.00  0.00    +0.066 C 
ATOM     22  C   UNL     1      16.682  16.708  46.474  0.00  0.00    -0.064 C 
ATOM     23  N   UNL     1      17.413  15.604  45.708  0.00  0.00    +0.379 N 
ATOM     24  C   UNL     1      16.709  14.328  45.895  0.00  0.00    -0.096 C 
ATOM     25  H   UNL     1      18.429  15.499  46.154  0.00  0.00    -0.082 HD
ATOM     26  C   UNL     1      17.589  15.980  44.243  0.00  0.00    -0.064 C 
ATOM     27  C   UNL     1      18.345  17.331  44.106  0.00  0.00    +0.066 C 
ENDBRANCH  19  20
ENDBRANCH  18  19
ENDBRANCH  14  15
ENDBRANCH  12  13
TORSDOF 6
ENDMDL
MODEL 2
REMARK VINA RESULT:      -8.6      9.348     13.406
REMARK  Name = C:\Users\Docking\Desktop\test protocol\1iep_ligandH.pdb
REMARK  8 active torsions:
REMARK  status: ('A' for Active; 'I' for Inactive)
REMARK    1  A    between atoms: _5  and  _11
REMARK    2  A    between atoms: _19  and  _21
REMARK    3  A    between atoms: _22  and  _66
REMARK    4  A    between atoms: _27  and  _30
REMARK    5  A    between atoms: _32  and  _33
REMARK    6  A    between atoms: _38  and  _43
REMARK    7  A    between atoms: _43  and  _46
REMARK    8  A    between atoms: _53  and  _55
REMARK                            x       y       z     vdW  Elec       q    Type
REMARK                         _______ _______ _______ _____ _____    ______ ____
ROOT
ATOM     10  C   UNL     1      22.496  16.045  33.962  0.00  0.00    +0.038 A 
ATOM     11  C   UNL     1      21.708  17.100  34.492  0.00  0.00    +0.047 A 
ATOM     12  C   UNL     1      22.157  17.870  35.641  0.00  0.00    +0.035 A 
ATOM     32  C   UNL     1      23.415  17.542  36.225  0.00  0.00    +0.024 A 
ATOM     33  C   UNL     1      24.228  16.472  35.700  0.00  0.00    +0.007 A 
ATOM     34  C   UNL     1      23.789  15.707  34.568  0.00  0.00    -0.029 A 
ATOM     35  C   UNL     1      24.698  14.568  34.052  0.00  0.00    +0.045 C 
ENDROOT
BRANCH  10   9
ATOM      4  C   UNL     1      19.972  12.466  31.997  0.00  0.00    +0.077 A 
ATOM      5  C   UNL     1      19.600  11.945  33.281  0.00  0.00    +0.048 A 
ATOM      6  C   UNL     1      20.085  12.623  34.422  0.00  0.00    +0.116 A 
ATOM      7  N   UNL     1      20.881  13.739  34.278  0.00  0.00    -0.223 NA
ATOM      8  C   UNL     1      21.223  14.214  33.026  0.00  0.00    +0.220 A 
ATOM      9  N   UNL     1      22.016  15.338  32.857  0.00  0.00    -0.283 N 
ATOM     36  H   UNL     1      22.252  15.653  31.916  0.00  0.00    +0.155 HD
ATOM     37  N   UNL     1      20.774  13.583  31.920  0.00  0.00    -0.214 NA
BRANCH   4   3
ATOM      1  C   UNL     1      19.885  11.306  28.263  0.00  0.00    +0.020 A 
ATOM      2  C   UNL     1      20.352  11.906  29.492  0.00  0.00    +0.013 A 
ATOM      3  C   UNL     1      19.536  11.863  30.699  0.00  0.00    +0.019 A 
ATOM     38  C   UNL     1      18.243  11.200  30.628  0.00  0.00    +0.120 A 
ATOM     39  N   UNL     1      17.818  10.633  29.430  0.00  0.00    -0.263 NA
ATOM     40  C   UNL     1      18.594  10.670  28.262  0.00  0.00    +0.111 A 
ENDBRANCH   4   3
ENDBRANCH  10   9
BRANCH  12  13
ATOM     13  N   UNL     1      21.397  18.946  36.227  0.00  0.00    -0.281 N 
ATOM     14  C   UNL     1      21.139  19.174  37.569  0.00  0.00    +0.248 C 
ATOM     30  O   UNL     1      21.344  18.363  38.460  0.00  0.00    -0.270 OA
ATOM     31  H   UNL     1      21.002  19.622  35.573  0.00  0.00    +0.155 HD
BRANCH  14  15
ATOM     15  C   UNL     1      20.554  20.487  37.979  0.00  0.00    +0.037 A 
ATOM     16  C   UNL     1      21.390  21.683  38.111  0.00  0.00    +0.013 A 
ATOM     17  C   UNL     1      20.804  22.933  38.525  0.00  0.00    +0.005 A 
ATOM     18  C   UNL     1      19.372  22.993  38.808  0.00  0.00    -0.033 A 
ATOM     28  C   UNL     1      18.565  21.793  38.664  0.00  0.00    +0.005 A 
ATOM     29  C   UNL     1      19.136  20.565  38.260  0.00  0.00    +0.013 A 
BRANCH  18  19
ATOM     19  C   UNL     1      18.665  24.280  39.276  0.00  0.00    +0.119 C 
BRANCH  19  20
ATOM     20  N   UNL     1      17.505  24.755  38.465  0.00  0.00    -0.302 NA
ATOM     21  C   UNL     1      17.798  26.088  37.770  0.00  0.00    +0.066 C 
ATOM     22  C   UNL     1      16.581  26.560  36.908  0.00  0.00    -0.064 C 
ATOM     23  N   UNL     1      15.343  26.674  37.799  0.00  0.00    +0.379 N 
ATOM     24  C   UNL     1      14.211  27.173  37.004  0.00  0.00    -0.096 C 
ATOM     25  H   UNL     1      15.562  27.431  38.587  0.00  0.00    -0.082 HD
ATOM     26  C   UNL     1      15.046  25.354  38.496  0.00  0.00    -0.064 C 
ATOM     27  C   UNL     1      16.272  24.879  39.326  0.00  0.00    +0.066 C 
ENDBRANCH  19  20
ENDBRANCH  18  19
ENDBRANCH  14  15
ENDBRANCH  12  13
TORSDOF 6
ENDMDL
MODEL 3
REMARK VINA RESULT:      -8.3      6.099      7.842
REMARK  Name = C:\Users\Docking\Desktop\test protocol\1iep_ligandH.pdb
REMARK  8 active torsions:
REMARK  status: ('A' for Active; 'I' for Inactive)
REMARK    1  A    between atoms: _5  and  _11
REMARK    2  A    between atoms: _19  and  _21
REMARK    3  A    between atoms: _22  and  _66
REMARK    4  A    between atoms: _27  and  _30
REMARK    5  A    between atoms: _32  and  _33
REMARK    6  A    between atoms: _38  and  _43
REMARK    7  A    between atoms: _43  and  _46
REMARK    8  A    between atoms: _53  and  _55
REMARK                            x       y       z     vdW  Elec       q    Type
REMARK                         _______ _______ _______ _____ _____    ______ ____
ROOT
ATOM     10  C   UNL     1      17.744  24.363  39.160  0.00  0.00    +0.038 A 
ATOM     11  C   UNL     1      18.648  23.566  38.412  0.00  0.00    +0.047 A 
ATOM     12  C   UNL     1      18.935  22.193  38.795  0.00  0.00    +0.035 A 
ATOM     32  C   UNL     1      18.281  21.661  39.944  0.00  0.00    +0.024 A 
ATOM     33  C   UNL     1      17.360  22.457  40.717  0.00  0.00    +0.007 A 
ATOM     34  C   UNL     1      17.075  23.813  40.346  0.00  0.00    -0.029 A 
ATOM     35  C   UNL     1      16.084  24.622  41.215  0.00  0.00    +0.045 C 
ENDROOT
BRANCH  10   9
ATOM      4  C   UNL     1      15.102  27.678  36.910  0.00  0.00    +0.077 A 
ATOM      5  C   UNL     1      14.128  26.708  36.498  0.00  0.00    +0.048 A 
ATOM      6  C   UNL     1      14.348  25.366  36.880  0.00  0.00    +0.116 A 
ATOM      7  N   UNL     1      15.462  25.030  37.619  0.00  0.00    -0.223 NA
ATOM      8  C   UNL     1      16.382  25.990  37.998  0.00  0.00    +0.220 A 
ATOM      9  N   UNL     1      17.505  25.676  38.748  0.00  0.00    -0.283 N 
ATOM     36  H   UNL     1      18.164  26.411  39.001  0.00  0.00    +0.155 HD
ATOM     37  N   UNL     1      16.196  27.278  37.645  0.00  0.00    -0.214 NA
BRANCH   4   3
ATOM      1  C   UNL     1      13.711  31.278  36.271  0.00  0.00    +0.020 A 
ATOM      2  C   UNL     1      13.747  29.869  36.589  0.00  0.00    +0.013 A 
ATOM      3  C   UNL     1      15.008  29.137  36.587  0.00  0.00    +0.019 A 
ATOM     38  C   UNL     1      16.223  29.866  36.255  0.00  0.00    +0.120 A 
ATOM     39  N   UNL     1      16.157  31.222  35.950  0.00  0.00    -0.263 NA
ATOM     40  C   UNL     1      14.950  31.936  35.948  0.00  0.00    +0.111 A 
ENDBRANCH   4   3
ENDBRANCH  10   9
BRANCH  12  13
ATOM     13  N   UNL     1      19.849  21.339  38.078  0.00  0.00    -0.281 N 
ATOM     14  C   UNL     1      21.234  21.374  38.090  0.00  0.00    +0.248 C 
ATOM     30  O   UNL     1      21.898  22.288  38.556  0.00  0.00    -0.270 OA
ATOM     31  H   UNL     1      19.424  20.621  37.491  0.00  0.00    +0.155 HD
BRANCH  14  15
ATOM     15  C   UNL     1      21.991  20.236  37.484  0.00  0.00    +0.037 A 
ATOM     16  C   UNL     1      23.403  20.008  37.801  0.00  0.00    +0.013 A 
ATOM     17  C   UNL     1      24.114  18.913  37.189  0.00  0.00    +0.005 A 
ATOM     18  C   UNL     1      23.411  18.036  36.256  0.00  0.00    -0.033 A 
ATOM     28  C   UNL     1      22.009  18.282  35.964  0.00  0.00    +0.005 A 
ATOM     29  C   UNL     1      21.309  19.354  36.560  0.00  0.00    +0.013 A 
BRANCH  18  19
ATOM     19  C   UNL     1      24.096  16.856  35.541  0.00  0.00    +0.119 C 
BRANCH  19  20
ATOM     20  N   UNL     1      23.222  15.738  35.076  0.00  0.00    -0.302 NA
ATOM     21  C   UNL     1      23.492  14.441  35.844  0.00  0.00    +0.066 C 
ATOM     22  C   UNL     1      22.553  13.288  35.361  0.00  0.00    -0.064 C 
ATOM     23  N   UNL     1      22.742  13.076  33.858  0.00  0.00    +0.379 N 
ATOM     24  C   UNL     1      21.904  11.954  33.411  0.00  0.00    -0.096 C 
ATOM     25  H   UNL     1      23.807  12.792  33.688  0.00  0.00    -0.082 HD
ATOM     26  C   UNL     1      22.479  14.362  33.087  0.00  0.00    -0.064 C 
ATOM     27  C   UNL     1      23.396  15.509  33.595  0.00  0.00    +0.066 C 
ENDBRANCH  19  20
ENDBRANCH  18  19
ENDBRANCH  14  15
ENDBRANCH  12  13
TORSDOF 6
ENDMDL
MODEL 4
REMARK VINA RESULT:      -8.3      9.613     13.562
REMARK  Name = C:\Users\Docking\Desktop\test protocol\1iep_ligandH.pdb
REMARK  8 active torsions:
REMARK  status: ('A' for Active; 'I' for Inactive)
REMARK    1  A    between atoms: _5  and  _11
REMARK    2  A    between atoms: _19  and  _21
REMARK    3  A    between atoms: _22  and  _66
REMARK    4  A    between atoms: _27  and  _30
REMARK    5  A    between atoms: _32  and  _33
REMARK    6  A    between atoms: _38  and  _43
REMARK    7  A    between atoms: _43  and  _46
REMARK    8  A    between atoms: _53  and  _55
REMARK                            x       y       z     vdW  Elec       q    Type
REMARK                         _______ _______ _______ _____ _____    ______ ____
ROOT
ATOM     10  C   UNL     1      22.369  15.416  33.792  0.00  0.00    +0.038 A 
ATOM     11  C   UNL     1      21.730  16.486  34.469  0.00  0.00    +0.047 A 
ATOM     12  C   UNL     1      22.328  17.094  35.648  0.00  0.00    +0.035 A 
ATOM     32  C   UNL     1      23.579  16.589  36.108  0.00  0.00    +0.024 A 
ATOM     33  C   UNL     1      24.242  15.502  35.432  0.00  0.00    +0.007 A 
ATOM     34  C   UNL     1      23.656  14.896  34.271  0.00  0.00    -0.029 A 
ATOM     35  C   UNL     1      24.408  13.729  33.590  0.00  0.00    +0.045 C 
ENDROOT
BRANCH  10   9
ATOM      4  C   UNL     1      19.315  12.358  31.705  0.00  0.00    +0.077 A 
ATOM      5  C   UNL     1      18.939  11.782  32.964  0.00  0.00    +0.048 A 
ATOM      6  C   UNL     1      19.560  12.297  34.124  0.00  0.00    +0.116 A 
ATOM      7  N   UNL     1      20.486  13.312  34.021  0.00  0.00    -0.223 NA
ATOM      8  C   UNL     1      20.828  13.844  32.791  0.00  0.00    +0.220 A 
ATOM      9  N   UNL     1      21.751  14.870  32.665  0.00  0.00    -0.283 N 
ATOM     36  H   UNL     1      21.981  15.230  31.739  0.00  0.00    +0.155 HD
ATOM     37  N   UNL     1      20.250  13.369  31.669  0.00  0.00    -0.214 NA
BRANCH   4   3
ATOM      1  C   UNL     1      17.671  10.219  28.873  0.00  0.00    +0.020 A 
ATOM      2  C   UNL     1      18.211  10.588  30.161  0.00  0.00    +0.013 A 
ATOM      3  C   UNL     1      18.744  11.925  30.391  0.00  0.00    +0.019 A 
ATOM     38  C   UNL     1      18.714  12.873  29.288  0.00  0.00    +0.120 A 
ATOM     39  N   UNL     1      18.189  12.490  28.058  0.00  0.00    -0.263 NA
ATOM     40  C   UNL     1      17.675  11.205  27.824  0.00  0.00    +0.111 A 
ENDBRANCH   4   3
ENDBRANCH  10   9
BRANCH  12  13
ATOM     13  N   UNL     1      21.722  18.178  36.382  0.00  0.00    -0.281 N 
ATOM     14  C   UNL     1      22.338  19.303  36.904  0.00  0.00    +0.248 C 
ATOM     30  O   UNL     1      23.548  19.444  37.004  0.00  0.00    -0.270 OA
ATOM     31  H   UNL     1      20.716  18.106  36.535  0.00  0.00    +0.155 HD
BRANCH  14  15
ATOM     15  C   UNL     1      21.488  20.428  37.399  0.00  0.00    +0.037 A 
ATOM     16  C   UNL     1      21.988  21.805  37.422  0.00  0.00    +0.013 A 
ATOM     17  C   UNL     1      21.154  22.869  37.921  0.00  0.00    +0.005 A 
ATOM     18  C   UNL     1      19.809  22.560  38.400  0.00  0.00    -0.033 A 
ATOM     28  C   UNL     1      19.336  21.186  38.361  0.00  0.00    +0.005 A 
ATOM     29  C   UNL     1      20.152  20.140  37.874  0.00  0.00    +0.013 A 
BRANCH  18  19
ATOM     19  C   UNL     1      18.857  23.629  38.969  0.00  0.00    +0.119 C 
BRANCH  19  20
ATOM     20  N   UNL     1      17.707  24.046  38.112  0.00  0.00    -0.302 NA
ATOM     21  C   UNL     1      17.791  25.524  37.719  0.00  0.00    +0.066 C 
ATOM     22  C   UNL     1      16.592  25.938  36.804  0.00  0.00    -0.064 C 
ATOM     23  N   UNL     1      15.277  25.644  37.528  0.00  0.00    +0.379 N 
ATOM     24  C   UNL     1      14.149  26.085  36.694  0.00  0.00    -0.096 C 
ATOM     25  H   UNL     1      15.264  26.249  38.464  0.00  0.00    -0.082 HD
ATOM     26  C   UNL     1      15.187  24.177  37.925  0.00  0.00    -0.064 C 
ATOM     27  C   UNL     1      16.398  23.769  38.809  0.00  0.00    +0.066 C 
ENDBRANCH  19  20
ENDBRANCH  18  19
ENDBRANCH  14  15
ENDBRANCH  12  13
TORSDOF 6
ENDMDL
MODEL 5
REMARK VINA RESULT:      -8.2      9.547     13.828
REMARK  Name = C:\Users\Docking\Desktop\test protocol\1iep_ligandH.pdb
REMARK  8 active torsions:
REMARK  status: ('A' for Active; 'I' for Inactive)
REMARK    1  A    between atoms: _5  and  _11
REMARK    2  A    between atoms: _19  and  _21
REMARK    3  A    between atoms: _22  and  _66
REMARK    4  A    between atoms: _27  and  _30
REMARK    5  A    between atoms: _32  and  _33
REMARK    6  A    between atoms: _38  and  _43
REMARK    7  A    between atoms: _43  and  _46
REMARK    8  A    between atoms: _53  and  _55
REMARK                            x       y       z     vdW  Elec       q    Type
REMARK                         _______ _______ _______ _____ _____    ______ ____
ROOT
ATOM     10  C   UNL     1      22.398  15.694  33.830  0.00  0.00    +0.038 A 
ATOM     11  C   UNL     1      21.701  16.826  34.325  0.00  0.00    +0.047 A 
ATOM     12  C   UNL     1      22.183  17.557  35.486  0.00  0.00    +0.035 A 
ATOM     32  C   UNL     1      23.381  17.110  36.117  0.00  0.00    +0.024 A 
ATOM     33  C   UNL     1      24.101  15.961  35.628  0.00  0.00    +0.007 A 
ATOM     34  C   UNL     1      23.629  15.234  34.485  0.00  0.00    -0.029 A 
ATOM     35  C   UNL     1      24.438  14.005  34.007  0.00  0.00    +0.045 C 
ENDROOT
BRANCH  10   9
ATOM      4  C   UNL     1      19.612  12.359  31.793  0.00  0.00    +0.077 A 
ATOM      5  C   UNL     1      19.149  11.883  33.065  0.00  0.00    +0.048 A 
ATOM      6  C   UNL     1      19.658  12.519  34.220  0.00  0.00    +0.116 A 
ATOM      7  N   UNL     1      20.561  13.553  34.099  0.00  0.00    -0.223 NA
ATOM      8  C   UNL     1      20.988  13.986  32.857  0.00  0.00    +0.220 A 
ATOM      9  N   UNL     1      21.890  15.029  32.712  0.00  0.00    -0.283 N 
ATOM     36  H   UNL     1      22.185  15.314  31.779  0.00  0.00    +0.155 HD
ATOM     37  N   UNL     1      20.518  13.394  31.739  0.00  0.00    -0.214 NA
BRANCH   4   3
ATOM      1  C   UNL     1      19.357  11.514  27.982  0.00  0.00    +0.020 A 
ATOM      2  C   UNL     1      19.829  12.089  29.220  0.00  0.00    +0.013 A 
ATOM      3  C   UNL     1      19.163  11.791  30.482  0.00  0.00    +0.019 A 
ATOM     38  C   UNL     1      18.014  10.899  30.456  0.00  0.00    +0.120 A 
ATOM     39  N   UNL     1      17.580  10.362  29.248  0.00  0.00    -0.263 NA
ATOM     40  C   UNL     1      18.212  10.643  28.028  0.00  0.00    +0.111 A 
ENDBRANCH   4   3
ENDBRANCH  10   9
BRANCH  12  13
ATOM     13  N   UNL     1      21.514  18.709  36.039  0.00  0.00    -0.281 N 
ATOM     14  C   UNL     1      21.326  19.025  37.375  0.00  0.00    +0.248 C 
ATOM     30  O   UNL     1      21.520  18.252  38.302  0.00  0.00    -0.270 OA
ATOM     31  H   UNL     1      21.132  19.371  35.364  0.00  0.00    +0.155 HD
BRANCH  14  15
ATOM     15  C   UNL     1      20.838  20.392  37.732  0.00  0.00    +0.037 A 
ATOM     16  C   UNL     1      21.734  21.551  37.700  0.00  0.00    +0.013 A 
ATOM     17  C   UNL     1      21.242  22.855  38.066  0.00  0.00    +0.005 A 
ATOM     18  C   UNL     1      19.845  23.008  38.464  0.00  0.00    -0.033 A 
ATOM     28  C   UNL     1      18.977  21.842  38.482  0.00  0.00    +0.005 A 
ATOM     29  C   UNL     1      19.456  20.562  38.125  0.00  0.00    +0.013 A 
BRANCH  18  19
ATOM     19  C   UNL     1      19.240  24.359  38.891  0.00  0.00    +0.119 C 
BRANCH  19  20
ATOM     20  N   UNL     1      18.977  25.360  37.814  0.00  0.00    -0.302 NA
ATOM     21  C   UNL     1      18.315  24.725  36.588  0.00  0.00    +0.066 C 
ATOM     22  C   UNL     1      18.027  25.791  35.481  0.00  0.00    -0.064 C 
ATOM     23  N   UNL     1      19.334  26.485  35.093  0.00  0.00    +0.379 N 
ATOM     24  C   UNL     1      19.076  27.447  34.012  0.00  0.00    -0.096 C 
ATOM     25  H   UNL     1      20.025  25.706  34.695  0.00  0.00    -0.082 HD
ATOM     26  C   UNL     1      20.000  27.117  36.307  0.00  0.00    -0.064 C 
ATOM     27  C   UNL     1      20.255  26.055  37.413  0.00  0.00    +0.066 C 
ENDBRANCH  19  20
ENDBRANCH  18  19
ENDBRANCH  14  15
ENDBRANCH  12  13
TORSDOF 6
ENDMDL
