MODEL 1
REMARK VINA RESULT:      -6.3      0.000      0.000
REMARK  Name = C:\Users\Docking\Desktop\test protocol\1iep_ligandH.pdb
REMARK  8 active torsions:
REMARK  status: ('A' for Active; 'I' for Inactive)
REMARK    1  A    between atoms: _5  and  _11
REMARK    2  A    between atoms: _19  and  _21
REMARK    3  A    between atoms: _22  and  _66
REMARK    4  A    between atoms: _27  and  _30
REMARK    5  A    between atoms: _32  and  _33
REMARK    6  A    between atoms: _38  and  _43
REMARK    7  A    between atoms: _43  and  _46
REMARK    8  A    between atoms: _53  and  _55
REMARK                            x       y       z     vdW  Elec       q    Type
REMARK                         _______ _______ _______ _____ _____    ______ ____
ROOT
ATOM     10  C   UNL     1      16.326 -30.702  18.926  0.00  0.00    +0.038 A 
ATOM     11  C   UNL     1      17.525 -30.575  19.675  0.00  0.00    +0.047 A 
ATOM     12  C   UNL     1      17.886 -31.554  20.688  0.00  0.00    +0.035 A 
ATOM     32  C   UNL     1      17.004 -32.652  20.912  0.00  0.00    +0.024 A 
ATOM     33  C   UNL     1      15.781 -32.795  20.161  0.00  0.00    +0.007 A 
ATOM     34  C   UNL     1      15.419 -31.831  19.162  0.00  0.00    -0.029 A 
ATOM     35  C   UNL     1      14.093 -32.032  18.392  0.00  0.00    +0.045 C 
ENDROOT
BRANCH  10   9
ATOM      4  C   UNL     1      16.609 -28.929  14.475  0.00  0.00    +0.077 A 
ATOM      5  C   UNL     1      17.441 -30.011  14.033  0.00  0.00    +0.048 A 
ATOM      6  C   UNL     1      17.779 -30.999  14.985  0.00  0.00    +0.116 A 
ATOM      7  N   UNL     1      17.314 -30.903  16.278  0.00  0.00    -0.223 NA
ATOM      8  C   UNL     1      16.515 -29.845  16.672  0.00  0.00    +0.220 A 
ATOM      9  N   UNL     1      16.029 -29.733  17.965  0.00  0.00    -0.283 N 
ATOM     36  H   UNL     1      15.448 -28.934  18.218  0.00  0.00    +0.155 HD
ATOM     37  N   UNL     1      16.179 -28.888  15.783  0.00  0.00    -0.214 NA
BRANCH   4   3
ATOM      1  C   UNL     1      16.598 -25.976  11.909  0.00  0.00    +0.020 A 
ATOM      2  C   UNL     1      17.081 -27.048  12.750  0.00  0.00    +0.013 A 
ATOM      3  C   UNL     1      16.162 -27.809  13.587  0.00  0.00    +0.019 A 
ATOM     38  C   UNL     1      14.750 -27.459  13.550  0.00  0.00    +0.120 A 
ATOM     39  N   UNL     1      14.315 -26.421  12.732  0.00  0.00    -0.263 NA
ATOM     40  C   UNL     1      15.190 -25.680  11.923  0.00  0.00    +0.111 A 
ENDBRANCH   4   3
ENDBRANCH  10   9
BRANCH  12  13
ATOM     13  N   UNL     1      19.085 -31.474  21.485  0.00  0.00    -0.281 N 
ATOM     14  C   UNL     1      20.383 -31.771  21.102  0.00  0.00    +0.248 C 
ATOM     30  O   UNL     1      20.683 -32.358  20.073  0.00  0.00    -0.270 OA
ATOM     31  H   UNL     1      18.962 -31.160  22.447  0.00  0.00    +0.155 HD
BRANCH  14  15
ATOM     15  C   UNL     1      21.510 -31.370  21.999  0.00  0.00    +0.037 A 
ATOM     16  C   UNL     1      21.509 -31.717  23.422  0.00  0.00    +0.013 A 
ATOM     17  C   UNL     1      22.600 -31.304  24.268  0.00  0.00    +0.005 A 
ATOM     18  C   UNL     1      23.703 -30.538  23.692  0.00  0.00    -0.033 A 
ATOM     28  C   UNL     1      23.681 -30.212  22.276  0.00  0.00    +0.005 A 
ATOM     29  C   UNL     1      22.612 -30.615  21.443  0.00  0.00    +0.013 A 
BRANCH  18  19
ATOM     19  C   UNL     1      24.898 -30.037  24.524  0.00  0.00    +0.119 C 
BRANCH  19  20
ATOM     20  N   UNL     1      24.626 -28.979  25.542  0.00  0.00    -0.302 NA
ATOM     21  C   UNL     1      24.504 -27.590  24.909  0.00  0.00    +0.066 C 
ATOM     22  C   UNL     1      24.197 -26.499  25.986  0.00  0.00    -0.064 C 
ATOM     23  N   UNL     1      25.296 -26.514  27.050  0.00  0.00    +0.379 N 
ATOM     24  C   UNL     1      25.041 -25.450  28.032  0.00  0.00    -0.096 C 
ATOM     25  H   UNL     1      26.261 -26.282  26.543  0.00  0.00    -0.082 HD
ATOM     26  C   UNL     1      25.426 -27.892  27.683  0.00  0.00    -0.064 C 
ATOM     27  C   UNL     1      25.701 -28.973  26.601  0.00  0.00    +0.066 C 
ENDBRANCH  19  20
ENDBRANCH  18  19
ENDBRANCH  14  15
ENDBRANCH  12  13
TORSDOF 6
ENDMDL
MODEL 2
REMARK VINA RESULT:      -6.2     21.010     25.634
REMARK  Name = C:\Users\Docking\Desktop\test protocol\1iep_ligandH.pdb
REMARK  8 active torsions:
REMARK  status: ('A' for Active; 'I' for Inactive)
REMARK    1  A    between atoms: _5  and  _11
REMARK    2  A    between atoms: _19  and  _21
REMARK    3  A    between atoms: _22  and  _66
REMARK    4  A    between atoms: _27  and  _30
REMARK    5  A    between atoms: _32  and  _33
REMARK    6  A    between atoms: _38  and  _43
REMARK    7  A    between atoms: _43  and  _46
REMARK    8  A    between atoms: _53  and  _55
REMARK                            x       y       z     vdW  Elec       q    Type
REMARK                         _______ _______ _______ _____ _____    ______ ____
ROOT
ATOM     10  C   UNL     1      34.699 -10.503  18.906  0.00  0.00    +0.038 A 
ATOM     11  C   UNL     1      34.853 -11.300  17.743  0.00  0.00    +0.047 A 
ATOM     12  C   UNL     1      35.774 -10.917  16.684  0.00  0.00    +0.035 A 
ATOM     32  C   UNL     1      36.524  -9.715  16.844  0.00  0.00    +0.024 A 
ATOM     33  C   UNL     1      36.379  -8.892  18.019  0.00  0.00    +0.007 A 
ATOM     34  C   UNL     1      35.471  -9.265  19.066  0.00  0.00    -0.029 A 
ATOM     35  C   UNL     1      35.351  -8.341  20.300  0.00  0.00    +0.045 C 
ENDROOT
BRANCH  10   9
ATOM      4  C   UNL     1      33.578 -13.087  22.793  0.00  0.00    +0.077 A 
ATOM      5  C   UNL     1      34.884 -13.678  22.849  0.00  0.00    +0.048 A 
ATOM      6  C   UNL     1      35.813 -13.296  21.855  0.00  0.00    +0.116 A 
ATOM      7  N   UNL     1      35.451 -12.389  20.882  0.00  0.00    -0.223 NA
ATOM      8  C   UNL     1      34.183 -11.839  20.856  0.00  0.00    +0.220 A 
ATOM      9  N   UNL     1      33.801 -10.919  19.892  0.00  0.00    -0.283 N 
ATOM     36  H   UNL     1      32.854 -10.542  19.902  0.00  0.00    +0.155 HD
ATOM     37  N   UNL     1      33.278 -12.189  21.793  0.00  0.00    -0.214 NA
BRANCH   4   3
ATOM      1  C   UNL     1      30.577 -12.703  25.272  0.00  0.00    +0.020 A 
ATOM      2  C   UNL     1      31.615 -12.360  24.327  0.00  0.00    +0.013 A 
ATOM      3  C   UNL     1      32.488 -13.387  23.774  0.00  0.00    +0.019 A 
ATOM     38  C   UNL     1      32.283 -14.763  24.201  0.00  0.00    +0.120 A 
ATOM     39  N   UNL     1      31.276 -15.064  25.113  0.00  0.00    -0.263 NA
ATOM     40  C   UNL     1      30.431 -14.083  25.653  0.00  0.00    +0.111 A 
ENDBRANCH   4   3
ENDBRANCH  10   9
BRANCH  12  13
ATOM     13  N   UNL     1      35.966 -11.682  15.478  0.00  0.00    -0.281 N 
ATOM     14  C   UNL     1      36.241 -11.210  14.205  0.00  0.00    +0.248 C 
ATOM     30  O   UNL     1      36.152 -10.038  13.868  0.00  0.00    -0.270 OA
ATOM     31  H   UNL     1      35.891 -12.695  15.573  0.00  0.00    +0.155 HD
BRANCH  14  15
ATOM     15  C   UNL     1      36.663 -12.181  13.150  0.00  0.00    +0.037 A 
ATOM     16  C   UNL     1      35.714 -12.676  12.150  0.00  0.00    +0.013 A 
ATOM     17  C   UNL     1      36.142 -13.626  11.153  0.00  0.00    +0.005 A 
ATOM     18  C   UNL     1      37.529 -14.085  11.152  0.00  0.00    -0.033 A 
ATOM     28  C   UNL     1      38.451 -13.574  12.152  0.00  0.00    +0.005 A 
ATOM     29  C   UNL     1      38.034 -12.644  13.131  0.00  0.00    +0.013 A 
BRANCH  18  19
ATOM     19  C   UNL     1      38.068 -15.113  10.139  0.00  0.00    +0.119 C 
BRANCH  19  20
ATOM     20  N   UNL     1      38.513 -16.434  10.677  0.00  0.00    -0.302 NA
ATOM     21  C   UNL     1      37.652 -16.893  11.856  0.00  0.00    +0.066 C 
ATOM     22  C   UNL     1      38.117 -18.287  12.392  0.00  0.00    -0.064 C 
ATOM     23  N   UNL     1      39.590 -18.210  12.794  0.00  0.00    +0.379 N 
ATOM     24  C   UNL     1      40.015 -19.502  13.352  0.00  0.00    -0.096 C 
ATOM     25  H   UNL     1      39.680 -17.446  13.602  0.00  0.00    -0.082 HD
ATOM     26  C   UNL     1      40.454 -17.750  11.628  0.00  0.00    -0.064 C 
ATOM     27  C   UNL     1      39.965 -16.379  11.085  0.00  0.00    +0.066 C 
ENDBRANCH  19  20
ENDBRANCH  18  19
ENDBRANCH  14  15
ENDBRANCH  12  13
TORSDOF 6
ENDMDL
MODEL 3
REMARK VINA RESULT:      -6.2      6.426     16.399
REMARK  Name = C:\Users\Docking\Desktop\test protocol\1iep_ligandH.pdb
REMARK  8 active torsions:
REMARK  status: ('A' for Active; 'I' for Inactive)
REMARK    1  A    between atoms: _5  and  _11
REMARK    2  A    between atoms: _19  and  _21
REMARK    3  A    between atoms: _22  and  _66
REMARK    4  A    between atoms: _27  and  _30
REMARK    5  A    between atoms: _32  and  _33
REMARK    6  A    between atoms: _38  and  _43
REMARK    7  A    between atoms: _43  and  _46
REMARK    8  A    between atoms: _53  and  _55
REMARK                            x       y       z     vdW  Elec       q    Type
REMARK                         _______ _______ _______ _____ _____    ______ ____
ROOT
ATOM     10  C   UNL     1      24.657 -24.264  30.843  0.00  0.00    +0.038 A 
ATOM     11  C   UNL     1      24.541 -25.228  29.809  0.00  0.00    +0.047 A 
ATOM     12  C   UNL     1      24.765 -24.871  28.417  0.00  0.00    +0.035 A 
ATOM     32  C   UNL     1      25.107 -23.521  28.113  0.00  0.00    +0.024 A 
ATOM     33  C   UNL     1      25.228 -22.527  29.151  0.00  0.00    +0.007 A 
ATOM     34  C   UNL     1      25.006 -22.874  30.526  0.00  0.00    -0.029 A 
ATOM     35  C   UNL     1      25.143 -21.766  31.596  0.00  0.00    +0.045 C 
ENDROOT
BRANCH  10   9
ATOM      4  C   UNL     1      26.126 -26.153  35.003  0.00  0.00    +0.077 A 
ATOM      5  C   UNL     1      27.446 -26.391  34.496  0.00  0.00    +0.048 A 
ATOM      6  C   UNL     1      27.705 -26.020  33.158  0.00  0.00    +0.116 A 
ATOM      7  N   UNL     1      26.709 -25.452  32.393  0.00  0.00    -0.223 NA
ATOM      8  C   UNL     1      25.446 -25.238  32.911  0.00  0.00    +0.220 A 
ATOM      9  N   UNL     1      24.431 -24.662  32.162  0.00  0.00    -0.283 N 
ATOM     36  H   UNL     1      23.510 -24.528  32.579  0.00  0.00    +0.155 HD
ATOM     37  N   UNL     1      25.173 -25.586  34.186  0.00  0.00    -0.214 NA
BRANCH   4   3
ATOM      1  C   UNL     1      25.705 -26.105  38.892  0.00  0.00    +0.020 A 
ATOM      2  C   UNL     1      26.147 -25.740  37.565  0.00  0.00    +0.013 A 
ATOM      3  C   UNL     1      25.699 -26.489  36.398  0.00  0.00    +0.019 A 
ATOM     38  C   UNL     1      24.796 -27.610  36.609  0.00  0.00    +0.120 A 
ATOM     39  N   UNL     1      24.388 -27.940  37.898  0.00  0.00    -0.263 NA
ATOM     40  C   UNL     1      24.814 -27.227  39.029  0.00  0.00    +0.111 A 
ENDBRANCH   4   3
ENDBRANCH  10   9
BRANCH  12  13
ATOM     13  N   UNL     1      24.654 -25.805  27.325  0.00  0.00    -0.281 N 
ATOM     14  C   UNL     1      25.516 -26.838  26.997  0.00  0.00    +0.248 C 
ATOM     30  O   UNL     1      26.634 -26.982  27.470  0.00  0.00    -0.270 OA
ATOM     31  H   UNL     1      23.840 -25.691  26.720  0.00  0.00    +0.155 HD
BRANCH  14  15
ATOM     15  C   UNL     1      25.081 -27.849  25.986  0.00  0.00    +0.037 A 
ATOM     16  C   UNL     1      24.770 -27.461  24.608  0.00  0.00    +0.013 A 
ATOM     17  C   UNL     1      24.335 -28.454  23.657  0.00  0.00    +0.005 A 
ATOM     18  C   UNL     1      24.210 -29.846  24.082  0.00  0.00    -0.033 A 
ATOM     28  C   UNL     1      24.530 -30.204  25.454  0.00  0.00    +0.005 A 
ATOM     29  C   UNL     1      24.955 -29.234  26.389  0.00  0.00    +0.013 A 
BRANCH  18  19
ATOM     19  C   UNL     1      23.733 -30.968  23.141  0.00  0.00    +0.119 C 
BRANCH  19  20
ATOM     20  N   UNL     1      22.278 -31.302  23.158  0.00  0.00    -0.302 NA
ATOM     21  C   UNL     1      21.968 -32.473  24.096  0.00  0.00    +0.066 C 
ATOM     22  C   UNL     1      20.438 -32.794  24.118  0.00  0.00    -0.064 C 
ATOM     23  N   UNL     1      19.963 -33.098  22.697  0.00  0.00    +0.379 N 
ATOM     24  C   UNL     1      18.537 -33.458  22.723  0.00  0.00    -0.096 C 
ATOM     25  H   UNL     1      20.529 -33.987  22.334  0.00  0.00    -0.082 HD
ATOM     26  C   UNL     1      20.269 -31.941  21.757  0.00  0.00    -0.064 C 
ATOM     27  C   UNL     1      21.788 -31.610  21.765  0.00  0.00    +0.066 C 
ENDBRANCH  19  20
ENDBRANCH  18  19
ENDBRANCH  14  15
ENDBRANCH  12  13
TORSDOF 6
ENDMDL
MODEL 4
REMARK VINA RESULT:      -6.2      7.792     14.361
REMARK  Name = C:\Users\Docking\Desktop\test protocol\1iep_ligandH.pdb
REMARK  8 active torsions:
REMARK  status: ('A' for Active; 'I' for Inactive)
REMARK    1  A    between atoms: _5  and  _11
REMARK    2  A    between atoms: _19  and  _21
REMARK    3  A    between atoms: _22  and  _66
REMARK    4  A    between atoms: _27  and  _30
REMARK    5  A    between atoms: _32  and  _33
REMARK    6  A    between atoms: _38  and  _43
REMARK    7  A    between atoms: _43  and  _46
REMARK    8  A    between atoms: _53  and  _55
REMARK                            x       y       z     vdW  Elec       q    Type
REMARK                         _______ _______ _______ _____ _____    ______ ____
ROOT
ATOM     10  C   UNL     1      24.668 -24.210  28.591  0.00  0.00    +0.038 A 
ATOM     11  C   UNL     1      24.425 -24.849  29.834  0.00  0.00    +0.047 A 
ATOM     12  C   UNL     1      24.841 -24.240  31.088  0.00  0.00    +0.035 A 
ATOM     32  C   UNL     1      25.499 -22.977  31.039  0.00  0.00    +0.024 A 
ATOM     33  C   UNL     1      25.755 -22.313  29.785  0.00  0.00    +0.007 A 
ATOM     34  C   UNL     1      25.350 -22.910  28.545  0.00  0.00    -0.029 A 
ATOM     35  C   UNL     1      25.656 -22.157  27.230  0.00  0.00    +0.045 C 
ENDROOT
BRANCH  10   9
ATOM      4  C   UNL     1      25.355 -27.241  24.934  0.00  0.00    +0.077 A 
ATOM      5  C   UNL     1      26.675 -27.579  25.385  0.00  0.00    +0.048 A 
ATOM      6  C   UNL     1      27.142 -26.945  26.558  0.00  0.00    +0.116 A 
ATOM      7  N   UNL     1      26.340 -26.042  27.223  0.00  0.00    -0.223 NA
ATOM      8  C   UNL     1      25.073 -25.738  26.761  0.00  0.00    +0.220 A 
ATOM      9  N   UNL     1      24.247 -24.839  27.418  0.00  0.00    -0.283 N 
ATOM     36  H   UNL     1      23.322 -24.636  27.041  0.00  0.00    +0.155 HD
ATOM     37  N   UNL     1      24.604 -26.329  25.642  0.00  0.00    -0.214 NA
BRANCH   4   3
ATOM      1  C   UNL     1      23.798 -27.663  21.371  0.00  0.00    +0.020 A 
ATOM      2  C   UNL     1      24.412 -27.045  22.524  0.00  0.00    +0.013 A 
ATOM      3  C   UNL     1      24.719 -27.830  23.713  0.00  0.00    +0.019 A 
ATOM     38  C   UNL     1      24.391 -29.247  23.703  0.00  0.00    +0.120 A 
ATOM     39  N   UNL     1      23.799 -29.814  22.579  0.00  0.00    -0.263 NA
ATOM     40  C   UNL     1      23.497 -29.069  21.429  0.00  0.00    +0.111 A 
ENDBRANCH   4   3
ENDBRANCH  10   9
BRANCH  12  13
ATOM     13  N   UNL     1      24.628 -24.846  32.379  0.00  0.00    -0.281 N 
ATOM     14  C   UNL     1      24.907 -26.147  32.765  0.00  0.00    +0.248 C 
ATOM     30  O   UNL     1      25.186 -27.052  31.993  0.00  0.00    -0.270 OA
ATOM     31  H   UNL     1      24.223 -24.243  33.095  0.00  0.00    +0.155 HD
BRANCH  14  15
ATOM     15  C   UNL     1      24.855 -26.495  34.218  0.00  0.00    +0.037 A 
ATOM     16  C   UNL     1      23.716 -27.222  34.784  0.00  0.00    +0.013 A 
ATOM     17  C   UNL     1      23.683 -27.531  36.192  0.00  0.00    +0.005 A 
ATOM     18  C   UNL     1      24.794 -27.113  37.043  0.00  0.00    -0.033 A 
ATOM     28  C   UNL     1      25.914 -26.398  36.454  0.00  0.00    +0.005 A 
ATOM     29  C   UNL     1      25.950 -26.093  35.075  0.00  0.00    +0.013 A 
BRANCH  18  19
ATOM     19  C   UNL     1      24.834 -27.382  38.559  0.00  0.00    +0.119 C 
BRANCH  19  20
ATOM     20  N   UNL     1      25.277 -26.260  39.440  0.00  0.00    -0.302 NA
ATOM     21  C   UNL     1      26.017 -26.764  40.682  0.00  0.00    +0.066 C 
ATOM     22  C   UNL     1      26.494 -25.578  41.582  0.00  0.00    -0.064 C 
ATOM     23  N   UNL     1      25.287 -24.726  41.979  0.00  0.00    +0.379 N 
ATOM     24  C   UNL     1      25.723 -23.643  42.872  0.00  0.00    -0.096 C 
ATOM     25  H   UNL     1      24.588 -25.378  42.554  0.00  0.00    -0.082 HD
ATOM     26  C   UNL     1      24.543 -24.223  40.750  0.00  0.00    -0.064 C 
ATOM     27  C   UNL     1      24.100 -25.409  39.848  0.00  0.00    +0.066 C 
ENDBRANCH  19  20
ENDBRANCH  18  19
ENDBRANCH  14  15
ENDBRANCH  12  13
TORSDOF 6
ENDMDL
MODEL 5
REMARK VINA RESULT:      -6.2     29.799     33.818
REMARK  Name = C:\Users\Docking\Desktop\test protocol\1iep_ligandH.pdb
REMARK  8 active torsions:
REMARK  status: ('A' for Active; 'I' for Inactive)
REMARK    1  A    between atoms: _5  and  _11
REMARK    2  A    between atoms: _19  and  _21
REMARK    3  A    between atoms: _22  and  _66
REMARK    4  A    between atoms: _27  and  _30
REMARK    5  A    between atoms: _32  and  _33
REMARK    6  A    between atoms: _38  and  _43
REMARK    7  A    between atoms: _43  and  _46
REMARK    8  A    between atoms: _53  and  _55
REMARK                            x       y       z     vdW  Elec       q    Type
REMARK                         _______ _______ _______ _____ _____    ______ ____
ROOT
ATOM     10  C   UNL     1      41.203 -10.683   7.793  0.00  0.00    +0.038 A 
ATOM     11  C   UNL     1      40.316  -9.667   7.353  0.00  0.00    +0.047 A 
ATOM     12  C   UNL     1      40.815  -8.387   6.876  0.00  0.00    +0.035 A 
ATOM     32  C   UNL     1      42.225  -8.176   6.857  0.00  0.00    +0.024 A 
ATOM     33  C   UNL     1      43.141  -9.197   7.300  0.00  0.00    +0.007 A 
ATOM     34  C   UNL     1      42.654 -10.461   7.775  0.00  0.00    -0.029 A 
ATOM     35  C   UNL     1      43.682 -11.516   8.245  0.00  0.00    +0.045 C 
ENDROOT
BRANCH  10   9
ATOM      4  C   UNL     1      39.306 -13.463  11.215  0.00  0.00    +0.077 A 
ATOM      5  C   UNL     1      39.412 -12.425  12.199  0.00  0.00    +0.048 A 
ATOM      6  C   UNL     1      39.967 -11.193  11.786  0.00  0.00    +0.116 A 
ATOM      7  N   UNL     1      40.381 -11.022  10.483  0.00  0.00    -0.223 NA
ATOM      8  C   UNL     1      40.267 -12.045   9.559  0.00  0.00    +0.220 A 
ATOM      9  N   UNL     1      40.670 -11.893   8.241  0.00  0.00    -0.283 N 
ATOM     36  H   UNL     1      40.575 -12.674   7.592  0.00  0.00    +0.155 HD
ATOM     37  N   UNL     1      39.742 -13.231   9.929  0.00  0.00    -0.214 NA
BRANCH   4   3
ATOM      1  C   UNL     1      37.200 -16.750  10.981  0.00  0.00    +0.020 A 
ATOM      2  C   UNL     1      37.714 -15.438  10.665  0.00  0.00    +0.013 A 
ATOM      3  C   UNL     1      38.739 -14.819  11.497  0.00  0.00    +0.019 A 
ATOM     38  C   UNL     1      39.226 -15.561  12.650  0.00  0.00    +0.120 A 
ATOM     39  N   UNL     1      38.711 -16.823  12.930  0.00  0.00    -0.263 NA
ATOM     40  C   UNL     1      37.723 -17.428  12.138  0.00  0.00    +0.111 A 
ENDBRANCH   4   3
ENDBRANCH  10   9
BRANCH  12  13
ATOM     13  N   UNL     1      39.962  -7.315   6.425  0.00  0.00    -0.281 N 
ATOM     14  C   UNL     1      39.638  -6.146   7.093  0.00  0.00    +0.248 C 
ATOM     30  O   UNL     1      39.865  -5.941   8.277  0.00  0.00    -0.270 OA
ATOM     31  H   UNL     1      39.547  -7.433   5.501  0.00  0.00    +0.155 HD
BRANCH  14  15
ATOM     15  C   UNL     1      38.951  -5.052   6.342  0.00  0.00    +0.037 A 
ATOM     16  C   UNL     1      38.299  -3.943   7.043  0.00  0.00    +0.013 A 
ATOM     17  C   UNL     1      37.628  -2.909   6.295  0.00  0.00    +0.005 A 
ATOM     18  C   UNL     1      37.608  -2.979   4.836  0.00  0.00    -0.033 A 
ATOM     28  C   UNL     1      38.267  -4.088   4.166  0.00  0.00    +0.005 A 
ATOM     29  C   UNL     1      38.925  -5.104   4.896  0.00  0.00    +0.013 A 
BRANCH  18  19
ATOM     19  C   UNL     1      36.898  -1.932   3.958  0.00  0.00    +0.119 C 
BRANCH  19  20
ATOM     20  N   UNL     1      37.334  -1.825   2.534  0.00  0.00    -0.302 NA
ATOM     21  C   UNL     1      37.566  -0.371   2.112  0.00  0.00    +0.066 C 
ATOM     22  C   UNL     1      38.043  -0.279   0.626  0.00  0.00    -0.064 C 
ATOM     23  N   UNL     1      37.009  -0.948  -0.281  0.00  0.00    +0.379 N 
ATOM     24  C   UNL     1      37.427  -0.812  -1.685  0.00  0.00    -0.096 C 
ATOM     25  H   UNL     1      36.047  -0.398  -0.160  0.00  0.00    -0.082 HD
ATOM     26  C   UNL     1      36.770  -2.393   0.133  0.00  0.00    -0.064 C 
ATOM     27  C   UNL     1      36.325  -2.476   1.620  0.00  0.00    +0.066 C 
ENDBRANCH  19  20
ENDBRANCH  18  19
ENDBRANCH  14  15
ENDBRANCH  12  13
TORSDOF 6
ENDMDL
