MODEL 1
REMARK VINA RESULT:      -9.3      0.000      0.000
REMARK  Name = C:\Users\Docking\Desktop\test protocol\1iep_ligandH.pdb
REMARK  8 active torsions:
REMARK  status: ('A' for Active; 'I' for Inactive)
REMARK    1  A    between atoms: _5  and  _11
REMARK    2  A    between atoms: _19  and  _21
REMARK    3  A    between atoms: _22  and  _66
REMARK    4  A    between atoms: _27  and  _30
REMARK    5  A    between atoms: _32  and  _33
REMARK    6  A    between atoms: _38  and  _43
REMARK    7  A    between atoms: _43  and  _46
REMARK    8  A    between atoms: _53  and  _55
REMARK                            x       y       z     vdW  Elec       q    Type
REMARK                         _______ _______ _______ _____ _____    ______ ____
ROOT
ATOM     10  C   UNL     1      14.284  13.499  19.951  0.00  0.00    +0.038 A 
ATOM     11  C   UNL     1      14.973  13.115  21.129  0.00  0.00    +0.047 A 
ATOM     12  C   UNL     1      15.515  11.773  21.281  0.00  0.00    +0.035 A 
ATOM     32  C   UNL     1      15.338  10.848  20.211  0.00  0.00    +0.024 A 
ATOM     33  C   UNL     1      14.640  11.222  19.006  0.00  0.00    +0.007 A 
ATOM     34  C   UNL     1      14.101  12.543  18.852  0.00  0.00    -0.029 A 
ATOM     35  C   UNL     1      13.356  12.886  17.541  0.00  0.00    +0.045 C 
ENDROOT
BRANCH  10   9
ATOM      4  C   UNL     1      10.674  16.661  20.008  0.00  0.00    +0.077 A 
ATOM      5  C   UNL     1       9.697  15.632  20.213  0.00  0.00    +0.048 A 
ATOM      6  C   UNL     1      10.164  14.300  20.291  0.00  0.00    +0.116 A 
ATOM      7  N   UNL     1      11.510  14.031  20.172  0.00  0.00    -0.223 NA
ATOM      8  C   UNL     1      12.426  15.047  19.973  0.00  0.00    +0.220 A 
ATOM      9  N   UNL     1      13.785  14.800  19.858  0.00  0.00    -0.283 N 
ATOM     36  H   UNL     1      14.428  15.577  19.705  0.00  0.00    +0.155 HD
ATOM     37  N   UNL     1      12.005  16.327  19.894  0.00  0.00    -0.214 NA
BRANCH   4   3
ATOM      1  C   UNL     1       9.274  20.231  20.782  0.00  0.00    +0.020 A 
ATOM      2  C   UNL     1       9.572  18.825  20.926  0.00  0.00    +0.013 A 
ATOM      3  C   UNL     1      10.338  18.117  19.908  0.00  0.00    +0.019 A 
ATOM     38  C   UNL     1      10.791  18.867  18.747  0.00  0.00    +0.120 A 
ATOM     39  N   UNL     1      10.488  20.220  18.633  0.00  0.00    -0.263 NA
ATOM     40  C   UNL     1       9.751  20.912  19.606  0.00  0.00    +0.111 A 
ENDBRANCH   4   3
ENDBRANCH  10   9
BRANCH  12  13
ATOM     13  N   UNL     1      16.216  11.323  22.458  0.00  0.00    -0.281 N 
ATOM     14  C   UNL     1      17.507  10.830  22.543  0.00  0.00    +0.248 C 
ATOM     30  O   UNL     1      18.185  10.498  21.582  0.00  0.00    -0.270 OA
ATOM     31  H   UNL     1      15.697  11.376  23.335  0.00  0.00    +0.155 HD
BRANCH  14  15
ATOM     15  C   UNL     1      18.131  10.667  23.892  0.00  0.00    +0.037 A 
ATOM     16  C   UNL     1      19.555  10.935  24.108  0.00  0.00    +0.013 A 
ATOM     17  C   UNL     1      20.135  10.754  25.415  0.00  0.00    +0.005 A 
ATOM     18  C   UNL     1      19.289  10.303  26.517  0.00  0.00    -0.033 A 
ATOM     28  C   UNL     1      17.878  10.050  26.276  0.00  0.00    +0.005 A 
ATOM     29  C   UNL     1      17.307  10.225  24.996  0.00  0.00    +0.013 A 
BRANCH  18  19
ATOM     19  C   UNL     1      19.827  10.063  27.940  0.00  0.00    +0.119 C 
BRANCH  19  20
ATOM     20  N   UNL     1      20.715   8.879  28.145  0.00  0.00    -0.302 NA
ATOM     21  C   UNL     1      22.197   9.264  28.130  0.00  0.00    +0.066 C 
ATOM     22  C   UNL     1      23.111   8.017  28.368  0.00  0.00    -0.064 C 
ATOM     23  N   UNL     1      22.814   6.961  27.302  0.00  0.00    +0.379 N 
ATOM     24  C   UNL     1      23.712   5.811  27.488  0.00  0.00    -0.096 C 
ATOM     25  H   UNL     1      23.042   7.411  26.308  0.00  0.00    -0.082 HD
ATOM     26  C   UNL     1      21.342   6.575  27.308  0.00  0.00    -0.064 C 
ATOM     27  C   UNL     1      20.442   7.825  27.100  0.00  0.00    +0.066 C 
ENDBRANCH  19  20
ENDBRANCH  18  19
ENDBRANCH  14  15
ENDBRANCH  12  13
TORSDOF 6
ENDMDL
MODEL 2
REMARK VINA RESULT:      -9.0      3.181     13.890
REMARK  Name = C:\Users\Docking\Desktop\test protocol\1iep_ligandH.pdb
REMARK  8 active torsions:
REMARK  status: ('A' for Active; 'I' for Inactive)
REMARK    1  A    between atoms: _5  and  _11
REMARK    2  A    between atoms: _19  and  _21
REMARK    3  A    between atoms: _22  and  _66
REMARK    4  A    between atoms: _27  and  _30
REMARK    5  A    between atoms: _32  and  _33
REMARK    6  A    between atoms: _38  and  _43
REMARK    7  A    between atoms: _43  and  _46
REMARK    8  A    between atoms: _53  and  _55
REMARK                            x       y       z     vdW  Elec       q    Type
REMARK                         _______ _______ _______ _____ _____    ______ ____
ROOT
ATOM     10  C   UNL     1      13.404  12.956  20.995  0.00  0.00    +0.038 A 
ATOM     11  C   UNL     1      13.391  14.348  20.723  0.00  0.00    +0.047 A 
ATOM     12  C   UNL     1      12.522  14.906  19.699  0.00  0.00    +0.035 A 
ATOM     32  C   UNL     1      11.677  14.018  18.972  0.00  0.00    +0.024 A 
ATOM     33  C   UNL     1      11.679  12.600  19.234  0.00  0.00    +0.007 A 
ATOM     34  C   UNL     1      12.536  12.043  20.241  0.00  0.00    -0.029 A 
ATOM     35  C   UNL     1      12.501  10.515  20.476  0.00  0.00    +0.045 C 
ENDROOT
BRANCH  10   9
ATOM      4  C   UNL     1      17.426  10.757  22.419  0.00  0.00    +0.077 A 
ATOM      5  C   UNL     1      17.848  10.525  21.068  0.00  0.00    +0.048 A 
ATOM      6  C   UNL     1      16.998  10.980  20.035  0.00  0.00    +0.116 A 
ATOM      7  N   UNL     1      15.817  11.620  20.343  0.00  0.00    -0.223 NA
ATOM      8  C   UNL     1      15.438  11.826  21.657  0.00  0.00    +0.220 A 
ATOM      9  N   UNL     1      14.258  12.474  21.989  0.00  0.00    -0.283 N 
ATOM     36  H   UNL     1      14.011  12.600  22.970  0.00  0.00    +0.155 HD
ATOM     37  N   UNL     1      16.232  11.399  22.661  0.00  0.00    -0.214 NA
BRANCH   4   3
ATOM      1  C   UNL     1      19.403   8.608  25.022  0.00  0.00    +0.020 A 
ATOM      2  C   UNL     1      18.640   8.961  23.847  0.00  0.00    +0.013 A 
ATOM      3  C   UNL     1      18.216  10.337  23.619  0.00  0.00    +0.019 A 
ATOM     38  C   UNL     1      18.585  11.340  24.607  0.00  0.00    +0.120 A 
ATOM     39  N   UNL     1      19.319  10.971  25.730  0.00  0.00    -0.263 NA
ATOM     40  C   UNL     1      19.730   9.649  25.961  0.00  0.00    +0.111 A 
ENDBRANCH   4   3
ENDBRANCH  10   9
BRANCH  12  13
ATOM     13  N   UNL     1      12.471  16.310  19.373  0.00  0.00    -0.281 N 
ATOM     14  C   UNL     1      11.361  17.138  19.347  0.00  0.00    +0.248 C 
ATOM     30  O   UNL     1      10.204  16.746  19.392  0.00  0.00    -0.270 OA
ATOM     31  H   UNL     1      13.361  16.746  19.134  0.00  0.00    +0.155 HD
BRANCH  14  15
ATOM     15  C   UNL     1      11.564  18.615  19.240  0.00  0.00    +0.037 A 
ATOM     16  C   UNL     1      12.552  19.182  18.318  0.00  0.00    +0.013 A 
ATOM     17  C   UNL     1      12.740  20.609  18.247  0.00  0.00    +0.005 A 
ATOM     18  C   UNL     1      11.936  21.480  19.101  0.00  0.00    -0.033 A 
ATOM     28  C   UNL     1      10.960  20.892  20.003  0.00  0.00    +0.005 A 
ATOM     29  C   UNL     1      10.773  19.493  20.076  0.00  0.00    +0.013 A 
BRANCH  18  19
ATOM     19  C   UNL     1      12.085  23.013  19.107  0.00  0.00    +0.119 C 
BRANCH  19  20
ATOM     20  N   UNL     1      10.831  23.822  19.181  0.00  0.00    -0.302 NA
ATOM     21  C   UNL     1      10.267  24.134  17.792  0.00  0.00    +0.066 C 
ATOM     22  C   UNL     1       8.944  24.961  17.887  0.00  0.00    -0.064 C 
ATOM     23  N   UNL     1       9.206  26.250  18.668  0.00  0.00    +0.379 N 
ATOM     24  C   UNL     1       7.978  27.057  18.710  0.00  0.00    -0.096 C 
ATOM     25  H   UNL     1       9.975  26.833  18.109  0.00  0.00    -0.082 HD
ATOM     26  C   UNL     1       9.770  25.948  20.049  0.00  0.00    -0.064 C 
ATOM     27  C   UNL     1      11.069  25.101  19.944  0.00  0.00    +0.066 C 
ENDBRANCH  19  20
ENDBRANCH  18  19
ENDBRANCH  14  15
ENDBRANCH  12  13
TORSDOF 6
ENDMDL
MODEL 3
REMARK VINA RESULT:      -9.0      3.472     12.698
REMARK  Name = C:\Users\Docking\Desktop\test protocol\1iep_ligandH.pdb
REMARK  8 active torsions:
REMARK  status: ('A' for Active; 'I' for Inactive)
REMARK    1  A    between atoms: _5  and  _11
REMARK    2  A    between atoms: _19  and  _21
REMARK    3  A    between atoms: _22  and  _66
REMARK    4  A    between atoms: _27  and  _30
REMARK    5  A    between atoms: _32  and  _33
REMARK    6  A    between atoms: _38  and  _43
REMARK    7  A    between atoms: _43  and  _46
REMARK    8  A    between atoms: _53  and  _55
REMARK                            x       y       z     vdW  Elec       q    Type
REMARK                         _______ _______ _______ _____ _____    ______ ____
ROOT
ATOM     10  C   UNL     1      13.062  12.896  20.929  0.00  0.00    +0.038 A 
ATOM     11  C   UNL     1      13.013  14.260  20.544  0.00  0.00    +0.047 A 
ATOM     12  C   UNL     1      12.097  14.718  19.512  0.00  0.00    +0.035 A 
ATOM     32  C   UNL     1      11.241  13.760  18.894  0.00  0.00    +0.024 A 
ATOM     33  C   UNL     1      11.278  12.369  19.272  0.00  0.00    +0.007 A 
ATOM     34  C   UNL     1      12.182  11.911  20.288  0.00  0.00    -0.029 A 
ATOM     35  C   UNL     1      12.183  10.407  20.649  0.00  0.00    +0.045 C 
ENDROOT
BRANCH  10   9
ATOM      4  C   UNL     1      17.195  10.926  22.370  0.00  0.00    +0.077 A 
ATOM      5  C   UNL     1      17.584  10.614  21.024  0.00  0.00    +0.048 A 
ATOM      6  C   UNL     1      16.688  10.971  19.991  0.00  0.00    +0.116 A 
ATOM      7  N   UNL     1      15.496  11.593  20.292  0.00  0.00    -0.223 NA
ATOM      8  C   UNL     1      15.151  11.878  21.601  0.00  0.00    +0.220 A 
ATOM      9  N   UNL     1      13.961  12.510  21.926  0.00  0.00    -0.283 N 
ATOM     36  H   UNL     1      13.740  12.697  22.904  0.00  0.00    +0.155 HD
ATOM     37  N   UNL     1      15.988  11.547  22.605  0.00  0.00    -0.214 NA
BRANCH   4   3
ATOM      1  C   UNL     1      19.132  11.240  25.754  0.00  0.00    +0.020 A 
ATOM      2  C   UNL     1      18.314  11.592  24.615  0.00  0.00    +0.013 A 
ATOM      3  C   UNL     1      18.035  10.616  23.569  0.00  0.00    +0.019 A 
ATOM     38  C   UNL     1      18.602   9.283  23.707  0.00  0.00    +0.120 A 
ATOM     39  N   UNL     1      19.386   8.973  24.813  0.00  0.00    -0.263 NA
ATOM     40  C   UNL     1      19.663   9.905  25.825  0.00  0.00    +0.111 A 
ENDBRANCH   4   3
ENDBRANCH  10   9
BRANCH  12  13
ATOM     13  N   UNL     1      12.008  16.089  19.074  0.00  0.00    -0.281 N 
ATOM     14  C   UNL     1      11.067  17.040  19.434  0.00  0.00    +0.248 C 
ATOM     30  O   UNL     1      10.027  16.792  20.027  0.00  0.00    -0.270 OA
ATOM     31  H   UNL     1      12.727  16.396  18.419  0.00  0.00    +0.155 HD
BRANCH  14  15
ATOM     15  C   UNL     1      11.309  18.469  19.071  0.00  0.00    +0.037 A 
ATOM     16  C   UNL     1      11.049  19.550  20.026  0.00  0.00    +0.013 A 
ATOM     17  C   UNL     1      11.275  20.922  19.644  0.00  0.00    +0.005 A 
ATOM     18  C   UNL     1      11.765  21.220  18.301  0.00  0.00    -0.033 A 
ATOM     28  C   UNL     1      12.019  20.128  17.376  0.00  0.00    +0.005 A 
ATOM     29  C   UNL     1      11.798  18.783  17.746  0.00  0.00    +0.013 A 
BRANCH  18  19
ATOM     19  C   UNL     1      12.014  22.655  17.801  0.00  0.00    +0.119 C 
BRANCH  19  20
ATOM     20  N   UNL     1      13.254  23.339  18.275  0.00  0.00    -0.302 NA
ATOM     21  C   UNL     1      14.428  22.367  18.417  0.00  0.00    +0.066 C 
ATOM     22  C   UNL     1      15.723  23.103  18.892  0.00  0.00    -0.064 C 
ATOM     23  N   UNL     1      15.444  23.813  20.218  0.00  0.00    +0.379 N 
ATOM     24  C   UNL     1      16.676  24.458  20.697  0.00  0.00    -0.096 C 
ATOM     25  H   UNL     1      15.158  23.035  20.964  0.00  0.00    -0.082 HD
ATOM     26  C   UNL     1      14.276  24.780  20.087  0.00  0.00    -0.064 C 
ATOM     27  C   UNL     1      13.003  24.043  19.586  0.00  0.00    +0.066 C 
ENDBRANCH  19  20
ENDBRANCH  18  19
ENDBRANCH  14  15
ENDBRANCH  12  13
TORSDOF 6
ENDMDL
MODEL 4
REMARK VINA RESULT:      -8.8      2.063      3.051
REMARK  Name = C:\Users\Docking\Desktop\test protocol\1iep_ligandH.pdb
REMARK  8 active torsions:
REMARK  status: ('A' for Active; 'I' for Inactive)
REMARK    1  A    between atoms: _5  and  _11
REMARK    2  A    between atoms: _19  and  _21
REMARK    3  A    between atoms: _22  and  _66
REMARK    4  A    between atoms: _27  and  _30
REMARK    5  A    between atoms: _32  and  _33
REMARK    6  A    between atoms: _38  and  _43
REMARK    7  A    between atoms: _43  and  _46
REMARK    8  A    between atoms: _53  and  _55
REMARK                            x       y       z     vdW  Elec       q    Type
REMARK                         _______ _______ _______ _____ _____    ______ ____
ROOT
ATOM     10  C   UNL     1      15.609  12.025  19.914  0.00  0.00    +0.038 A 
ATOM     11  C   UNL     1      16.351  11.942  21.119  0.00  0.00    +0.047 A 
ATOM     12  C   UNL     1      17.459  11.010  21.258  0.00  0.00    +0.035 A 
ATOM     32  C   UNL     1      17.786  10.179  20.148  0.00  0.00    +0.024 A 
ATOM     33  C   UNL     1      17.041  10.249  18.915  0.00  0.00    +0.007 A 
ATOM     34  C   UNL     1      15.946  11.164  18.773  0.00  0.00    -0.029 A 
ATOM     35  C   UNL     1      15.178  11.192  17.431  0.00  0.00    +0.045 C 
ENDROOT
BRANCH  10   9
ATOM      4  C   UNL     1      10.995  13.222  20.481  0.00  0.00    +0.077 A 
ATOM      5  C   UNL     1      10.651  11.910  20.948  0.00  0.00    +0.048 A 
ATOM      6  C   UNL     1      11.689  10.954  21.021  0.00  0.00    +0.116 A 
ATOM      7  N   UNL     1      12.972  11.296  20.652  0.00  0.00    -0.223 NA
ATOM      8  C   UNL     1      13.270  12.570  20.204  0.00  0.00    +0.220 A 
ATOM      9  N   UNL     1      14.554  12.938  19.835  0.00  0.00    -0.283 N 
ATOM     36  H   UNL     1      14.732  13.885  19.503  0.00  0.00    +0.155 HD
ATOM     37  N   UNL     1      12.296  13.500  20.124  0.00  0.00    -0.214 NA
BRANCH   4   3
ATOM      1  C   UNL     1       9.332  16.646  19.580  0.00  0.00    +0.020 A 
ATOM      2  C   UNL     1      10.320  15.596  19.678  0.00  0.00    +0.013 A 
ATOM      3  C   UNL     1      10.010  14.342  20.351  0.00  0.00    +0.019 A 
ATOM     38  C   UNL     1       8.680  14.179  20.919  0.00  0.00    +0.120 A 
ATOM     39  N   UNL     1       7.750  15.208  20.811  0.00  0.00    -0.263 NA
ATOM     40  C   UNL     1       8.037  16.421  20.166  0.00  0.00    +0.111 A 
ENDBRANCH   4   3
ENDBRANCH  10   9
BRANCH  12  13
ATOM     13  N   UNL     1      18.244  10.876  22.461  0.00  0.00    -0.281 N 
ATOM     14  C   UNL     1      17.792  10.789  23.767  0.00  0.00    +0.248 C 
ATOM     30  O   UNL     1      16.646  11.029  24.120  0.00  0.00    -0.270 OA
ATOM     31  H   UNL     1      19.255  10.841  22.333  0.00  0.00    +0.155 HD
BRANCH  14  15
ATOM     15  C   UNL     1      18.754  10.392  24.839  0.00  0.00    +0.037 A 
ATOM     16  C   UNL     1      18.286   9.878  26.129  0.00  0.00    +0.013 A 
ATOM     17  C   UNL     1      19.235   9.518  27.152  0.00  0.00    +0.005 A 
ATOM     18  C   UNL     1      20.664   9.670  26.888  0.00  0.00    -0.033 A 
ATOM     28  C   UNL     1      21.102  10.178  25.599  0.00  0.00    +0.005 A 
ATOM     29  C   UNL     1      20.174  10.532  24.594  0.00  0.00    +0.013 A 
BRANCH  18  19
ATOM     19  C   UNL     1      21.748   9.331  27.930  0.00  0.00    +0.119 C 
BRANCH  19  20
ATOM     20  N   UNL     1      22.531   8.078  27.717  0.00  0.00    -0.302 NA
ATOM     21  C   UNL     1      21.631   6.841  27.653  0.00  0.00    +0.066 C 
ATOM     22  C   UNL     1      22.465   5.541  27.408  0.00  0.00    -0.064 C 
ATOM     23  N   UNL     1      23.511   5.394  28.515  0.00  0.00    +0.379 N 
ATOM     24  C   UNL     1      24.259   4.143  28.320  0.00  0.00    -0.096 C 
ATOM     25  H   UNL     1      22.967   5.315  29.485  0.00  0.00    -0.082 HD
ATOM     26  C   UNL     1      24.409   6.621  28.587  0.00  0.00    -0.064 C 
ATOM     27  C   UNL     1      23.567   7.910  28.801  0.00  0.00    +0.066 C 
ENDBRANCH  19  20
ENDBRANCH  18  19
ENDBRANCH  14  15
ENDBRANCH  12  13
TORSDOF 6
ENDMDL
MODEL 5
REMARK VINA RESULT:      -8.8      4.013     12.996
REMARK  Name = C:\Users\Docking\Desktop\test protocol\1iep_ligandH.pdb
REMARK  8 active torsions:
REMARK  status: ('A' for Active; 'I' for Inactive)
REMARK    1  A    between atoms: _5  and  _11
REMARK    2  A    between atoms: _19  and  _21
REMARK    3  A    between atoms: _22  and  _66
REMARK    4  A    between atoms: _27  and  _30
REMARK    5  A    between atoms: _32  and  _33
REMARK    6  A    between atoms: _38  and  _43
REMARK    7  A    between atoms: _43  and  _46
REMARK    8  A    between atoms: _53  and  _55
REMARK                            x       y       z     vdW  Elec       q    Type
REMARK                         _______ _______ _______ _____ _____    ______ ____
ROOT
ATOM     10  C   UNL     1      13.391  13.187  20.951  0.00  0.00    +0.038 A 
ATOM     11  C   UNL     1      13.472  14.547  20.556  0.00  0.00    +0.047 A 
ATOM     12  C   UNL     1      12.601  15.083  19.522  0.00  0.00    +0.035 A 
ATOM     32  C   UNL     1      11.657  14.206  18.912  0.00  0.00    +0.024 A 
ATOM     33  C   UNL     1      11.563  12.821  19.300  0.00  0.00    +0.007 A 
ATOM     34  C   UNL     1      12.421  12.286  20.318  0.00  0.00    -0.029 A 
ATOM     35  C   UNL     1      12.280  10.791  20.689  0.00  0.00    +0.045 C 
ENDROOT
BRANCH  10   9
ATOM      4  C   UNL     1      17.339  10.873  22.399  0.00  0.00    +0.077 A 
ATOM      5  C   UNL     1      17.704  10.532  21.054  0.00  0.00    +0.048 A 
ATOM      6  C   UNL     1      16.845  10.964  20.019  0.00  0.00    +0.116 A 
ATOM      7  N   UNL     1      15.709  11.685  20.318  0.00  0.00    -0.223 NA
ATOM      8  C   UNL     1      15.385  11.996  21.626  0.00  0.00    +0.220 A 
ATOM      9  N   UNL     1      14.252  12.726  21.949  0.00  0.00    -0.283 N 
ATOM     36  H   UNL     1      14.044  12.928  22.927  0.00  0.00    +0.155 HD
ATOM     37  N   UNL     1      16.188  11.593  22.632  0.00  0.00    -0.214 NA
BRANCH   4   3
ATOM      1  C   UNL     1      19.450   8.830  24.981  0.00  0.00    +0.020 A 
ATOM      2  C   UNL     1      18.676   9.148  23.804  0.00  0.00    +0.013 A 
ATOM      3  C   UNL     1      18.146  10.490  23.600  0.00  0.00    +0.019 A 
ATOM     38  C   UNL     1      18.421  11.496  24.615  0.00  0.00    +0.120 A 
ATOM     39  N   UNL     1      19.169  11.161  25.739  0.00  0.00    -0.263 NA
ATOM     40  C   UNL     1      19.682   9.872  25.947  0.00  0.00    +0.111 A 
ENDBRANCH   4   3
ENDBRANCH  10   9
BRANCH  12  13
ATOM     13  N   UNL     1      12.642  16.453  19.074  0.00  0.00    -0.281 N 
ATOM     14  C   UNL     1      11.592  17.352  18.985  0.00  0.00    +0.248 C 
ATOM     30  O   UNL     1      10.412  17.048  19.076  0.00  0.00    -0.270 OA
ATOM     31  H   UNL     1      13.557  16.803  18.788  0.00  0.00    +0.155 HD
BRANCH  14  15
ATOM     15  C   UNL     1      11.896  18.796  18.746  0.00  0.00    +0.037 A 
ATOM     16  C   UNL     1      12.700  19.224  17.599  0.00  0.00    +0.013 A 
ATOM     17  C   UNL     1      12.993  20.622  17.401  0.00  0.00    +0.005 A 
ATOM     18  C   UNL     1      12.478  21.602  18.354  0.00  0.00    -0.033 A 
ATOM     28  C   UNL     1      11.679  21.151  19.481  0.00  0.00    +0.005 A 
ATOM     29  C   UNL     1      11.391  19.782  19.678  0.00  0.00    +0.013 A 
BRANCH  18  19
ATOM     19  C   UNL     1      12.759  23.112  18.234  0.00  0.00    +0.119 C 
BRANCH  19  20
ATOM     20  N   UNL     1      14.177  23.557  18.374  0.00  0.00    -0.302 NA
ATOM     21  C   UNL     1      14.281  25.050  18.702  0.00  0.00    +0.066 C 
ATOM     22  C   UNL     1      15.771  25.493  18.867  0.00  0.00    -0.064 C 
ATOM     23  N   UNL     1      16.543  25.165  17.588  0.00  0.00    +0.379 N 
ATOM     24  C   UNL     1      17.931  25.634  17.719  0.00  0.00    -0.096 C 
ATOM     25  H   UNL     1      16.071  25.733  16.753  0.00  0.00    -0.082 HD
ATOM     26  C   UNL     1      16.443  23.683  17.254  0.00  0.00    -0.064 C 
ATOM     27  C   UNL     1      14.958  23.246  17.120  0.00  0.00    +0.066 C 
ENDBRANCH  19  20
ENDBRANCH  18  19
ENDBRANCH  14  15
ENDBRANCH  12  13
TORSDOF 6
ENDMDL
