MODEL 1
REMARK VINA RESULT:      -8.6      0.000      0.000
REMARK  Name = C:\Users\Docking\Desktop\test protocol\1iep_ligandH.pdb
REMARK  8 active torsions:
REMARK  status: ('A' for Active; 'I' for Inactive)
REMARK    1  A    between atoms: _5  and  _11
REMARK    2  A    between atoms: _19  and  _21
REMARK    3  A    between atoms: _22  and  _66
REMARK    4  A    between atoms: _27  and  _30
REMARK    5  A    between atoms: _32  and  _33
REMARK    6  A    between atoms: _38  and  _43
REMARK    7  A    between atoms: _43  and  _46
REMARK    8  A    between atoms: _53  and  _55
REMARK                            x       y       z     vdW  Elec       q    Type
REMARK                         _______ _______ _______ _____ _____    ______ ____
ROOT
ATOM     10  C   UNL     1      11.156  20.201  19.938  0.00  0.00    +0.038 A 
ATOM     11  C   UNL     1      12.318  20.979  19.703  0.00  0.00    +0.047 A 
ATOM     12  C   UNL     1      12.222  22.356  19.243  0.00  0.00    +0.035 A 
ATOM     32  C   UNL     1      10.925  22.909  19.034  0.00  0.00    +0.024 A 
ATOM     33  C   UNL     1       9.733  22.132  19.266  0.00  0.00    +0.007 A 
ATOM     34  C   UNL     1       9.822  20.773  19.718  0.00  0.00    -0.029 A 
ATOM     35  C   UNL     1       8.511  19.984  19.944  0.00  0.00    +0.045 C 
ENDROOT
BRANCH  10   9
ATOM      4  C   UNL     1      11.761  15.509  19.129  0.00  0.00    +0.077 A 
ATOM      5  C   UNL     1      11.748  15.692  17.707  0.00  0.00    +0.048 A 
ATOM      6  C   UNL     1      11.576  17.008  17.223  0.00  0.00    +0.116 A 
ATOM      7  N   UNL     1      11.430  18.056  18.106  0.00  0.00    -0.223 NA
ATOM      8  C   UNL     1      11.445  17.845  19.473  0.00  0.00    +0.220 A 
ATOM      9  N   UNL     1      11.307  18.885  20.379  0.00  0.00    -0.283 N 
ATOM     36  H   UNL     1      11.316  18.686  21.379  0.00  0.00    +0.155 HD
ATOM     37  N   UNL     1      11.606  16.596  19.959  0.00  0.00    -0.214 NA
BRANCH   4   3
ATOM      1  C   UNL     1      11.146  12.300  21.281  0.00  0.00    +0.020 A 
ATOM      2  C   UNL     1      10.928  13.588  20.665  0.00  0.00    +0.013 A 
ATOM      3  C   UNL     1      11.936  14.178  19.793  0.00  0.00    +0.019 A 
ATOM     38  C   UNL     1      13.164  13.432  19.563  0.00  0.00    +0.120 A 
ATOM     39  N   UNL     1      13.347  12.194  20.172  0.00  0.00    -0.263 NA
ATOM     40  C   UNL     1      12.385  11.617  21.013  0.00  0.00    +0.111 A 
ENDBRANCH   4   3
ENDBRANCH  10   9
BRANCH  12  13
ATOM     13  N   UNL     1      13.367  23.192  18.981  0.00  0.00    -0.281 N 
ATOM     14  C   UNL     1      13.825  24.267  19.725  0.00  0.00    +0.248 C 
ATOM     30  O   UNL     1      13.192  24.808  20.619  0.00  0.00    -0.270 OA
ATOM     31  H   UNL     1      13.905  22.964  18.144  0.00  0.00    +0.155 HD
BRANCH  14  15
ATOM     15  C   UNL     1      15.176  24.831  19.423  0.00  0.00    +0.037 A 
ATOM     16  C   UNL     1      16.354  24.439  20.201  0.00  0.00    +0.013 A 
ATOM     17  C   UNL     1      17.643  25.012  19.899  0.00  0.00    +0.005 A 
ATOM     18  C   UNL     1      17.759  25.981  18.813  0.00  0.00    -0.033 A 
ATOM     28  C   UNL     1      16.575  26.347  18.054  0.00  0.00    +0.005 A 
ATOM     29  C   UNL     1      15.310  25.789  18.347  0.00  0.00    +0.013 A 
BRANCH  18  19
ATOM     19  C   UNL     1      19.090  26.658  18.435  0.00  0.00    +0.119 C 
BRANCH  19  20
ATOM     20  N   UNL     1      19.016  27.888  17.591  0.00  0.00    -0.302 NA
ATOM     21  C   UNL     1      19.303  27.591  16.116  0.00  0.00    +0.066 C 
ATOM     22  C   UNL     1      19.199  28.884  15.244  0.00  0.00    -0.064 C 
ATOM     23  N   UNL     1      20.168  29.938  15.783  0.00  0.00    +0.379 N 
ATOM     24  C   UNL     1      20.115  31.135  14.931  0.00  0.00    -0.096 C 
ATOM     25  H   UNL     1      21.198  29.518  15.713  0.00  0.00    -0.082 HD
ATOM     26  C   UNL     1      19.892  30.238  17.250  0.00  0.00    -0.064 C 
ATOM     27  C   UNL     1      19.968  28.941  18.103  0.00  0.00    +0.066 C 
ENDBRANCH  19  20
ENDBRANCH  18  19
ENDBRANCH  14  15
ENDBRANCH  12  13
TORSDOF 6
ENDMDL
MODEL 2
REMARK VINA RESULT:      -8.4      5.472      8.991
REMARK  Name = C:\Users\Docking\Desktop\test protocol\1iep_ligandH.pdb
REMARK  8 active torsions:
REMARK  status: ('A' for Active; 'I' for Inactive)
REMARK    1  A    between atoms: _5  and  _11
REMARK    2  A    between atoms: _19  and  _21
REMARK    3  A    between atoms: _22  and  _66
REMARK    4  A    between atoms: _27  and  _30
REMARK    5  A    between atoms: _32  and  _33
REMARK    6  A    between atoms: _38  and  _43
REMARK    7  A    between atoms: _43  and  _46
REMARK    8  A    between atoms: _53  and  _55
REMARK                            x       y       z     vdW  Elec       q    Type
REMARK                         _______ _______ _______ _____ _____    ______ ____
ROOT
ATOM     10  C   UNL     1      13.871  12.664  20.880  0.00  0.00    +0.038 A 
ATOM     11  C   UNL     1      13.789  14.048  20.581  0.00  0.00    +0.047 A 
ATOM     12  C   UNL     1      12.994  14.531  19.464  0.00  0.00    +0.035 A 
ATOM     32  C   UNL     1      12.292  13.577  18.671  0.00  0.00    +0.024 A 
ATOM     33  C   UNL     1      12.364  12.166  18.960  0.00  0.00    +0.007 A 
ATOM     34  C   UNL     1      13.150  11.683  20.059  0.00  0.00    -0.029 A 
ATOM     35  C   UNL     1      13.197  10.159  20.318  0.00  0.00    +0.045 C 
ENDROOT
BRANCH  10   9
ATOM      4  C   UNL     1      17.853  10.742  22.747  0.00  0.00    +0.077 A 
ATOM      5  C   UNL     1      18.419  10.507  21.449  0.00  0.00    +0.048 A 
ATOM      6  C   UNL     1      17.650  10.889  20.327  0.00  0.00    +0.116 A 
ATOM      7  N   UNL     1      16.409  11.462  20.501  0.00  0.00    -0.223 NA
ATOM      8  C   UNL     1      15.892  11.673  21.766  0.00  0.00    +0.220 A 
ATOM      9  N   UNL     1      14.649  12.255  21.965  0.00  0.00    -0.283 N 
ATOM     36  H   UNL     1      14.300  12.387  22.914  0.00  0.00    +0.155 HD
ATOM     37  N   UNL     1      16.606  11.316  22.854  0.00  0.00    -0.214 NA
BRANCH   4   3
ATOM      1  C   UNL     1      18.543   9.690  26.450  0.00  0.00    +0.020 A 
ATOM      2  C   UNL     1      17.827  10.015  25.238  0.00  0.00    +0.013 A 
ATOM      3  C   UNL     1      18.545  10.396  24.029  0.00  0.00    +0.019 A 
ATOM     38  C   UNL     1      19.999  10.438  24.079  0.00  0.00    +0.120 A 
ATOM     39  N   UNL     1      20.661  10.121  25.261  0.00  0.00    -0.263 NA
ATOM     40  C   UNL     1      19.981   9.755  26.431  0.00  0.00    +0.111 A 
ENDBRANCH   4   3
ENDBRANCH  10   9
BRANCH  12  13
ATOM     13  N   UNL     1      12.879  15.924  19.108  0.00  0.00    -0.281 N 
ATOM     14  C   UNL     1      11.797  16.767  19.303  0.00  0.00    +0.248 C 
ATOM     30  O   UNL     1      10.679  16.393  19.623  0.00  0.00    -0.270 OA
ATOM     31  H   UNL     1      13.695  16.339  18.658  0.00  0.00    +0.155 HD
BRANCH  14  15
ATOM     15  C   UNL     1      11.981  18.236  19.100  0.00  0.00    +0.037 A 
ATOM     16  C   UNL     1      12.970  18.755  18.153  0.00  0.00    +0.013 A 
ATOM     17  C   UNL     1      13.139  20.177  17.989  0.00  0.00    +0.005 A 
ATOM     18  C   UNL     1      12.314  21.091  18.775  0.00  0.00    -0.033 A 
ATOM     28  C   UNL     1      11.336  20.550  19.704  0.00  0.00    +0.005 A 
ATOM     29  C   UNL     1      11.169  19.156  19.868  0.00  0.00    +0.013 A 
BRANCH  18  19
ATOM     19  C   UNL     1      12.440  22.623  18.680  0.00  0.00    +0.119 C 
BRANCH  19  20
ATOM     20  N   UNL     1      11.235  23.432  19.031  0.00  0.00    -0.302 NA
ATOM     21  C   UNL     1      10.499  23.935  17.786  0.00  0.00    +0.066 C 
ATOM     22  C   UNL     1       9.228  24.760  18.171  0.00  0.00    -0.064 C 
ATOM     23  N   UNL     1       9.635  25.929  19.069  0.00  0.00    +0.379 N 
ATOM     24  C   UNL     1       8.450  26.741  19.386  0.00  0.00    -0.096 C 
ATOM     25  H   UNL     1      10.339  26.571  18.490  0.00  0.00    -0.082 HD
ATOM     26  C   UNL     1      10.370  25.438  20.308  0.00  0.00    -0.064 C 
ATOM     27  C   UNL     1      11.615  24.595  19.914  0.00  0.00    +0.066 C 
ENDBRANCH  19  20
ENDBRANCH  18  19
ENDBRANCH  14  15
ENDBRANCH  12  13
TORSDOF 6
ENDMDL
MODEL 3
REMARK VINA RESULT:      -8.3      4.343      8.278
REMARK  Name = C:\Users\Docking\Desktop\test protocol\1iep_ligandH.pdb
REMARK  8 active torsions:
REMARK  status: ('A' for Active; 'I' for Inactive)
REMARK    1  A    between atoms: _5  and  _11
REMARK    2  A    between atoms: _19  and  _21
REMARK    3  A    between atoms: _22  and  _66
REMARK    4  A    between atoms: _27  and  _30
REMARK    5  A    between atoms: _32  and  _33
REMARK    6  A    between atoms: _38  and  _43
REMARK    7  A    between atoms: _43  and  _46
REMARK    8  A    between atoms: _53  and  _55
REMARK                            x       y       z     vdW  Elec       q    Type
REMARK                         _______ _______ _______ _____ _____    ______ ____
ROOT
ATOM     10  C   UNL     1      13.867  12.661  20.959  0.00  0.00    +0.038 A 
ATOM     11  C   UNL     1      13.824  14.034  20.604  0.00  0.00    +0.047 A 
ATOM     12  C   UNL     1      13.013  14.497  19.489  0.00  0.00    +0.035 A 
ATOM     32  C   UNL     1      12.256  13.536  18.759  0.00  0.00    +0.024 A 
ATOM     33  C   UNL     1      12.289  12.136  19.106  0.00  0.00    +0.007 A 
ATOM     34  C   UNL     1      13.089  11.673  20.203  0.00  0.00    -0.029 A 
ATOM     35  C   UNL     1      13.092  10.160  20.525  0.00  0.00    +0.045 C 
ENDROOT
BRANCH  10   9
ATOM      4  C   UNL     1      17.866  10.742  22.795  0.00  0.00    +0.077 A 
ATOM      5  C   UNL     1      18.403  10.469  21.493  0.00  0.00    +0.048 A 
ATOM      6  C   UNL     1      17.615  10.831  20.377  0.00  0.00    +0.116 A 
ATOM      7  N   UNL     1      16.384  11.422  20.561  0.00  0.00    -0.223 NA
ATOM      8  C   UNL     1      15.895  11.671  21.830  0.00  0.00    +0.220 A 
ATOM      9  N   UNL     1      14.663  12.271  22.039  0.00  0.00    -0.283 N 
ATOM     36  H   UNL     1      14.335  12.431  22.991  0.00  0.00    +0.155 HD
ATOM     37  N   UNL     1      16.627  11.333  22.912  0.00  0.00    -0.214 NA
BRANCH   4   3
ATOM      1  C   UNL     1      18.620   9.759  26.505  0.00  0.00    +0.020 A 
ATOM      2  C   UNL     1      17.883  10.061  25.299  0.00  0.00    +0.013 A 
ATOM      3  C   UNL     1      18.580  10.421  24.071  0.00  0.00    +0.019 A 
ATOM     38  C   UNL     1      20.034  10.467  24.096  0.00  0.00    +0.120 A 
ATOM     39  N   UNL     1      20.717  10.173  25.272  0.00  0.00    -0.263 NA
ATOM     40  C   UNL     1      20.057   9.827  26.461  0.00  0.00    +0.111 A 
ENDBRANCH   4   3
ENDBRANCH  10   9
BRANCH  12  13
ATOM     13  N   UNL     1      12.936  15.877  19.077  0.00  0.00    -0.281 N 
ATOM     14  C   UNL     1      11.877  16.756  19.239  0.00  0.00    +0.248 C 
ATOM     30  O   UNL     1      10.749  16.426  19.574  0.00  0.00    -0.270 OA
ATOM     31  H   UNL     1      13.762  16.251  18.610  0.00  0.00    +0.155 HD
BRANCH  14  15
ATOM     15  C   UNL     1      12.100  18.210  18.976  0.00  0.00    +0.037 A 
ATOM     16  C   UNL     1      13.088  18.662  17.993  0.00  0.00    +0.013 A 
ATOM     17  C   UNL     1      13.295  20.072  17.771  0.00  0.00    +0.005 A 
ATOM     18  C   UNL     1      12.511  21.040  18.535  0.00  0.00    -0.033 A 
ATOM     28  C   UNL     1      11.534  20.564  19.500  0.00  0.00    +0.005 A 
ATOM     29  C   UNL     1      11.329  19.183  19.721  0.00  0.00    +0.013 A 
BRANCH  18  19
ATOM     19  C   UNL     1      12.681  22.562  18.379  0.00  0.00    +0.119 C 
BRANCH  19  20
ATOM     20  N   UNL     1      13.966  23.159  18.849  0.00  0.00    -0.302 NA
ATOM     21  C   UNL     1      13.742  24.436  19.665  0.00  0.00    +0.066 C 
ATOM     22  C   UNL     1      15.096  25.034  20.168  0.00  0.00    -0.064 C 
ATOM     23  N   UNL     1      16.006  25.309  18.970  0.00  0.00    +0.379 N 
ATOM     24  C   UNL     1      17.257  25.925  19.435  0.00  0.00    -0.096 C 
ATOM     25  H   UNL     1      15.488  26.047  18.315  0.00  0.00    -0.082 HD
ATOM     26  C   UNL     1      16.232  24.045  18.152  0.00  0.00    -0.064 C 
ATOM     27  C   UNL     1      14.879  23.442  17.682  0.00  0.00    +0.066 C 
ENDBRANCH  19  20
ENDBRANCH  18  19
ENDBRANCH  14  15
ENDBRANCH  12  13
TORSDOF 6
ENDMDL
MODEL 4
REMARK VINA RESULT:      -8.3      5.236      8.188
REMARK  Name = C:\Users\Docking\Desktop\test protocol\1iep_ligandH.pdb
REMARK  8 active torsions:
REMARK  status: ('A' for Active; 'I' for Inactive)
REMARK    1  A    between atoms: _5  and  _11
REMARK    2  A    between atoms: _19  and  _21
REMARK    3  A    between atoms: _22  and  _66
REMARK    4  A    between atoms: _27  and  _30
REMARK    5  A    between atoms: _32  and  _33
REMARK    6  A    between atoms: _38  and  _43
REMARK    7  A    between atoms: _43  and  _46
REMARK    8  A    between atoms: _53  and  _55
REMARK                            x       y       z     vdW  Elec       q    Type
REMARK                         _______ _______ _______ _____ _____    ______ ____
ROOT
ATOM     10  C   UNL     1      12.878  13.709  20.923  0.00  0.00    +0.038 A 
ATOM     11  C   UNL     1      12.821  15.109  20.699  0.00  0.00    +0.047 A 
ATOM     12  C   UNL     1      11.839  15.687  19.795  0.00  0.00    +0.035 A 
ATOM     32  C   UNL     1      10.929  14.811  19.136  0.00  0.00    +0.024 A 
ATOM     33  C   UNL     1      10.973  13.386  19.350  0.00  0.00    +0.007 A 
ATOM     34  C   UNL     1      11.941  12.809  20.239  0.00  0.00    -0.029 A 
ATOM     35  C   UNL     1      11.947  11.274  20.426  0.00  0.00    +0.045 C 
ENDROOT
BRANCH  10   9
ATOM      4  C   UNL     1      16.984  11.397  21.832  0.00  0.00    +0.077 A 
ATOM      5  C   UNL     1      17.218  11.142  20.440  0.00  0.00    +0.048 A 
ATOM      6  C   UNL     1      16.254  11.617  19.523  0.00  0.00    +0.116 A 
ATOM      7  N   UNL     1      15.143  12.295  19.975  0.00  0.00    -0.223 NA
ATOM      8  C   UNL     1      14.946  12.522  21.325  0.00  0.00    +0.220 A 
ATOM      9  N   UNL     1      13.840  13.208  21.802  0.00  0.00    -0.283 N 
ATOM     36  H   UNL     1      13.728  13.348  22.805  0.00  0.00    +0.155 HD
ATOM     37  N   UNL     1      15.852  12.077  22.221  0.00  0.00    -0.214 NA
BRANCH   4   3
ATOM      1  C   UNL     1      19.427   9.274  24.029  0.00  0.00    +0.020 A 
ATOM      2  C   UNL     1      18.537   9.645  22.952  0.00  0.00    +0.013 A 
ATOM      3  C   UNL     1      17.912  10.961  22.923  0.00  0.00    +0.019 A 
ATOM     38  C   UNL     1      18.212  11.886  24.005  0.00  0.00    +0.120 A 
ATOM     39  N   UNL     1      19.071  11.500  25.029  0.00  0.00    -0.263 NA
ATOM     40  C   UNL     1      19.677  10.236  25.069  0.00  0.00    +0.111 A 
ENDBRANCH   4   3
ENDBRANCH  10   9
BRANCH  12  13
ATOM     13  N   UNL     1      11.739  17.100  19.523  0.00  0.00    -0.281 N 
ATOM     14  C   UNL     1      10.723  17.967  19.888  0.00  0.00    +0.248 C 
ATOM     30  O   UNL     1       9.636  17.615  20.323  0.00  0.00    -0.270 OA
ATOM     31  H   UNL     1      12.511  17.510  18.997  0.00  0.00    +0.155 HD
BRANCH  14  15
ATOM     15  C   UNL     1      10.940  19.438  19.735  0.00  0.00    +0.037 A 
ATOM     16  C   UNL     1       9.925  20.404  20.163  0.00  0.00    +0.013 A 
ATOM     17  C   UNL     1      10.152  21.817  19.988  0.00  0.00    +0.005 A 
ATOM     18  C   UNL     1      11.401  22.272  19.383  0.00  0.00    -0.033 A 
ATOM     28  C   UNL     1      12.393  21.292  18.973  0.00  0.00    +0.005 A 
ATOM     29  C   UNL     1      12.174  19.907  19.142  0.00  0.00    +0.013 A 
BRANCH  18  19
ATOM     19  C   UNL     1      11.719  23.759  19.139  0.00  0.00    +0.119 C 
BRANCH  19  20
ATOM     20  N   UNL     1      10.629  24.608  18.573  0.00  0.00    -0.302 NA
ATOM     21  C   UNL     1      10.108  24.061  17.241  0.00  0.00    +0.066 C 
ATOM     22  C   UNL     1       8.952  24.948  16.674  0.00  0.00    -0.064 C 
ATOM     23  N   UNL     1       9.449  26.386  16.512  0.00  0.00    +0.379 N 
ATOM     24  C   UNL     1       8.382  27.210  15.925  0.00  0.00    -0.096 C 
ATOM     25  H   UNL     1      10.300  26.370  15.792  0.00  0.00    -0.082 HD
ATOM     26  C   UNL     1       9.971  26.936  17.831  0.00  0.00    -0.064 C 
ATOM     27  C   UNL     1      11.099  26.031  18.401  0.00  0.00    +0.066 C 
ENDBRANCH  19  20
ENDBRANCH  18  19
ENDBRANCH  14  15
ENDBRANCH  12  13
TORSDOF 6
ENDMDL
MODEL 5
REMARK VINA RESULT:      -8.3      2.038     12.210
REMARK  Name = C:\Users\Docking\Desktop\test protocol\1iep_ligandH.pdb
REMARK  8 active torsions:
REMARK  status: ('A' for Active; 'I' for Inactive)
REMARK    1  A    between atoms: _5  and  _11
REMARK    2  A    between atoms: _19  and  _21
REMARK    3  A    between atoms: _22  and  _66
REMARK    4  A    between atoms: _27  and  _30
REMARK    5  A    between atoms: _32  and  _33
REMARK    6  A    between atoms: _38  and  _43
REMARK    7  A    between atoms: _43  and  _46
REMARK    8  A    between atoms: _53  and  _55
REMARK                            x       y       z     vdW  Elec       q    Type
REMARK                         _______ _______ _______ _____ _____    ______ ____
ROOT
ATOM     10  C   UNL     1      12.692  24.546  18.716  0.00  0.00    +0.038 A 
ATOM     11  C   UNL     1      12.612  23.131  18.765  0.00  0.00    +0.047 A 
ATOM     12  C   UNL     1      11.475  22.462  19.379  0.00  0.00    +0.035 A 
ATOM     32  C   UNL     1      10.437  23.267  19.932  0.00  0.00    +0.024 A 
ATOM     33  C   UNL     1      10.502  24.706  19.893  0.00  0.00    +0.007 A 
ATOM     34  C   UNL     1      11.622  25.371  19.290  0.00  0.00    -0.029 A 
ATOM     35  C   UNL     1      11.643  26.918  19.282  0.00  0.00    +0.045 C 
ENDROOT
BRANCH  10   9
ATOM      4  C   UNL     1      17.306  25.869  18.730  0.00  0.00    +0.077 A 
ATOM      5  C   UNL     1      17.507  25.368  20.059  0.00  0.00    +0.048 A 
ATOM      6  C   UNL     1      16.396  24.784  20.707  0.00  0.00    +0.116 A 
ATOM      7  N   UNL     1      15.179  24.711  20.064  0.00  0.00    -0.223 NA
ATOM      8  C   UNL     1      15.019  25.205  18.783  0.00  0.00    +0.220 A 
ATOM      9  N   UNL     1      13.806  25.135  18.114  0.00  0.00    -0.283 N 
ATOM     36  H   UNL     1      13.727  25.518  17.173  0.00  0.00    +0.155 HD
ATOM     37  N   UNL     1      16.064  25.770  18.143  0.00  0.00    -0.214 NA
BRANCH   4   3
ATOM      1  C   UNL     1      20.255  28.172  17.590  0.00  0.00    +0.020 A 
ATOM      2  C   UNL     1      19.228  27.586  18.420  0.00  0.00    +0.013 A 
ATOM      3  C   UNL     1      18.384  26.512  17.913  0.00  0.00    +0.019 A 
ATOM     38  C   UNL     1      18.608  26.048  16.552  0.00  0.00    +0.120 A 
ATOM     39  N   UNL     1      19.604  26.632  15.776  0.00  0.00    -0.263 NA
ATOM     40  C   UNL     1      20.421  27.668  16.252  0.00  0.00    +0.111 A 
ENDBRANCH   4   3
ENDBRANCH  10   9
BRANCH  12  13
ATOM     13  N   UNL     1      11.343  21.029  19.465  0.00  0.00    -0.281 N 
ATOM     14  C   UNL     1      11.475  20.099  18.447  0.00  0.00    +0.248 C 
ATOM     30  O   UNL     1      11.517  20.378  17.258  0.00  0.00    -0.270 OA
ATOM     31  H   UNL     1      11.125  20.655  20.389  0.00  0.00    +0.155 HD
BRANCH  14  15
ATOM     15  C   UNL     1      11.558  18.649  18.800  0.00  0.00    +0.037 A 
ATOM     16  C   UNL     1      12.384  17.723  18.021  0.00  0.00    +0.013 A 
ATOM     17  C   UNL     1      12.433  16.326  18.372  0.00  0.00    +0.005 A 
ATOM     18  C   UNL     1      11.654  15.847  19.511  0.00  0.00    -0.033 A 
ATOM     28  C   UNL     1      10.847  16.788  20.270  0.00  0.00    +0.005 A 
ATOM     29  C   UNL     1      10.796  18.158  19.928  0.00  0.00    +0.013 A 
BRANCH  18  19
ATOM     19  C   UNL     1      11.629  14.369  19.945  0.00  0.00    +0.119 C 
BRANCH  19  20
ATOM     20  N   UNL     1      12.944  13.673  20.074  0.00  0.00    -0.302 NA
ATOM     21  C   UNL     1      12.793  12.262  20.651  0.00  0.00    +0.066 C 
ATOM     22  C   UNL     1      14.175  11.540  20.758  0.00  0.00    -0.064 C 
ATOM     23  N   UNL     1      15.121  12.379  21.619  0.00  0.00    +0.379 N 
ATOM     24  C   UNL     1      16.402  11.674  21.769  0.00  0.00    -0.096 C 
ATOM     25  H   UNL     1      14.664  12.470  22.632  0.00  0.00    -0.082 HD
ATOM     26  C   UNL     1      15.275  13.784  21.054  0.00  0.00    -0.064 C 
ATOM     27  C   UNL     1      13.892  14.482  20.924  0.00  0.00    +0.066 C 
ENDBRANCH  19  20
ENDBRANCH  18  19
ENDBRANCH  14  15
ENDBRANCH  12  13
TORSDOF 6
ENDMDL
