MODEL 1
REMARK VINA RESULT:     -10.6      0.000      0.000
REMARK  Name = C:\Users\Docking\Desktop\test protocol\1iep_ligandH.pdb
REMARK  8 active torsions:
REMARK  status: ('A' for Active; 'I' for Inactive)
REMARK    1  A    between atoms: _5  and  _11
REMARK    2  A    between atoms: _19  and  _21
REMARK    3  A    between atoms: _22  and  _66
REMARK    4  A    between atoms: _27  and  _30
REMARK    5  A    between atoms: _32  and  _33
REMARK    6  A    between atoms: _38  and  _43
REMARK    7  A    between atoms: _43  and  _46
REMARK    8  A    between atoms: _53  and  _55
REMARK                            x       y       z     vdW  Elec       q    Type
REMARK                         _______ _______ _______ _____ _____    ______ ____
ROOT
ATOM     10  C   UNL     1     -30.645  26.011  18.564  0.00  0.00    +0.038 A 
ATOM     11  C   UNL     1     -31.112  24.673  18.518  0.00  0.00    +0.047 A 
ATOM     12  C   UNL     1     -32.301  24.265  19.251  0.00  0.00    +0.035 A 
ATOM     32  C   UNL     1     -32.990  25.248  20.020  0.00  0.00    +0.024 A 
ATOM     33  C   UNL     1     -32.528  26.612  20.079  0.00  0.00    +0.007 A 
ATOM     34  C   UNL     1     -31.355  27.019  19.359  0.00  0.00    -0.029 A 
ATOM     35  C   UNL     1     -30.901  28.494  19.464  0.00  0.00    +0.045 C 
ENDROOT
BRANCH  10   9
ATOM      4  C   UNL     1     -28.315  26.760  14.435  0.00  0.00    +0.077 A 
ATOM      5  C   UNL     1     -29.471  26.427  13.653  0.00  0.00    +0.048 A 
ATOM      6  C   UNL     1     -30.643  26.062  14.352  0.00  0.00    +0.116 A 
ATOM      7  N   UNL     1     -30.648  26.035  15.730  0.00  0.00    -0.223 NA
ATOM      8  C   UNL     1     -29.515  26.360  16.453  0.00  0.00    +0.220 A 
ATOM      9  N   UNL     1     -29.499  26.347  17.839  0.00  0.00    -0.283 N 
ATOM     36  H   UNL     1     -28.641  26.586  18.336  0.00  0.00    +0.155 HD
ATOM     37  N   UNL     1     -28.382  26.710  15.809  0.00  0.00    -0.214 NA
BRANCH   4   3
ATOM      1  C   UNL     1     -24.608  26.719  13.185  0.00  0.00    +0.020 A 
ATOM      2  C   UNL     1     -25.853  26.275  13.768  0.00  0.00    +0.013 A 
ATOM      3  C   UNL     1     -27.002  27.169  13.842  0.00  0.00    +0.019 A 
ATOM     38  C   UNL     1     -26.858  28.516  13.311  0.00  0.00    +0.120 A 
ATOM     39  N   UNL     1     -25.646  28.916  12.757  0.00  0.00    -0.263 NA
ATOM     40  C   UNL     1     -24.533  28.066  12.682  0.00  0.00    +0.111 A 
ENDBRANCH   4   3
ENDBRANCH  10   9
BRANCH  12  13
ATOM     13  N   UNL     1     -32.818  22.919  19.249  0.00  0.00    -0.281 N 
ATOM     14  C   UNL     1     -32.181  21.761  19.663  0.00  0.00    +0.248 C 
ATOM     30  O   UNL     1     -30.985  21.677  19.902  0.00  0.00    -0.270 OA
ATOM     31  H   UNL     1     -33.770  22.807  18.899  0.00  0.00    +0.155 HD
BRANCH  14  15
ATOM     15  C   UNL     1     -32.986  20.512  19.823  0.00  0.00    +0.037 A 
ATOM     16  C   UNL     1     -33.322  19.988  21.149  0.00  0.00    +0.013 A 
ATOM     17  C   UNL     1     -34.085  18.772  21.275  0.00  0.00    +0.005 A 
ATOM     18  C   UNL     1     -34.519  18.071  20.068  0.00  0.00    -0.033 A 
ATOM     28  C   UNL     1     -34.176  18.615  18.765  0.00  0.00    +0.005 A 
ATOM     29  C   UNL     1     -33.427  19.807  18.638  0.00  0.00    +0.013 A 
BRANCH  18  19
ATOM     19  C   UNL     1     -35.319  16.755  20.107  0.00  0.00    +0.119 C 
BRANCH  19  20
ATOM     20  N   UNL     1     -35.202  15.849  18.926  0.00  0.00    -0.302 NA
ATOM     21  C   UNL     1     -36.496  15.072  18.668  0.00  0.00    +0.066 C 
ATOM     22  C   UNL     1     -36.364  14.146  17.415  0.00  0.00    -0.064 C 
ATOM     23  N   UNL     1     -35.188  13.188  17.615  0.00  0.00    +0.379 N 
ATOM     24  C   UNL     1     -35.097  12.277  16.465  0.00  0.00    -0.096 C 
ATOM     25  H   UNL     1     -35.404  12.572  18.519  0.00  0.00    -0.082 HD
ATOM     26  C   UNL     1     -33.898  13.952  17.875  0.00  0.00    -0.064 C 
ATOM     27  C   UNL     1     -34.049  14.891  19.104  0.00  0.00    +0.066 C 
ENDBRANCH  19  20
ENDBRANCH  18  19
ENDBRANCH  14  15
ENDBRANCH  12  13
TORSDOF 6
ENDMDL
MODEL 2
REMARK VINA RESULT:      -9.8      1.524      1.976
REMARK  Name = C:\Users\Docking\Desktop\test protocol\1iep_ligandH.pdb
REMARK  8 active torsions:
REMARK  status: ('A' for Active; 'I' for Inactive)
REMARK    1  A    between atoms: _5  and  _11
REMARK    2  A    between atoms: _19  and  _21
REMARK    3  A    between atoms: _22  and  _66
REMARK    4  A    between atoms: _27  and  _30
REMARK    5  A    between atoms: _32  and  _33
REMARK    6  A    between atoms: _38  and  _43
REMARK    7  A    between atoms: _43  and  _46
REMARK    8  A    between atoms: _53  and  _55
REMARK                            x       y       z     vdW  Elec       q    Type
REMARK                         _______ _______ _______ _____ _____    ______ ____
ROOT
ATOM     10  C   UNL     1     -30.441  26.147  18.519  0.00  0.00    +0.038 A 
ATOM     11  C   UNL     1     -30.873  24.804  18.371  0.00  0.00    +0.047 A 
ATOM     12  C   UNL     1     -31.890  24.240  19.244  0.00  0.00    +0.035 A 
ATOM     32  C   UNL     1     -32.448  25.073  20.258  0.00  0.00    +0.024 A 
ATOM     33  C   UNL     1     -32.020  26.440  20.423  0.00  0.00    +0.007 A 
ATOM     34  C   UNL     1     -31.016  27.001  19.565  0.00  0.00    -0.029 A 
ATOM     35  C   UNL     1     -30.591  28.470  19.792  0.00  0.00    +0.045 C 
ENDROOT
BRANCH  10   9
ATOM      4  C   UNL     1     -28.727  26.997  14.117  0.00  0.00    +0.077 A 
ATOM      5  C   UNL     1     -29.866  26.389  13.492  0.00  0.00    +0.048 A 
ATOM      6  C   UNL     1     -30.867  25.863  14.338  0.00  0.00    +0.116 A 
ATOM      7  N   UNL     1     -30.730  25.945  15.707  0.00  0.00    -0.223 NA
ATOM      8  C   UNL     1     -29.618  26.536  16.278  0.00  0.00    +0.220 A 
ATOM      9  N   UNL     1     -29.462  26.637  17.652  0.00  0.00    -0.283 N 
ATOM     36  H   UNL     1     -28.624  27.074  18.034  0.00  0.00    +0.155 HD
ATOM     37  N   UNL     1     -28.647  27.045  15.491  0.00  0.00    -0.214 NA
BRANCH   4   3
ATOM      1  C   UNL     1     -26.044  27.725  11.365  0.00  0.00    +0.020 A 
ATOM      2  C   UNL     1     -27.151  27.106  12.057  0.00  0.00    +0.013 A 
ATOM      3  C   UNL     1     -27.587  27.600  13.357  0.00  0.00    +0.019 A 
ATOM     38  C   UNL     1     -26.876  28.732  13.933  0.00  0.00    +0.120 A 
ATOM     39  N   UNL     1     -25.813  29.307  13.244  0.00  0.00    -0.263 NA
ATOM     40  C   UNL     1     -25.384  28.839  11.993  0.00  0.00    +0.111 A 
ENDBRANCH   4   3
ENDBRANCH  10   9
BRANCH  12  13
ATOM     13  N   UNL     1     -32.362  22.881  19.147  0.00  0.00    -0.281 N 
ATOM     14  C   UNL     1     -31.864  21.758  19.788  0.00  0.00    +0.248 C 
ATOM     30  O   UNL     1     -30.796  21.717  20.381  0.00  0.00    -0.270 OA
ATOM     31  H   UNL     1     -33.160  22.728  18.530  0.00  0.00    +0.155 HD
BRANCH  14  15
ATOM     15  C   UNL     1     -32.660  20.494  19.753  0.00  0.00    +0.037 A 
ATOM     16  C   UNL     1     -32.608  19.532  20.856  0.00  0.00    +0.013 A 
ATOM     17  C   UNL     1     -33.373  18.312  20.789  0.00  0.00    +0.005 A 
ATOM     18  C   UNL     1     -34.198  18.048  19.613  0.00  0.00    -0.033 A 
ATOM     28  C   UNL     1     -34.236  19.022  18.535  0.00  0.00    +0.005 A 
ATOM     29  C   UNL     1     -33.487  20.218  18.597  0.00  0.00    +0.013 A 
BRANCH  18  19
ATOM     19  C   UNL     1     -35.031  16.763  19.447  0.00  0.00    +0.119 C 
BRANCH  19  20
ATOM     20  N   UNL     1     -34.993  15.774  20.566  0.00  0.00    -0.302 NA
ATOM     21  C   UNL     1     -33.974  14.659  20.313  0.00  0.00    +0.066 C 
ATOM     22  C   UNL     1     -33.932  13.646  21.503  0.00  0.00    -0.064 C 
ATOM     23  N   UNL     1     -35.329  13.063  21.724  0.00  0.00    +0.379 N 
ATOM     24  C   UNL     1     -35.280  12.068  22.804  0.00  0.00    -0.096 C 
ATOM     25  H   UNL     1     -35.625  12.534  20.788  0.00  0.00    -0.082 HD
ATOM     26  C   UNL     1     -36.348  14.166  21.973  0.00  0.00    -0.064 C 
ATOM     27  C   UNL     1     -36.362  15.183  20.798  0.00  0.00    +0.066 C 
ENDBRANCH  19  20
ENDBRANCH  18  19
ENDBRANCH  14  15
ENDBRANCH  12  13
TORSDOF 6
ENDMDL
MODEL 3
REMARK VINA RESULT:      -9.3      6.433     11.161
REMARK  Name = C:\Users\Docking\Desktop\test protocol\1iep_ligandH.pdb
REMARK  8 active torsions:
REMARK  status: ('A' for Active; 'I' for Inactive)
REMARK    1  A    between atoms: _5  and  _11
REMARK    2  A    between atoms: _19  and  _21
REMARK    3  A    between atoms: _22  and  _66
REMARK    4  A    between atoms: _27  and  _30
REMARK    5  A    between atoms: _32  and  _33
REMARK    6  A    between atoms: _38  and  _43
REMARK    7  A    between atoms: _43  and  _46
REMARK    8  A    between atoms: _53  and  _55
REMARK                            x       y       z     vdW  Elec       q    Type
REMARK                         _______ _______ _______ _____ _____    ______ ____
ROOT
ATOM     10  C   UNL     1     -28.456  16.256  20.030  0.00  0.00    +0.038 A 
ATOM     11  C   UNL     1     -28.921  17.565  19.741  0.00  0.00    +0.047 A 
ATOM     12  C   UNL     1     -29.549  18.384  20.766  0.00  0.00    +0.035 A 
ATOM     32  C   UNL     1     -29.686  17.839  22.076  0.00  0.00    +0.024 A 
ATOM     33  C   UNL     1     -29.220  16.511  22.387  0.00  0.00    +0.007 A 
ATOM     34  C   UNL     1     -28.602  15.697  21.380  0.00  0.00    -0.029 A 
ATOM     35  C   UNL     1     -28.127  14.278  21.768  0.00  0.00    +0.045 C 
ENDROOT
BRANCH  10   9
ATOM      4  C   UNL     1     -24.740  15.195  17.183  0.00  0.00    +0.077 A 
ATOM      5  C   UNL     1     -23.926  16.224  17.763  0.00  0.00    +0.048 A 
ATOM      6  C   UNL     1     -24.504  17.009  18.786  0.00  0.00    +0.116 A 
ATOM      7  N   UNL     1     -25.799  16.773  19.192  0.00  0.00    -0.223 NA
ATOM      8  C   UNL     1     -26.558  15.774  18.610  0.00  0.00    +0.220 A 
ATOM      9  N   UNL     1     -27.860  15.514  19.008  0.00  0.00    -0.283 N 
ATOM     36  H   UNL     1     -28.389  14.773  18.549  0.00  0.00    +0.155 HD
ATOM     37  N   UNL     1     -26.030  15.011  17.631  0.00  0.00    -0.214 NA
BRANCH   4   3
ATOM      1  C   UNL     1     -24.183  12.038  14.941  0.00  0.00    +0.020 A 
ATOM      2  C   UNL     1     -24.664  12.879  16.013  0.00  0.00    +0.013 A 
ATOM      3  C   UNL     1     -24.271  14.280  16.095  0.00  0.00    +0.019 A 
ATOM     38  C   UNL     1     -23.384  14.804  15.067  0.00  0.00    +0.120 A 
ATOM     39  N   UNL     1     -22.936  13.970  14.048  0.00  0.00    -0.263 NA
ATOM     40  C   UNL     1     -23.306  12.620  13.960  0.00  0.00    +0.111 A 
ENDBRANCH   4   3
ENDBRANCH  10   9
BRANCH  12  13
ATOM     13  N   UNL     1     -30.047  19.716  20.529  0.00  0.00    -0.281 N 
ATOM     14  C   UNL     1     -31.272  20.246  20.902  0.00  0.00    +0.248 C 
ATOM     30  O   UNL     1     -32.215  19.586  21.311  0.00  0.00    -0.270 OA
ATOM     31  H   UNL     1     -29.421  20.345  20.025  0.00  0.00    +0.155 HD
BRANCH  14  15
ATOM     15  C   UNL     1     -31.484  21.722  20.790  0.00  0.00    +0.037 A 
ATOM     16  C   UNL     1     -32.819  22.283  20.569  0.00  0.00    +0.013 A 
ATOM     17  C   UNL     1     -32.993  23.709  20.448  0.00  0.00    +0.005 A 
ATOM     18  C   UNL     1     -31.828  24.584  20.549  0.00  0.00    -0.033 A 
ATOM     28  C   UNL     1     -30.516  24.001  20.774  0.00  0.00    +0.005 A 
ATOM     29  C   UNL     1     -30.341  22.604  20.892  0.00  0.00    +0.013 A 
BRANCH  18  19
ATOM     19  C   UNL     1     -31.918  26.115  20.411  0.00  0.00    +0.119 C 
BRANCH  19  20
ATOM     20  N   UNL     1     -31.565  26.704  19.085  0.00  0.00    -0.302 NA
ATOM     21  C   UNL     1     -31.156  25.632  18.071  0.00  0.00    +0.066 C 
ATOM     22  C   UNL     1     -30.812  26.263  16.682  0.00  0.00    -0.064 C 
ATOM     23  N   UNL     1     -29.697  27.296  16.857  0.00  0.00    +0.379 N 
ATOM     24  C   UNL     1     -29.331  27.849  15.545  0.00  0.00    -0.096 C 
ATOM     25  H   UNL     1     -28.805  26.764  17.261  0.00  0.00    -0.082 HD
ATOM     26  C   UNL     1     -30.094  28.364  17.866  0.00  0.00    -0.064 C 
ATOM     27  C   UNL     1     -30.462  27.724  19.233  0.00  0.00    +0.066 C 
ENDBRANCH  19  20
ENDBRANCH  18  19
ENDBRANCH  14  15
ENDBRANCH  12  13
TORSDOF 6
ENDMDL
MODEL 4
REMARK VINA RESULT:      -9.1      6.932     11.285
REMARK  Name = C:\Users\Docking\Desktop\test protocol\1iep_ligandH.pdb
REMARK  8 active torsions:
REMARK  status: ('A' for Active; 'I' for Inactive)
REMARK    1  A    between atoms: _5  and  _11
REMARK    2  A    between atoms: _19  and  _21
REMARK    3  A    between atoms: _22  and  _66
REMARK    4  A    between atoms: _27  and  _30
REMARK    5  A    between atoms: _32  and  _33
REMARK    6  A    between atoms: _38  and  _43
REMARK    7  A    between atoms: _43  and  _46
REMARK    8  A    between atoms: _53  and  _55
REMARK                            x       y       z     vdW  Elec       q    Type
REMARK                         _______ _______ _______ _____ _____    ______ ____
ROOT
ATOM     10  C   UNL     1     -25.750  17.047  20.670  0.00  0.00    +0.038 A 
ATOM     11  C   UNL     1     -26.663  18.082  20.345  0.00  0.00    +0.047 A 
ATOM     12  C   UNL     1     -27.453  18.739  21.374  0.00  0.00    +0.035 A 
ATOM     32  C   UNL     1     -27.285  18.318  22.726  0.00  0.00    +0.024 A 
ATOM     33  C   UNL     1     -26.363  17.267  23.074  0.00  0.00    +0.007 A 
ATOM     34  C   UNL     1     -25.583  16.613  22.062  0.00  0.00    -0.029 A 
ATOM     35  C   UNL     1     -24.614  15.487  22.492  0.00  0.00    +0.045 C 
ENDROOT
BRANCH  10   9
ATOM      4  C   UNL     1     -25.418  14.272  16.767  0.00  0.00    +0.077 A 
ATOM      5  C   UNL     1     -26.818  13.963  16.795  0.00  0.00    +0.048 A 
ATOM      6  C   UNL     1     -27.588  14.532  17.835  0.00  0.00    +0.116 A 
ATOM      7  N   UNL     1     -26.990  15.349  18.770  0.00  0.00    -0.223 NA
ATOM      8  C   UNL     1     -25.637  15.626  18.715  0.00  0.00    +0.220 A 
ATOM      9  N   UNL     1     -25.017  16.450  19.641  0.00  0.00    -0.283 N 
ATOM     36  H   UNL     1     -24.014  16.624  19.570  0.00  0.00    +0.155 HD
ATOM     37  N   UNL     1     -24.880  15.093  17.733  0.00  0.00    -0.214 NA
BRANCH   4   3
ATOM      1  C   UNL     1     -22.680  14.055  13.981  0.00  0.00    +0.020 A 
ATOM      2  C   UNL     1     -23.573  14.610  14.972  0.00  0.00    +0.013 A 
ATOM      3  C   UNL     1     -24.473  13.750  15.730  0.00  0.00    +0.019 A 
ATOM     38  C   UNL     1     -24.444  12.320  15.459  0.00  0.00    +0.120 A 
ATOM     39  N   UNL     1     -23.575  11.814  14.498  0.00  0.00    -0.263 NA
ATOM     40  C   UNL     1     -22.705  12.632  13.761  0.00  0.00    +0.111 A 
ENDBRANCH   4   3
ENDBRANCH  10   9
BRANCH  12  13
ATOM     13  N   UNL     1     -28.401  19.791  21.104  0.00  0.00    -0.281 N 
ATOM     14  C   UNL     1     -29.709  19.894  21.548  0.00  0.00    +0.248 C 
ATOM     30  O   UNL     1     -30.333  18.985  22.075  0.00  0.00    -0.270 OA
ATOM     31  H   UNL     1     -28.068  20.553  20.512  0.00  0.00    +0.155 HD
BRANCH  14  15
ATOM     15  C   UNL     1     -30.433  21.189  21.369  0.00  0.00    +0.037 A 
ATOM     16  C   UNL     1     -29.781  22.470  21.652  0.00  0.00    +0.013 A 
ATOM     17  C   UNL     1     -30.508  23.704  21.487  0.00  0.00    +0.005 A 
ATOM     18  C   UNL     1     -31.896  23.662  21.035  0.00  0.00    -0.033 A 
ATOM     28  C   UNL     1     -32.517  22.378  20.757  0.00  0.00    +0.005 A 
ATOM     29  C   UNL     1     -31.808  21.166  20.918  0.00  0.00    +0.013 A 
BRANCH  18  19
ATOM     19  C   UNL     1     -32.754  24.928  20.852  0.00  0.00    +0.119 C 
BRANCH  19  20
ATOM     20  N   UNL     1     -32.337  25.888  19.787  0.00  0.00    -0.302 NA
ATOM     21  C   UNL     1     -31.673  25.181  18.602  0.00  0.00    +0.066 C 
ATOM     22  C   UNL     1     -31.264  26.198  17.488  0.00  0.00    -0.064 C 
ATOM     23  N   UNL     1     -30.328  27.252  18.083  0.00  0.00    +0.379 N 
ATOM     24  C   UNL     1     -29.895  28.177  17.025  0.00  0.00    -0.096 C 
ATOM     25  H   UNL     1     -29.423  26.724  18.463  0.00  0.00    -0.082 HD
ATOM     26  C   UNL     1     -30.980  27.959  19.264  0.00  0.00    -0.064 C 
ATOM     27  C   UNL     1     -31.409  26.936  20.352  0.00  0.00    +0.066 C 
ENDBRANCH  19  20
ENDBRANCH  18  19
ENDBRANCH  14  15
ENDBRANCH  12  13
TORSDOF 6
ENDMDL
MODEL 5
REMARK VINA RESULT:      -9.0      6.242     11.754
REMARK  Name = C:\Users\Docking\Desktop\test protocol\1iep_ligandH.pdb
REMARK  8 active torsions:
REMARK  status: ('A' for Active; 'I' for Inactive)
REMARK    1  A    between atoms: _5  and  _11
REMARK    2  A    between atoms: _19  and  _21
REMARK    3  A    between atoms: _22  and  _66
REMARK    4  A    between atoms: _27  and  _30
REMARK    5  A    between atoms: _32  and  _33
REMARK    6  A    between atoms: _38  and  _43
REMARK    7  A    between atoms: _43  and  _46
REMARK    8  A    between atoms: _53  and  _55
REMARK                            x       y       z     vdW  Elec       q    Type
REMARK                         _______ _______ _______ _____ _____    ______ ____
ROOT
ATOM     10  C   UNL     1     -27.303  16.316  20.814  0.00  0.00    +0.038 A 
ATOM     11  C   UNL     1     -28.082  17.446  20.457  0.00  0.00    +0.047 A 
ATOM     12  C   UNL     1     -28.093  18.644  21.282  0.00  0.00    +0.035 A 
ATOM     32  C   UNL     1     -27.296  18.657  22.463  0.00  0.00    +0.024 A 
ATOM     33  C   UNL     1     -26.499  17.517  22.842  0.00  0.00    +0.007 A 
ATOM     34  C   UNL     1     -26.486  16.332  22.034  0.00  0.00    -0.029 A 
ATOM     35  C   UNL     1     -25.618  15.137  22.492  0.00  0.00    +0.045 C 
ENDROOT
BRANCH  10   9
ATOM      4  C   UNL     1     -25.703  13.783  17.064  0.00  0.00    +0.077 A 
ATOM      5  C   UNL     1     -24.752  14.797  16.710  0.00  0.00    +0.048 A 
ATOM      6  C   UNL     1     -24.711  15.957  17.514  0.00  0.00    +0.116 A 
ATOM      7  N   UNL     1     -25.562  16.084  18.590  0.00  0.00    -0.223 NA
ATOM      8  C   UNL     1     -26.469  15.089  18.903  0.00  0.00    +0.220 A 
ATOM      9  N   UNL     1     -27.330  15.192  19.985  0.00  0.00    -0.283 N 
ATOM     36  H   UNL     1     -27.989  14.439  20.178  0.00  0.00    +0.155 HD
ATOM     37  N   UNL     1     -26.529  13.971  18.149  0.00  0.00    -0.214 NA
BRANCH   4   3
ATOM      1  C   UNL     1     -24.945  10.461  15.142  0.00  0.00    +0.020 A 
ATOM      2  C   UNL     1     -24.734  11.695  15.864  0.00  0.00    +0.013 A 
ATOM      3  C   UNL     1     -25.865  12.498  16.313  0.00  0.00    +0.019 A 
ATOM     38  C   UNL     1     -27.206  12.020  16.014  0.00  0.00    +0.120 A 
ATOM     39  N   UNL     1     -27.378  10.828  15.316  0.00  0.00    -0.263 NA
ATOM     40  C   UNL     1     -26.298  10.049  14.877  0.00  0.00    +0.111 A 
ENDBRANCH   4   3
ENDBRANCH  10   9
BRANCH  12  13
ATOM     13  N   UNL     1     -28.870  19.818  20.973  0.00  0.00    -0.281 N 
ATOM     14  C   UNL     1     -30.199  20.064  21.278  0.00  0.00    +0.248 C 
ATOM     30  O   UNL     1     -30.985  19.217  21.676  0.00  0.00    -0.270 OA
ATOM     31  H   UNL     1     -28.381  20.559  20.470  0.00  0.00    +0.155 HD
BRANCH  14  15
ATOM     15  C   UNL     1     -30.737  21.447  21.100  0.00  0.00    +0.037 A 
ATOM     16  C   UNL     1     -32.137  21.677  20.738  0.00  0.00    +0.013 A 
ATOM     17  C   UNL     1     -32.626  23.021  20.556  0.00  0.00    +0.005 A 
ATOM     18  C   UNL     1     -31.712  24.146  20.737  0.00  0.00    -0.033 A 
ATOM     28  C   UNL     1     -30.328  23.890  21.102  0.00  0.00    +0.005 A 
ATOM     29  C   UNL     1     -29.846  22.574  21.280  0.00  0.00    +0.013 A 
BRANCH  18  19
ATOM     19  C   UNL     1     -32.141  25.613  20.543  0.00  0.00    +0.119 C 
BRANCH  19  20
ATOM     20  N   UNL     1     -31.706  26.292  19.287  0.00  0.00    -0.302 NA
ATOM     21  C   UNL     1     -31.298  25.289  18.203  0.00  0.00    +0.066 C 
ATOM     22  C   UNL     1     -30.866  26.016  16.888  0.00  0.00    -0.064 C 
ATOM     23  N   UNL     1     -29.718  26.980  17.194  0.00  0.00    +0.379 N 
ATOM     24  C   UNL     1     -29.272  27.622  15.950  0.00  0.00    -0.096 C 
ATOM     25  H   UNL     1     -28.867  26.377  17.588  0.00  0.00    -0.082 HD
ATOM     26  C   UNL     1     -30.114  27.978  18.273  0.00  0.00    -0.064 C 
ATOM     27  C   UNL     1     -30.570  27.245  19.565  0.00  0.00    +0.066 C 
ENDBRANCH  19  20
ENDBRANCH  18  19
ENDBRANCH  14  15
ENDBRANCH  12  13
TORSDOF 6
ENDMDL
