MODEL 1
REMARK VINA RESULT:     -10.6      0.000      0.000
REMARK  Name = C:\Users\Docking\Desktop\test protocol\1iep_ligandH.pdb
REMARK  8 active torsions:
REMARK  status: ('A' for Active; 'I' for Inactive)
REMARK    1  A    between atoms: _5  and  _11
REMARK    2  A    between atoms: _19  and  _21
REMARK    3  A    between atoms: _22  and  _66
REMARK    4  A    between atoms: _27  and  _30
REMARK    5  A    between atoms: _32  and  _33
REMARK    6  A    between atoms: _38  and  _43
REMARK    7  A    between atoms: _43  and  _46
REMARK    8  A    between atoms: _53  and  _55
REMARK                            x       y       z     vdW  Elec       q    Type
REMARK                         _______ _______ _______ _____ _____    ______ ____
ROOT
ATOM     10  C   UNL     1      31.817 -32.630 -18.430  0.00  0.00    +0.038 A 
ATOM     11  C   UNL     1      30.984 -32.407 -17.304  0.00  0.00    +0.047 A 
ATOM     12  C   UNL     1      30.129 -31.234 -17.221  0.00  0.00    +0.035 A 
ATOM     32  C   UNL     1      30.144 -30.309 -18.305  0.00  0.00    +0.024 A 
ATOM     33  C   UNL     1      30.986 -30.519 -19.457  0.00  0.00    +0.007 A 
ATOM     34  C   UNL     1      31.834 -31.673 -19.543  0.00  0.00    -0.029 A 
ATOM     35  C   UNL     1      32.720 -31.844 -20.799  0.00  0.00    +0.045 C 
ENDROOT
BRANCH  10   9
ATOM      4  C   UNL     1      32.424 -37.381 -18.125  0.00  0.00    +0.077 A 
ATOM      5  C   UNL     1      31.031 -37.602 -17.863  0.00  0.00    +0.048 A 
ATOM      6  C   UNL     1      30.193 -36.466 -17.808  0.00  0.00    +0.116 A 
ATOM      7  N   UNL     1      30.720 -35.207 -18.002  0.00  0.00    -0.223 NA
ATOM      8  C   UNL     1      32.068 -35.029 -18.251  0.00  0.00    +0.220 A 
ATOM      9  N   UNL     1      32.619 -33.774 -18.457  0.00  0.00    -0.283 N 
ATOM     36  H   UNL     1      33.619 -33.684 -18.631  0.00  0.00    +0.155 HD
ATOM     37  N   UNL     1      32.890 -36.098 -18.307  0.00  0.00    -0.214 NA
BRANCH   4   3
ATOM      1  C   UNL     1      34.430 -40.673 -17.461  0.00  0.00    +0.020 A 
ATOM      2  C   UNL     1      33.431 -39.638 -17.330  0.00  0.00    +0.013 A 
ATOM      3  C   UNL     1      33.435 -38.482 -18.217  0.00  0.00    +0.019 A 
ATOM     38  C   UNL     1      34.472 -38.403 -19.235  0.00  0.00    +0.120 A 
ATOM     39  N   UNL     1      35.422 -39.414 -19.337  0.00  0.00    -0.263 NA
ATOM     40  C   UNL     1      35.429 -40.531 -18.488  0.00  0.00    +0.111 A 
ENDBRANCH   4   3
ENDBRANCH  10   9
BRANCH  12  13
ATOM     13  N   UNL     1      29.268 -30.951 -16.100  0.00  0.00    -0.281 N 
ATOM     14  C   UNL     1      29.454 -30.011 -15.099  0.00  0.00    +0.248 C 
ATOM     30  O   UNL     1      30.501 -29.413 -14.899  0.00  0.00    -0.270 OA
ATOM     31  H   UNL     1      28.418 -31.512 -16.035  0.00  0.00    +0.155 HD
BRANCH  14  15
ATOM     15  C   UNL     1      28.317 -29.700 -14.180  0.00  0.00    +0.037 A 
ATOM     16  C   UNL     1      27.129 -28.987 -14.655  0.00  0.00    +0.013 A 
ATOM     17  C   UNL     1      26.054 -28.685 -13.743  0.00  0.00    +0.005 A 
ATOM     18  C   UNL     1      26.163 -29.097 -12.346  0.00  0.00    -0.033 A 
ATOM     28  C   UNL     1      27.351 -29.808 -11.903  0.00  0.00    +0.005 A 
ATOM     29  C   UNL     1      28.407 -30.105 -12.793  0.00  0.00    +0.013 A 
BRANCH  18  19
ATOM     19  C   UNL     1      25.074 -28.798 -11.299  0.00  0.00    +0.119 C 
BRANCH  19  20
ATOM     20  N   UNL     1      23.978 -27.866 -11.698  0.00  0.00    -0.302 NA
ATOM     21  C   UNL     1      24.296 -26.414 -11.328  0.00  0.00    +0.066 C 
ATOM     22  C   UNL     1      23.150 -25.449 -11.774  0.00  0.00    -0.064 C 
ATOM     23  N   UNL     1      21.834 -25.895 -11.134  0.00  0.00    +0.379 N 
ATOM     24  C   UNL     1      20.765 -24.956 -11.504  0.00  0.00    -0.096 C 
ATOM     25  H   UNL     1      21.962 -25.843 -10.028  0.00  0.00    -0.082 HD
ATOM     26  C   UNL     1      21.512 -27.338 -11.494  0.00  0.00    -0.064 C 
ATOM     27  C   UNL     1      22.670 -28.285 -11.074  0.00  0.00    +0.066 C 
ENDBRANCH  19  20
ENDBRANCH  18  19
ENDBRANCH  14  15
ENDBRANCH  12  13
TORSDOF 6
ENDMDL
MODEL 2
REMARK VINA RESULT:     -10.4      4.151     13.396
REMARK  Name = C:\Users\Docking\Desktop\test protocol\1iep_ligandH.pdb
REMARK  8 active torsions:
REMARK  status: ('A' for Active; 'I' for Inactive)
REMARK    1  A    between atoms: _5  and  _11
REMARK    2  A    between atoms: _19  and  _21
REMARK    3  A    between atoms: _22  and  _66
REMARK    4  A    between atoms: _27  and  _30
REMARK    5  A    between atoms: _32  and  _33
REMARK    6  A    between atoms: _38  and  _43
REMARK    7  A    between atoms: _43  and  _46
REMARK    8  A    between atoms: _53  and  _55
REMARK                            x       y       z     vdW  Elec       q    Type
REMARK                         _______ _______ _______ _____ _____    ______ ____
ROOT
ATOM     10  C   UNL     1      21.263 -27.304 -11.227  0.00  0.00    +0.038 A 
ATOM     11  C   UNL     1      22.503 -27.854 -11.642  0.00  0.00    +0.047 A 
ATOM     12  C   UNL     1      23.689 -27.022 -11.772  0.00  0.00    +0.035 A 
ATOM     32  C   UNL     1      23.577 -25.633 -11.469  0.00  0.00    +0.024 A 
ATOM     33  C   UNL     1      22.324 -25.058 -11.047  0.00  0.00    +0.007 A 
ATOM     34  C   UNL     1      21.150 -25.874 -10.918  0.00  0.00    -0.029 A 
ATOM     35  C   UNL     1      19.832 -25.202 -10.468  0.00  0.00    +0.045 C 
ENDROOT
BRANCH  10   9
ATOM      4  C   UNL     1      18.132 -30.437 -13.076  0.00  0.00    +0.077 A 
ATOM      5  C   UNL     1      18.736 -30.363 -14.376  0.00  0.00    +0.048 A 
ATOM      6  C   UNL     1      19.846 -29.502 -14.528  0.00  0.00    +0.116 A 
ATOM      7  N   UNL     1      20.309 -28.774 -13.453  0.00  0.00    -0.223 NA
ATOM      8  C   UNL     1      19.703 -28.867 -12.214  0.00  0.00    +0.220 A 
ATOM      9  N   UNL     1      20.157 -28.150 -11.118  0.00  0.00    -0.283 N 
ATOM     36  H   UNL     1      19.677 -28.240 -10.223  0.00  0.00    +0.155 HD
ATOM     37  N   UNL     1      18.640 -29.681 -12.043  0.00  0.00    -0.214 NA
BRANCH   4   3
ATOM      1  C   UNL     1      15.740 -32.985 -11.320  0.00  0.00    +0.020 A 
ATOM      2  C   UNL     1      16.901 -32.167 -11.583  0.00  0.00    +0.013 A 
ATOM      3  C   UNL     1      16.955 -31.304 -12.757  0.00  0.00    +0.019 A 
ATOM     38  C   UNL     1      15.807 -31.292 -13.651  0.00  0.00    +0.120 A 
ATOM     39  N   UNL     1      14.702 -32.091 -13.372  0.00  0.00    -0.263 NA
ATOM     40  C   UNL     1      14.640 -32.926 -12.247  0.00  0.00    +0.111 A 
ENDBRANCH   4   3
ENDBRANCH  10   9
BRANCH  12  13
ATOM     13  N   UNL     1      24.973 -27.522 -12.198  0.00  0.00    -0.281 N 
ATOM     14  C   UNL     1      25.441 -28.824 -12.138  0.00  0.00    +0.248 C 
ATOM     30  O   UNL     1      24.904 -29.724 -11.510  0.00  0.00    -0.270 OA
ATOM     31  H   UNL     1      25.614 -26.832 -12.590  0.00  0.00    +0.155 HD
BRANCH  14  15
ATOM     15  C   UNL     1      26.696 -29.174 -12.871  0.00  0.00    +0.037 A 
ATOM     16  C   UNL     1      27.773 -29.923 -12.218  0.00  0.00    +0.013 A 
ATOM     17  C   UNL     1      28.981 -30.232 -12.942  0.00  0.00    +0.005 A 
ATOM     18  C   UNL     1      29.116 -29.794 -14.329  0.00  0.00    -0.033 A 
ATOM     28  C   UNL     1      28.030 -29.057 -14.954  0.00  0.00    +0.005 A 
ATOM     29  C   UNL     1      26.846 -28.751 -14.247  0.00  0.00    +0.013 A 
BRANCH  18  19
ATOM     19  C   UNL     1      30.378 -30.061 -15.172  0.00  0.00    +0.119 C 
BRANCH  19  20
ATOM     20  N   UNL     1      30.177 -30.569 -16.562  0.00  0.00    -0.302 NA
ATOM     21  C   UNL     1      31.144 -31.706 -16.904  0.00  0.00    +0.066 C 
ATOM     22  C   UNL     1      30.905 -32.240 -18.353  0.00  0.00    -0.064 C 
ATOM     23  N   UNL     1      31.049 -31.087 -19.349  0.00  0.00    +0.379 N 
ATOM     24  C   UNL     1      30.882 -31.598 -20.718  0.00  0.00    -0.096 C 
ATOM     25  H   UNL     1      32.088 -30.692 -19.260  0.00  0.00    -0.082 HD
ATOM     26  C   UNL     1      30.093 -29.952 -19.015  0.00  0.00    -0.064 C 
ATOM     27  C   UNL     1      30.319 -29.448 -17.562  0.00  0.00    +0.066 C 
ENDBRANCH  19  20
ENDBRANCH  18  19
ENDBRANCH  14  15
ENDBRANCH  12  13
TORSDOF 6
ENDMDL
MODEL 3
REMARK VINA RESULT:     -10.2      2.094     13.102
REMARK  Name = C:\Users\Docking\Desktop\test protocol\1iep_ligandH.pdb
REMARK  8 active torsions:
REMARK  status: ('A' for Active; 'I' for Inactive)
REMARK    1  A    between atoms: _5  and  _11
REMARK    2  A    between atoms: _19  and  _21
REMARK    3  A    between atoms: _22  and  _66
REMARK    4  A    between atoms: _27  and  _30
REMARK    5  A    between atoms: _32  and  _33
REMARK    6  A    between atoms: _38  and  _43
REMARK    7  A    between atoms: _43  and  _46
REMARK    8  A    between atoms: _53  and  _55
REMARK                            x       y       z     vdW  Elec       q    Type
REMARK                         _______ _______ _______ _____ _____    ______ ____
ROOT
ATOM     10  C   UNL     1      30.371 -30.893 -18.084  0.00  0.00    +0.038 A 
ATOM     11  C   UNL     1      30.900 -32.158 -17.722  0.00  0.00    +0.047 A 
ATOM     12  C   UNL     1      32.013 -32.745 -18.452  0.00  0.00    +0.035 A 
ATOM     32  C   UNL     1      32.565 -32.014 -19.544  0.00  0.00    +0.024 A 
ATOM     33  C   UNL     1      32.038 -30.727 -19.927  0.00  0.00    +0.007 A 
ATOM     34  C   UNL     1      30.939 -30.144 -19.212  0.00  0.00    -0.029 A 
ATOM     35  C   UNL     1      30.411 -28.765 -19.670  0.00  0.00    +0.045 C 
ENDROOT
BRANCH  10   9
ATOM      4  C   UNL     1      28.339 -29.534 -13.953  0.00  0.00    +0.077 A 
ATOM      5  C   UNL     1      29.496 -29.909 -13.193  0.00  0.00    +0.048 A 
ATOM      6  C   UNL     1      30.590 -30.455 -13.901  0.00  0.00    +0.116 A 
ATOM      7  N   UNL     1      30.521 -30.609 -15.269  0.00  0.00    -0.223 NA
ATOM      8  C   UNL     1      29.390 -30.238 -15.972  0.00  0.00    +0.220 A 
ATOM      9  N   UNL     1      29.301 -30.376 -17.349  0.00  0.00    -0.283 N 
ATOM     36  H   UNL     1      28.447 -30.098 -17.830  0.00  0.00    +0.155 HD
ATOM     37  N   UNL     1      28.331 -29.716 -15.318  0.00  0.00    -0.214 NA
BRANCH   4   3
ATOM      1  C   UNL     1      25.000 -29.087 -11.965  0.00  0.00    +0.020 A 
ATOM      2  C   UNL     1      26.178 -29.708 -12.526  0.00  0.00    +0.013 A 
ATOM      3  C   UNL     1      27.105 -28.941 -13.348  0.00  0.00    +0.019 A 
ATOM     38  C   UNL     1      26.810 -27.535 -13.584  0.00  0.00    +0.120 A 
ATOM     39  N   UNL     1      25.667 -26.965 -13.032  0.00  0.00    -0.263 NA
ATOM     40  C   UNL     1      24.767 -27.694 -12.241  0.00  0.00    +0.111 A 
ENDBRANCH   4   3
ENDBRANCH  10   9
BRANCH  12  13
ATOM     13  N   UNL     1      32.587 -34.029 -18.135  0.00  0.00    -0.281 N 
ATOM     14  C   UNL     1      31.958 -35.263 -18.122  0.00  0.00    +0.248 C 
ATOM     30  O   UNL     1      30.747 -35.422 -18.175  0.00  0.00    -0.270 OA
ATOM     31  H   UNL     1      33.577 -34.028 -17.891  0.00  0.00    +0.155 HD
BRANCH  14  15
ATOM     15  C   UNL     1      32.793 -36.498 -18.023  0.00  0.00    +0.037 A 
ATOM     16  C   UNL     1      34.119 -36.571 -18.642  0.00  0.00    +0.013 A 
ATOM     17  C   UNL     1      34.897 -37.780 -18.545  0.00  0.00    +0.005 A 
ATOM     18  C   UNL     1      34.351 -38.928 -17.825  0.00  0.00    -0.033 A 
ATOM     28  C   UNL     1      33.035 -38.827 -17.216  0.00  0.00    +0.005 A 
ATOM     29  C   UNL     1      32.269 -37.643 -17.309  0.00  0.00    +0.013 A 
BRANCH  18  19
ATOM     19  C   UNL     1      35.102 -40.265 -17.689  0.00  0.00    +0.119 C 
BRANCH  19  20
ATOM     20  N   UNL     1      35.220 -41.111 -18.915  0.00  0.00    -0.302 NA
ATOM     21  C   UNL     1      36.418 -40.707 -19.779  0.00  0.00    +0.066 C 
ATOM     22  C   UNL     1      36.539 -41.616 -21.045  0.00  0.00    -0.064 C 
ATOM     23  N   UNL     1      35.241 -41.539 -21.850  0.00  0.00    +0.379 N 
ATOM     24  C   UNL     1      35.373 -42.347 -23.072  0.00  0.00    -0.096 C 
ATOM     25  H   UNL     1      35.098 -40.478 -22.160  0.00  0.00    -0.082 HD
ATOM     26  C   UNL     1      34.044 -41.936 -20.999  0.00  0.00    -0.064 C 
ATOM     27  C   UNL     1      33.950 -41.046 -19.728  0.00  0.00    +0.066 C 
ENDBRANCH  19  20
ENDBRANCH  18  19
ENDBRANCH  14  15
ENDBRANCH  12  13
TORSDOF 6
ENDMDL
MODEL 4
REMARK VINA RESULT:      -9.6     12.095     17.816
REMARK  Name = C:\Users\Docking\Desktop\test protocol\1iep_ligandH.pdb
REMARK  8 active torsions:
REMARK  status: ('A' for Active; 'I' for Inactive)
REMARK    1  A    between atoms: _5  and  _11
REMARK    2  A    between atoms: _19  and  _21
REMARK    3  A    between atoms: _22  and  _66
REMARK    4  A    between atoms: _27  and  _30
REMARK    5  A    between atoms: _32  and  _33
REMARK    6  A    between atoms: _38  and  _43
REMARK    7  A    between atoms: _43  and  _46
REMARK    8  A    between atoms: _53  and  _55
REMARK                            x       y       z     vdW  Elec       q    Type
REMARK                         _______ _______ _______ _____ _____    ______ ____
ROOT
ATOM     10  C   UNL     1      16.345 -33.230 -13.098  0.00  0.00    +0.038 A 
ATOM     11  C   UNL     1      15.424 -33.046 -14.161  0.00  0.00    +0.047 A 
ATOM     12  C   UNL     1      14.877 -34.181 -14.888  0.00  0.00    +0.035 A 
ATOM     32  C   UNL     1      15.286 -35.491 -14.503  0.00  0.00    +0.024 A 
ATOM     33  C   UNL     1      16.221 -35.696 -13.425  0.00  0.00    +0.007 A 
ATOM     34  C   UNL     1      16.767 -34.580 -12.706  0.00  0.00    -0.029 A 
ATOM     35  C   UNL     1      17.771 -34.860 -11.564  0.00  0.00    +0.045 C 
ENDROOT
BRANCH  10   9
ATOM      4  C   UNL     1      19.178 -29.363 -12.858  0.00  0.00    +0.077 A 
ATOM      5  C   UNL     1      19.740 -29.622 -14.152  0.00  0.00    +0.048 A 
ATOM      6  C   UNL     1      19.279 -30.765 -14.844  0.00  0.00    +0.116 A 
ATOM      7  N   UNL     1      18.325 -31.580 -14.274  0.00  0.00    -0.223 NA
ATOM      8  C   UNL     1      17.804 -31.303 -13.023  0.00  0.00    +0.220 A 
ATOM      9  N   UNL     1      16.839 -32.105 -12.435  0.00  0.00    -0.283 N 
ATOM     36  H   UNL     1      16.485 -31.870 -11.508  0.00  0.00    +0.155 HD
ATOM     37  N   UNL     1      18.230 -30.219 -12.342  0.00  0.00    -0.214 NA
BRANCH   4   3
ATOM      1  C   UNL     1      21.256 -26.612 -11.010  0.00  0.00    +0.020 A 
ATOM      2  C   UNL     1      20.939 -27.748 -11.845  0.00  0.00    +0.013 A 
ATOM      3  C   UNL     1      19.561 -28.194 -12.005  0.00  0.00    +0.019 A 
ATOM     38  C   UNL     1      18.518 -27.462 -11.302  0.00  0.00    +0.120 A 
ATOM     39  N   UNL     1      18.853 -26.373 -10.504  0.00  0.00    -0.263 NA
ATOM     40  C   UNL     1      20.176 -25.936 -10.341  0.00  0.00    +0.111 A 
ENDBRANCH   4   3
ENDBRANCH  10   9
BRANCH  12  13
ATOM     13  N   UNL     1      13.945 -34.055 -15.981  0.00  0.00    -0.281 N 
ATOM     14  C   UNL     1      14.227 -33.832 -17.319  0.00  0.00    +0.248 C 
ATOM     30  O   UNL     1      15.320 -33.493 -17.747  0.00  0.00    -0.270 OA
ATOM     31  H   UNL     1      12.958 -34.141 -15.740  0.00  0.00    +0.155 HD
BRANCH  14  15
ATOM     15  C   UNL     1      13.134 -33.996 -18.325  0.00  0.00    +0.037 A 
ATOM     16  C   UNL     1      12.261 -35.173 -18.314  0.00  0.00    +0.013 A 
ATOM     17  C   UNL     1      11.225 -35.314 -19.306  0.00  0.00    +0.005 A 
ATOM     18  C   UNL     1      11.055 -34.274 -20.317  0.00  0.00    -0.033 A 
ATOM     28  C   UNL     1      11.931 -33.114 -20.302  0.00  0.00    +0.005 A 
ATOM     29  C   UNL     1      12.949 -32.973 -19.332  0.00  0.00    +0.013 A 
BRANCH  18  19
ATOM     19  C   UNL     1       9.990 -34.352 -21.427  0.00  0.00    +0.119 C 
BRANCH  19  20
ATOM     20  N   UNL     1       8.608 -33.904 -21.080  0.00  0.00    -0.302 NA
ATOM     21  C   UNL     1       7.541 -34.862 -21.619  0.00  0.00    +0.066 C 
ATOM     22  C   UNL     1       6.103 -34.390 -21.228  0.00  0.00    -0.064 C 
ATOM     23  N   UNL     1       5.874 -32.973 -21.755  0.00  0.00    +0.379 N 
ATOM     24  C   UNL     1       4.502 -32.548 -21.440  0.00  0.00    -0.096 C 
ATOM     25  H   UNL     1       5.971 -33.005 -22.865  0.00  0.00    -0.082 HD
ATOM     26  C   UNL     1       6.931 -32.014 -21.226  0.00  0.00    -0.064 C 
ATOM     27  C   UNL     1       8.358 -32.508 -21.594  0.00  0.00    +0.066 C 
ENDBRANCH  19  20
ENDBRANCH  18  19
ENDBRANCH  14  15
ENDBRANCH  12  13
TORSDOF 6
ENDMDL
MODEL 5
REMARK VINA RESULT:      -9.5      6.529     11.802
REMARK  Name = C:\Users\Docking\Desktop\test protocol\1iep_ligandH.pdb
REMARK  8 active torsions:
REMARK  status: ('A' for Active; 'I' for Inactive)
REMARK    1  A    between atoms: _5  and  _11
REMARK    2  A    between atoms: _19  and  _21
REMARK    3  A    between atoms: _22  and  _66
REMARK    4  A    between atoms: _27  and  _30
REMARK    5  A    between atoms: _32  and  _33
REMARK    6  A    between atoms: _38  and  _43
REMARK    7  A    between atoms: _43  and  _46
REMARK    8  A    between atoms: _53  and  _55
REMARK                            x       y       z     vdW  Elec       q    Type
REMARK                         _______ _______ _______ _____ _____    ______ ____
ROOT
ATOM     10  C   UNL     1      22.841 -27.393 -11.569  0.00  0.00    +0.038 A 
ATOM     11  C   UNL     1      21.877 -28.350 -11.976  0.00  0.00    +0.047 A 
ATOM     12  C   UNL     1      20.481 -27.982 -12.159  0.00  0.00    +0.035 A 
ATOM     32  C   UNL     1      20.103 -26.629 -11.920  0.00  0.00    +0.024 A 
ATOM     33  C   UNL     1      21.069 -25.643 -11.504  0.00  0.00    +0.007 A 
ATOM     34  C   UNL     1      22.447 -26.001 -11.320  0.00  0.00    -0.029 A 
ATOM     35  C   UNL     1      23.438 -24.904 -10.867  0.00  0.00    +0.045 C 
ENDROOT
BRANCH  10   9
ATOM      4  C   UNL     1      26.800 -29.621 -13.118  0.00  0.00    +0.077 A 
ATOM      5  C   UNL     1      26.164 -30.029 -14.337  0.00  0.00    +0.048 A 
ATOM      6  C   UNL     1      24.815 -29.652 -14.524  0.00  0.00    +0.116 A 
ATOM      7  N   UNL     1      24.161 -28.920 -13.557  0.00  0.00    -0.223 NA
ATOM      8  C   UNL     1      24.803 -28.544 -12.391  0.00  0.00    +0.220 A 
ATOM      9  N   UNL     1      24.167 -27.801 -11.409  0.00  0.00    -0.283 N 
ATOM     36  H   UNL     1      24.673 -27.549 -10.560  0.00  0.00    +0.155 HD
ATOM     37  N   UNL     1      26.090 -28.893 -12.188  0.00  0.00    -0.214 NA
BRANCH   4   3
ATOM      1  C   UNL     1      30.057 -30.499 -11.137  0.00  0.00    +0.020 A 
ATOM      2  C   UNL     1      28.671 -30.194 -11.413  0.00  0.00    +0.013 A 
ATOM      3  C   UNL     1      28.222 -29.940 -12.776  0.00  0.00    +0.019 A 
ATOM     38  C   UNL     1      29.207 -30.002 -13.846  0.00  0.00    +0.120 A 
ATOM     39  N   UNL     1      30.534 -30.296 -13.549  0.00  0.00    -0.263 NA
ATOM     40  C   UNL     1      30.979 -30.542 -12.242  0.00  0.00    +0.111 A 
ENDBRANCH   4   3
ENDBRANCH  10   9
BRANCH  12  13
ATOM     13  N   UNL     1      19.457 -28.912 -12.563  0.00  0.00    -0.281 N 
ATOM     14  C   UNL     1      19.379 -29.634 -13.743  0.00  0.00    +0.248 C 
ATOM     30  O   UNL     1      20.073 -29.426 -14.727  0.00  0.00    -0.270 OA
ATOM     31  H   UNL     1      18.696 -29.057 -11.899  0.00  0.00    +0.155 HD
BRANCH  14  15
ATOM     15  C   UNL     1      18.375 -30.736 -13.851  0.00  0.00    +0.037 A 
ATOM     16  C   UNL     1      17.648 -31.219 -12.675  0.00  0.00    +0.013 A 
ATOM     17  C   UNL     1      16.697 -32.295 -12.803  0.00  0.00    +0.005 A 
ATOM     18  C   UNL     1      16.468 -32.895 -14.116  0.00  0.00    -0.033 A 
ATOM     28  C   UNL     1      17.200 -32.393 -15.267  0.00  0.00    +0.005 A 
ATOM     29  C   UNL     1      18.133 -31.339 -15.144  0.00  0.00    +0.013 A 
BRANCH  18  19
ATOM     19  C   UNL     1      15.488 -34.061 -14.343  0.00  0.00    +0.119 C 
BRANCH  19  20
ATOM     20  N   UNL     1      15.419 -35.111 -13.283  0.00  0.00    -0.302 NA
ATOM     21  C   UNL     1      15.616 -36.518 -13.855  0.00  0.00    +0.066 C 
ATOM     22  C   UNL     1      15.562 -37.603 -12.731  0.00  0.00    -0.064 C 
ATOM     23  N   UNL     1      14.227 -37.501 -11.991  0.00  0.00    +0.379 N 
ATOM     24  C   UNL     1      14.150 -38.557 -10.971  0.00  0.00    -0.096 C 
ATOM     25  H   UNL     1      13.415 -37.686 -12.732  0.00  0.00    -0.082 HD
ATOM     26  C   UNL     1      14.022 -36.105 -11.421  0.00  0.00    -0.064 C 
ATOM     27  C   UNL     1      14.106 -35.032 -12.543  0.00  0.00    +0.066 C 
ENDBRANCH  19  20
ENDBRANCH  18  19
ENDBRANCH  14  15
ENDBRANCH  12  13
TORSDOF 6
ENDMDL
