MODEL 1
REMARK VINA RESULT:      -9.6      0.000      0.000
REMARK  Name = C:\Users\Docking\Desktop\test protocol\1iep_ligandH.pdb
REMARK  8 active torsions:
REMARK  status: ('A' for Active; 'I' for Inactive)
REMARK    1  A    between atoms: _5  and  _11
REMARK    2  A    between atoms: _19  and  _21
REMARK    3  A    between atoms: _22  and  _66
REMARK    4  A    between atoms: _27  and  _30
REMARK    5  A    between atoms: _32  and  _33
REMARK    6  A    between atoms: _38  and  _43
REMARK    7  A    between atoms: _43  and  _46
REMARK    8  A    between atoms: _53  and  _55
REMARK                            x       y       z     vdW  Elec       q    Type
REMARK                         _______ _______ _______ _____ _____    ______ ____
ROOT
ATOM     10  C   UNL     1      16.120 -32.524 -13.173  0.00  0.00    +0.038 A 
ATOM     11  C   UNL     1      15.243 -32.336 -14.272  0.00  0.00    +0.047 A 
ATOM     12  C   UNL     1      14.662 -33.470 -14.974  0.00  0.00    +0.035 A 
ATOM     32  C   UNL     1      14.995 -34.782 -14.529  0.00  0.00    +0.024 A 
ATOM     33  C   UNL     1      15.885 -34.992 -13.415  0.00  0.00    +0.007 A 
ATOM     34  C   UNL     1      16.463 -33.877 -12.720  0.00  0.00    -0.029 A 
ATOM     35  C   UNL     1      17.417 -34.162 -11.536  0.00  0.00    +0.045 C 
ENDROOT
BRANCH  10   9
ATOM      4  C   UNL     1      19.031 -28.711 -13.041  0.00  0.00    +0.077 A 
ATOM      5  C   UNL     1      19.564 -28.998 -14.342  0.00  0.00    +0.048 A 
ATOM      6  C   UNL     1      19.067 -30.140 -15.009  0.00  0.00    +0.116 A 
ATOM      7  N   UNL     1      18.109 -30.929 -14.410  0.00  0.00    -0.223 NA
ATOM      8  C   UNL     1      17.618 -30.625 -13.154  0.00  0.00    +0.220 A 
ATOM      9  N   UNL     1      16.649 -31.400 -12.535  0.00  0.00    -0.283 N 
ATOM     36  H   UNL     1      16.318 -31.146 -11.605  0.00  0.00    +0.155 HD
ATOM     37  N   UNL     1      18.077 -29.540 -12.496  0.00  0.00    -0.214 NA
BRANCH   4   3
ATOM      1  C   UNL     1      21.179 -25.904 -11.365  0.00  0.00    +0.020 A 
ATOM      2  C   UNL     1      20.824 -27.041 -12.182  0.00  0.00    +0.013 A 
ATOM      3  C   UNL     1      19.454 -27.537 -12.213  0.00  0.00    +0.019 A 
ATOM     38  C   UNL     1      18.459 -26.855 -11.399  0.00  0.00    +0.120 A 
ATOM     39  N   UNL     1      18.831 -25.763 -10.621  0.00  0.00    -0.263 NA
ATOM     40  C   UNL     1      20.147 -25.277 -10.582  0.00  0.00    +0.111 A 
ENDBRANCH   4   3
ENDBRANCH  10   9
BRANCH  12  13
ATOM     13  N   UNL     1      13.772 -33.340 -16.101  0.00  0.00    -0.281 N 
ATOM     14  C   UNL     1      14.093 -33.370 -17.448  0.00  0.00    +0.248 C 
ATOM     30  O   UNL     1      15.231 -33.299 -17.889  0.00  0.00    -0.270 OA
ATOM     31  H   UNL     1      12.785 -33.210 -15.878  0.00  0.00    +0.155 HD
BRANCH  14  15
ATOM     15  C   UNL     1      12.990 -33.481 -18.451  0.00  0.00    +0.037 A 
ATOM     16  C   UNL     1      12.117 -34.656 -18.493  0.00  0.00    +0.013 A 
ATOM     17  C   UNL     1      11.071 -34.745 -19.482  0.00  0.00    +0.005 A 
ATOM     18  C   UNL     1      10.894 -33.653 -20.436  0.00  0.00    -0.033 A 
ATOM     28  C   UNL     1      11.771 -32.496 -20.368  0.00  0.00    +0.005 A 
ATOM     29  C   UNL     1      12.797 -32.406 -19.401  0.00  0.00    +0.013 A 
BRANCH  18  19
ATOM     19  C   UNL     1       9.818 -33.672 -21.538  0.00  0.00    +0.119 C 
BRANCH  19  20
ATOM     20  N   UNL     1       8.486 -33.086 -21.204  0.00  0.00    -0.302 NA
ATOM     21  C   UNL     1       7.335 -34.029 -21.568  0.00  0.00    +0.066 C 
ATOM     22  C   UNL     1       5.951 -33.409 -21.191  0.00  0.00    -0.064 C 
ATOM     23  N   UNL     1       5.789 -32.061 -21.896  0.00  0.00    +0.379 N 
ATOM     24  C   UNL     1       4.464 -31.503 -21.590  0.00  0.00    -0.096 C 
ATOM     25  H   UNL     1       5.833 -32.247 -22.994  0.00  0.00    -0.082 HD
ATOM     26  C   UNL     1       6.930 -31.118 -21.542  0.00  0.00    -0.064 C 
ATOM     27  C   UNL     1       8.304 -31.756 -21.893  0.00  0.00    +0.066 C 
ENDBRANCH  19  20
ENDBRANCH  18  19
ENDBRANCH  14  15
ENDBRANCH  12  13
TORSDOF 6
ENDMDL
MODEL 2
REMARK VINA RESULT:      -9.3      1.294      1.973
REMARK  Name = C:\Users\Docking\Desktop\test protocol\1iep_ligandH.pdb
REMARK  8 active torsions:
REMARK  status: ('A' for Active; 'I' for Inactive)
REMARK    1  A    between atoms: _5  and  _11
REMARK    2  A    between atoms: _19  and  _21
REMARK    3  A    between atoms: _22  and  _66
REMARK    4  A    between atoms: _27  and  _30
REMARK    5  A    between atoms: _32  and  _33
REMARK    6  A    between atoms: _38  and  _43
REMARK    7  A    between atoms: _43  and  _46
REMARK    8  A    between atoms: _53  and  _55
REMARK                            x       y       z     vdW  Elec       q    Type
REMARK                         _______ _______ _______ _____ _____    ______ ____
ROOT
ATOM     10  C   UNL     1      16.031 -32.467 -13.252  0.00  0.00    +0.038 A 
ATOM     11  C   UNL     1      15.167 -32.281 -14.361  0.00  0.00    +0.047 A 
ATOM     12  C   UNL     1      14.606 -33.416 -15.076  0.00  0.00    +0.035 A 
ATOM     32  C   UNL     1      14.945 -34.728 -14.634  0.00  0.00    +0.024 A 
ATOM     33  C   UNL     1      15.823 -34.935 -13.509  0.00  0.00    +0.007 A 
ATOM     34  C   UNL     1      16.381 -33.819 -12.801  0.00  0.00    -0.029 A 
ATOM     35  C   UNL     1      17.322 -34.100 -11.606  0.00  0.00    +0.045 C 
ENDROOT
BRANCH  10   9
ATOM      4  C   UNL     1      18.994 -28.698 -13.010  0.00  0.00    +0.077 A 
ATOM      5  C   UNL     1      19.595 -29.014 -14.273  0.00  0.00    +0.048 A 
ATOM      6  C   UNL     1      19.118 -30.159 -14.950  0.00  0.00    +0.116 A 
ATOM      7  N   UNL     1      18.114 -30.923 -14.396  0.00  0.00    -0.223 NA
ATOM      8  C   UNL     1      17.557 -30.591 -13.174  0.00  0.00    +0.220 A 
ATOM      9  N   UNL     1      16.541 -31.341 -12.602  0.00  0.00    -0.283 N 
ATOM     36  H   UNL     1      16.162 -31.067 -11.696  0.00  0.00    +0.155 HD
ATOM     37  N   UNL     1      17.996 -29.503 -12.507  0.00  0.00    -0.214 NA
BRANCH   4   3
ATOM      1  C   UNL     1      21.016 -25.731 -11.458  0.00  0.00    +0.020 A 
ATOM      2  C   UNL     1      20.686 -26.867 -12.287  0.00  0.00    +0.013 A 
ATOM      3  C   UNL     1      19.387 -27.518 -12.176  0.00  0.00    +0.019 A 
ATOM     38  C   UNL     1      18.436 -26.990 -11.209  0.00  0.00    +0.120 A 
ATOM     39  N   UNL     1      18.783 -25.895 -10.423  0.00  0.00    -0.263 NA
ATOM     40  C   UNL     1      20.031 -25.262 -10.520  0.00  0.00    +0.111 A 
ENDBRANCH   4   3
ENDBRANCH  10   9
BRANCH  12  13
ATOM     13  N   UNL     1      13.729 -33.289 -16.214  0.00  0.00    -0.281 N 
ATOM     14  C   UNL     1      14.063 -33.349 -17.557  0.00  0.00    +0.248 C 
ATOM     30  O   UNL     1      15.205 -33.309 -17.988  0.00  0.00    -0.270 OA
ATOM     31  H   UNL     1      12.743 -33.136 -16.004  0.00  0.00    +0.155 HD
BRANCH  14  15
ATOM     15  C   UNL     1      12.968 -33.456 -18.569  0.00  0.00    +0.037 A 
ATOM     16  C   UNL     1      12.696 -32.368 -19.512  0.00  0.00    +0.013 A 
ATOM     17  C   UNL     1      11.623 -32.489 -20.467  0.00  0.00    +0.005 A 
ATOM     18  C   UNL     1      10.814 -33.705 -20.484  0.00  0.00    -0.033 A 
ATOM     28  C   UNL     1      11.108 -34.771 -19.540  0.00  0.00    +0.005 A 
ATOM     29  C   UNL     1      12.158 -34.655 -18.602  0.00  0.00    +0.013 A 
BRANCH  18  19
ATOM     19  C   UNL     1       9.635 -33.912 -21.453  0.00  0.00    +0.119 C 
BRANCH  19  20
ATOM     20  N   UNL     1       8.606 -34.926 -21.073  0.00  0.00    -0.302 NA
ATOM     21  C   UNL     1       8.777 -36.237 -21.845  0.00  0.00    +0.066 C 
ATOM     22  C   UNL     1       7.707 -37.293 -21.419  0.00  0.00    -0.064 C 
ATOM     23  N   UNL     1       6.308 -36.714 -21.637  0.00  0.00    +0.379 N 
ATOM     24  C   UNL     1       5.299 -37.726 -21.292  0.00  0.00    -0.096 C 
ATOM     25  H   UNL     1       6.202 -36.488 -22.724  0.00  0.00    -0.082 HD
ATOM     26  C   UNL     1       6.130 -35.409 -20.875  0.00  0.00    -0.064 C 
ATOM     27  C   UNL     1       7.217 -34.377 -21.285  0.00  0.00    +0.066 C 
ENDBRANCH  19  20
ENDBRANCH  18  19
ENDBRANCH  14  15
ENDBRANCH  12  13
TORSDOF 6
ENDMDL
MODEL 3
REMARK VINA RESULT:      -9.2     13.814     19.346
REMARK  Name = C:\Users\Docking\Desktop\test protocol\1iep_ligandH.pdb
REMARK  8 active torsions:
REMARK  status: ('A' for Active; 'I' for Inactive)
REMARK    1  A    between atoms: _5  and  _11
REMARK    2  A    between atoms: _19  and  _21
REMARK    3  A    between atoms: _22  and  _66
REMARK    4  A    between atoms: _27  and  _30
REMARK    5  A    between atoms: _32  and  _33
REMARK    6  A    between atoms: _38  and  _43
REMARK    7  A    between atoms: _43  and  _46
REMARK    8  A    between atoms: _53  and  _55
REMARK                            x       y       z     vdW  Elec       q    Type
REMARK                         _______ _______ _______ _____ _____    ______ ____
ROOT
ATOM     10  C   UNL     1      31.522 -36.558 -21.817  0.00  0.00    +0.038 A 
ATOM     11  C   UNL     1      31.151 -35.405 -21.080  0.00  0.00    +0.047 A 
ATOM     12  C   UNL     1      32.145 -34.611 -20.374  0.00  0.00    +0.035 A 
ATOM     32  C   UNL     1      33.509 -35.020 -20.443  0.00  0.00    +0.024 A 
ATOM     33  C   UNL     1      33.904 -36.190 -21.188  0.00  0.00    +0.007 A 
ATOM     34  C   UNL     1      32.927 -36.978 -21.884  0.00  0.00    -0.029 A 
ATOM     35  C   UNL     1      33.406 -38.226 -22.661  0.00  0.00    +0.045 C 
ENDROOT
BRANCH  10   9
ATOM      4  C   UNL     1      27.301 -38.842 -21.898  0.00  0.00    +0.077 A 
ATOM      5  C   UNL     1      27.073 -38.593 -20.504  0.00  0.00    +0.048 A 
ATOM      6  C   UNL     1      28.069 -37.879 -19.800  0.00  0.00    +0.116 A 
ATOM      7  N   UNL     1      29.205 -37.452 -20.453  0.00  0.00    -0.223 NA
ATOM      8  C   UNL     1      29.395 -37.711 -21.798  0.00  0.00    +0.220 A 
ATOM      9  N   UNL     1      30.526 -37.283 -22.476  0.00  0.00    -0.283 N 
ATOM     36  H   UNL     1      30.632 -37.501 -23.466  0.00  0.00    +0.155 HD
ATOM     37  N   UNL     1      28.459 -38.391 -22.491  0.00  0.00    -0.214 NA
BRANCH   4   3
ATOM      1  C   UNL     1      25.701 -40.702 -24.944  0.00  0.00    +0.020 A 
ATOM      2  C   UNL     1      26.665 -39.991 -24.137  0.00  0.00    +0.013 A 
ATOM      3  C   UNL     1      26.340 -39.579 -22.777  0.00  0.00    +0.019 A 
ATOM     38  C   UNL     1      25.019 -39.905 -22.260  0.00  0.00    +0.120 A 
ATOM     39  N   UNL     1      24.110 -40.589 -23.062  0.00  0.00    -0.263 NA
ATOM     40  C   UNL     1      24.412 -40.989 -24.372  0.00  0.00    +0.111 A 
ENDBRANCH   4   3
ENDBRANCH  10   9
BRANCH  12  13
ATOM     13  N   UNL     1      31.827 -33.436 -19.602  0.00  0.00    -0.281 N 
ATOM     14  C   UNL     1      31.495 -32.175 -20.070  0.00  0.00    +0.248 C 
ATOM     30  O   UNL     1      31.629 -31.809 -21.228  0.00  0.00    -0.270 OA
ATOM     31  H   UNL     1      31.850 -33.546 -18.589  0.00  0.00    +0.155 HD
BRANCH  14  15
ATOM     15  C   UNL     1      30.947 -31.170 -19.108  0.00  0.00    +0.037 A 
ATOM     16  C   UNL     1      30.511 -29.846 -19.559  0.00  0.00    +0.013 A 
ATOM     17  C   UNL     1      30.003 -28.889 -18.608  0.00  0.00    +0.005 A 
ATOM     18  C   UNL     1      29.925 -29.255 -17.196  0.00  0.00    -0.033 A 
ATOM     28  C   UNL     1      30.359 -30.577 -16.777  0.00  0.00    +0.005 A 
ATOM     29  C   UNL     1      30.859 -31.517 -17.706  0.00  0.00    +0.013 A 
BRANCH  18  19
ATOM     19  C   UNL     1      29.416 -28.290 -16.109  0.00  0.00    +0.119 C 
BRANCH  19  20
ATOM     20  N   UNL     1      28.818 -28.896 -14.882  0.00  0.00    -0.302 NA
ATOM     21  C   UNL     1      27.606 -28.105 -14.383  0.00  0.00    +0.066 C 
ATOM     22  C   UNL     1      26.979 -28.766 -13.112  0.00  0.00    -0.064 C 
ATOM     23  N   UNL     1      28.043 -28.874 -12.019  0.00  0.00    +0.379 N 
ATOM     24  C   UNL     1      27.442 -29.442 -10.803  0.00  0.00    -0.096 C 
ATOM     25  H   UNL     1      28.385 -27.840 -11.777  0.00  0.00    -0.082 HD
ATOM     26  C   UNL     1      29.254 -29.657 -12.508  0.00  0.00    -0.064 C 
ATOM     27  C   UNL     1      29.851 -29.008 -13.788  0.00  0.00    +0.066 C 
ENDBRANCH  19  20
ENDBRANCH  18  19
ENDBRANCH  14  15
ENDBRANCH  12  13
TORSDOF 6
ENDMDL
MODEL 4
REMARK VINA RESULT:      -8.8      6.406     11.049
REMARK  Name = C:\Users\Docking\Desktop\test protocol\1iep_ligandH.pdb
REMARK  8 active torsions:
REMARK  status: ('A' for Active; 'I' for Inactive)
REMARK    1  A    between atoms: _5  and  _11
REMARK    2  A    between atoms: _19  and  _21
REMARK    3  A    between atoms: _22  and  _66
REMARK    4  A    between atoms: _27  and  _30
REMARK    5  A    between atoms: _32  and  _33
REMARK    6  A    between atoms: _38  and  _43
REMARK    7  A    between atoms: _43  and  _46
REMARK    8  A    between atoms: _53  and  _55
REMARK                            x       y       z     vdW  Elec       q    Type
REMARK                         _______ _______ _______ _____ _____    ______ ____
ROOT
ATOM     10  C   UNL     1      15.629 -23.047 -10.128  0.00  0.00    +0.038 A 
ATOM     11  C   UNL     1      15.843 -24.099 -11.055  0.00  0.00    +0.047 A 
ATOM     12  C   UNL     1      16.462 -25.349 -10.644  0.00  0.00    +0.035 A 
ATOM     32  C   UNL     1      16.849 -25.495  -9.280  0.00  0.00    +0.024 A 
ATOM     33  C   UNL     1      16.641 -24.436  -8.325  0.00  0.00    +0.007 A 
ATOM     34  C   UNL     1      16.032 -23.199  -8.725  0.00  0.00    -0.029 A 
ATOM     35  C   UNL     1      15.839 -22.095  -7.659  0.00  0.00    +0.045 C 
ENDROOT
BRANCH  10   9
ATOM      4  C   UNL     1      11.833 -20.551 -11.677  0.00  0.00    +0.077 A 
ATOM      5  C   UNL     1      10.977 -21.700 -11.613  0.00  0.00    +0.048 A 
ATOM      6  C   UNL     1      11.554 -22.916 -11.182  0.00  0.00    +0.116 A 
ATOM      7  N   UNL     1      12.889 -22.967 -10.844  0.00  0.00    -0.223 NA
ATOM      8  C   UNL     1      13.687 -21.841 -10.920  0.00  0.00    +0.220 A 
ATOM      9  N   UNL     1      15.030 -21.867 -10.577  0.00  0.00    -0.283 N 
ATOM     36  H   UNL     1      15.587 -21.017 -10.653  0.00  0.00    +0.155 HD
ATOM     37  N   UNL     1      13.161 -20.668 -11.329  0.00  0.00    -0.214 NA
BRANCH   4   3
ATOM      1  C   UNL     1      10.188 -17.639 -13.705  0.00  0.00    +0.020 A 
ATOM      2  C   UNL     1      10.611 -18.969 -13.333  0.00  0.00    +0.013 A 
ATOM      3  C   UNL     1      11.370 -19.194 -12.110  0.00  0.00    +0.019 A 
ATOM     38  C   UNL     1      11.687 -18.043 -11.277  0.00  0.00    +0.120 A 
ATOM     39  N   UNL     1      11.267 -16.773 -11.662  0.00  0.00    -0.263 NA
ATOM     40  C   UNL     1      10.537 -16.544 -12.838  0.00  0.00    +0.111 A 
ENDBRANCH   4   3
ENDBRANCH  10   9
BRANCH  12  13
ATOM     13  N   UNL     1      16.712 -26.449 -11.542  0.00  0.00    -0.281 N 
ATOM     14  C   UNL     1      17.935 -26.947 -11.961  0.00  0.00    +0.248 C 
ATOM     30  O   UNL     1      19.005 -26.381 -11.792  0.00  0.00    -0.270 OA
ATOM     31  H   UNL     1      15.886 -26.919 -11.914  0.00  0.00    +0.155 HD
BRANCH  14  15
ATOM     15  C   UNL     1      17.974 -28.254 -12.683  0.00  0.00    +0.037 A 
ATOM     16  C   UNL     1      18.999 -28.535 -13.692  0.00  0.00    +0.013 A 
ATOM     17  C   UNL     1      19.004 -29.797 -14.387  0.00  0.00    +0.005 A 
ATOM     18  C   UNL     1      17.979 -30.791 -14.074  0.00  0.00    -0.033 A 
ATOM     28  C   UNL     1      16.977 -30.489 -13.065  0.00  0.00    +0.005 A 
ATOM     29  C   UNL     1      16.969 -29.251 -12.383  0.00  0.00    +0.013 A 
BRANCH  18  19
ATOM     19  C   UNL     1      17.895 -32.157 -14.780  0.00  0.00    +0.119 C 
BRANCH  19  20
ATOM     20  N   UNL     1      16.868 -33.121 -14.285  0.00  0.00    -0.302 NA
ATOM     21  C   UNL     1      17.502 -34.339 -13.609  0.00  0.00    +0.066 C 
ATOM     22  C   UNL     1      16.413 -35.327 -13.076  0.00  0.00    -0.064 C 
ATOM     23  N   UNL     1      15.511 -35.758 -14.234  0.00  0.00    +0.379 N 
ATOM     24  C   UNL     1      14.521 -36.731 -13.748  0.00  0.00    -0.096 C 
ATOM     25  H   UNL     1      16.150 -36.273 -14.987  0.00  0.00    -0.082 HD
ATOM     26  C   UNL     1      14.878 -34.552 -14.913  0.00  0.00    -0.064 C 
ATOM     27  C   UNL     1      15.968 -33.563 -15.412  0.00  0.00    +0.066 C 
ENDBRANCH  19  20
ENDBRANCH  18  19
ENDBRANCH  14  15
ENDBRANCH  12  13
TORSDOF 6
ENDMDL
MODEL 5
REMARK VINA RESULT:      -8.7     18.939     23.586
REMARK  Name = C:\Users\Docking\Desktop\test protocol\1iep_ligandH.pdb
REMARK  8 active torsions:
REMARK  status: ('A' for Active; 'I' for Inactive)
REMARK    1  A    between atoms: _5  and  _11
REMARK    2  A    between atoms: _19  and  _21
REMARK    3  A    between atoms: _22  and  _66
REMARK    4  A    between atoms: _27  and  _30
REMARK    5  A    between atoms: _32  and  _33
REMARK    6  A    between atoms: _38  and  _43
REMARK    7  A    between atoms: _43  and  _46
REMARK    8  A    between atoms: _53  and  _55
REMARK                            x       y       z     vdW  Elec       q    Type
REMARK                         _______ _______ _______ _____ _____    ______ ____
ROOT
ATOM     10  C   UNL     1      31.595 -37.003 -20.358  0.00  0.00    +0.038 A 
ATOM     11  C   UNL     1      32.377 -37.716 -19.414  0.00  0.00    +0.047 A 
ATOM     12  C   UNL     1      32.835 -39.070 -19.685  0.00  0.00    +0.035 A 
ATOM     32  C   UNL     1      32.480 -39.667 -20.929  0.00  0.00    +0.024 A 
ATOM     33  C   UNL     1      31.685 -38.957 -21.900  0.00  0.00    +0.007 A 
ATOM     34  C   UNL     1      31.228 -37.622 -21.638  0.00  0.00    -0.029 A 
ATOM     35  C   UNL     1      30.373 -36.911 -22.712  0.00  0.00    +0.045 C 
ENDROOT
BRANCH  10   9
ATOM      4  C   UNL     1      32.043 -32.233 -20.652  0.00  0.00    +0.077 A 
ATOM      5  C   UNL     1      33.213 -32.335 -21.474  0.00  0.00    +0.048 A 
ATOM      6  C   UNL     1      33.672 -33.632 -21.793  0.00  0.00    +0.116 A 
ATOM      7  N   UNL     1      33.002 -34.739 -21.320  0.00  0.00    -0.223 NA
ATOM      8  C   UNL     1      31.877 -34.606 -20.527  0.00  0.00    +0.220 A 
ATOM      9  N   UNL     1      31.182 -35.706 -20.046  0.00  0.00    -0.283 N 
ATOM     36  H   UNL     1      30.361 -35.566 -19.458  0.00  0.00    +0.155 HD
ATOM     37  N   UNL     1      31.419 -33.378 -20.207  0.00  0.00    -0.214 NA
BRANCH   4   3
ATOM      1  C   UNL     1      30.673 -28.569 -20.684  0.00  0.00    +0.020 A 
ATOM      2  C   UNL     1      31.268 -29.805 -21.141  0.00  0.00    +0.013 A 
ATOM      3  C   UNL     1      31.434 -30.932 -20.231  0.00  0.00    +0.019 A 
ATOM     38  C   UNL     1      30.984 -30.775 -18.856  0.00  0.00    +0.120 A 
ATOM     39  N   UNL     1      30.416 -29.573 -18.445  0.00  0.00    -0.263 NA
ATOM     40  C   UNL     1      30.253 -28.481 -19.311  0.00  0.00    +0.111 A 
ENDBRANCH   4   3
ENDBRANCH  10   9
BRANCH  12  13
ATOM     13  N   UNL     1      33.625 -39.845 -18.760  0.00  0.00    -0.281 N 
ATOM     14  C   UNL     1      33.237 -40.961 -18.037  0.00  0.00    +0.248 C 
ATOM     30  O   UNL     1      32.081 -41.336 -17.912  0.00  0.00    -0.270 OA
ATOM     31  H   UNL     1      34.586 -39.534 -18.623  0.00  0.00    +0.155 HD
BRANCH  14  15
ATOM     15  C   UNL     1      34.283 -41.768 -17.339  0.00  0.00    +0.037 A 
ATOM     16  C   UNL     1      34.017 -43.141 -16.899  0.00  0.00    +0.013 A 
ATOM     17  C   UNL     1      35.038 -43.891 -16.213  0.00  0.00    +0.005 A 
ATOM     18  C   UNL     1      36.337 -43.271 -15.963  0.00  0.00    -0.033 A 
ATOM     28  C   UNL     1      36.576 -41.910 -16.414  0.00  0.00    +0.005 A 
ATOM     29  C   UNL     1      35.577 -41.171 -17.087  0.00  0.00    +0.013 A 
BRANCH  18  19
ATOM     19  C   UNL     1      37.478 -43.990 -15.219  0.00  0.00    +0.119 C 
BRANCH  19  20
ATOM     20  N   UNL     1      38.439 -44.782 -16.044  0.00  0.00    -0.302 NA
ATOM     21  C   UNL     1      38.123 -46.280 -16.015  0.00  0.00    +0.066 C 
ATOM     22  C   UNL     1      39.124 -47.090 -16.901  0.00  0.00    -0.064 C 
ATOM     23  N   UNL     1      40.553 -46.829 -16.419  0.00  0.00    +0.379 N 
ATOM     24  C   UNL     1      41.492 -47.635 -17.212  0.00  0.00    -0.096 C 
ATOM     25  H   UNL     1      40.621 -47.174 -15.361  0.00  0.00    -0.082 HD
ATOM     26  C   UNL     1      40.875 -45.342 -16.442  0.00  0.00    -0.064 C 
ATOM     27  C   UNL     1      39.856 -44.542 -15.583  0.00  0.00    +0.066 C 
ENDBRANCH  19  20
ENDBRANCH  18  19
ENDBRANCH  14  15
ENDBRANCH  12  13
TORSDOF 6
ENDMDL
