MODEL 1
REMARK VINA RESULT:      -8.9      0.000      0.000
REMARK  Name = C:\Users\Docking\Desktop\test protocol\1iep_ligandH.pdb
REMARK  8 active torsions:
REMARK  status: ('A' for Active; 'I' for Inactive)
REMARK    1  A    between atoms: _5  and  _11
REMARK    2  A    between atoms: _19  and  _21
REMARK    3  A    between atoms: _22  and  _66
REMARK    4  A    between atoms: _27  and  _30
REMARK    5  A    between atoms: _32  and  _33
REMARK    6  A    between atoms: _38  and  _43
REMARK    7  A    between atoms: _43  and  _46
REMARK    8  A    between atoms: _53  and  _55
REMARK                            x       y       z     vdW  Elec       q    Type
REMARK                         _______ _______ _______ _____ _____    ______ ____
ROOT
ATOM     10  C   UNL     1      35.147  -9.308  21.826  0.00  0.00    +0.038 A 
ATOM     11  C   UNL     1      35.591  -8.801  20.578  0.00  0.00    +0.047 A 
ATOM     12  C   UNL     1      35.662  -9.654  19.402  0.00  0.00    +0.035 A 
ATOM     32  C   UNL     1      35.270 -11.018  19.532  0.00  0.00    +0.024 A 
ATOM     33  C   UNL     1      34.817 -11.550  20.793  0.00  0.00    +0.007 A 
ATOM     34  C   UNL     1      34.747 -10.714  21.958  0.00  0.00    -0.029 A 
ATOM     35  C   UNL     1      34.260 -11.340  23.285  0.00  0.00    +0.045 C 
ENDROOT
BRANCH  10   9
ATOM      4  C   UNL     1      32.765  -6.467  24.875  0.00  0.00    +0.077 A 
ATOM      5  C   UNL     1      31.516  -6.702  24.211  0.00  0.00    +0.048 A 
ATOM      6  C   UNL     1      31.530  -7.555  23.084  0.00  0.00    +0.116 A 
ATOM      7  N   UNL     1      32.712  -8.125  22.662  0.00  0.00    -0.223 NA
ATOM      8  C   UNL     1      33.900  -7.876  23.325  0.00  0.00    +0.220 A 
ATOM      9  N   UNL     1      35.099  -8.444  22.923  0.00  0.00    -0.283 N 
ATOM     36  H   UNL     1      35.955  -8.230  23.434  0.00  0.00    +0.155 HD
ATOM     37  N   UNL     1      33.913  -7.064  24.403  0.00  0.00    -0.214 NA
BRANCH   4   3
ATOM      1  C   UNL     1      32.507  -3.454  27.355  0.00  0.00    +0.020 A 
ATOM      2  C   UNL     1      32.336  -4.257  26.167  0.00  0.00    +0.013 A 
ATOM      3  C   UNL     1      32.912  -5.593  26.082  0.00  0.00    +0.019 A 
ATOM     38  C   UNL     1      33.659  -6.091  27.227  0.00  0.00    +0.120 A 
ATOM     39  N   UNL     1      33.808  -5.295  28.358  0.00  0.00    -0.263 NA
ATOM     40  C   UNL     1      33.260  -4.006  28.450  0.00  0.00    +0.111 A 
ENDBRANCH   4   3
ENDBRANCH  10   9
BRANCH  12  13
ATOM     13  N   UNL     1      36.113  -9.198  18.111  0.00  0.00    -0.281 N 
ATOM     14  C   UNL     1      37.263  -9.564  17.432  0.00  0.00    +0.248 C 
ATOM     30  O   UNL     1      38.192 -10.183  17.930  0.00  0.00    -0.270 OA
ATOM     31  H   UNL     1      35.510  -8.522  17.640  0.00  0.00    +0.155 HD
BRANCH  14  15
ATOM     15  C   UNL     1      37.409  -9.175  15.996  0.00  0.00    +0.037 A 
ATOM     16  C   UNL     1      38.508  -9.692  15.177  0.00  0.00    +0.013 A 
ATOM     17  C   UNL     1      38.636  -9.287  13.799  0.00  0.00    +0.005 A 
ATOM     18  C   UNL     1      37.660  -8.359  13.232  0.00  0.00    -0.033 A 
ATOM     28  C   UNL     1      36.577  -7.866  14.066  0.00  0.00    +0.005 A 
ATOM     29  C   UNL     1      36.449  -8.260  15.417  0.00  0.00    +0.013 A 
BRANCH  18  19
ATOM     19  C   UNL     1      37.730  -7.857  11.778  0.00  0.00    +0.119 C 
BRANCH  19  20
ATOM     20  N   UNL     1      38.899  -7.005  11.405  0.00  0.00    -0.302 NA
ATOM     21  C   UNL     1      39.192  -5.937  12.463  0.00  0.00    +0.066 C 
ATOM     22  C   UNL     1      40.431  -5.070  12.068  0.00  0.00    -0.064 C 
ATOM     23  N   UNL     1      40.184  -4.425  10.703  0.00  0.00    +0.379 N 
ATOM     24  C   UNL     1      41.323  -3.562  10.354  0.00  0.00    -0.096 C 
ATOM     25  H   UNL     1      39.283  -3.776  10.794  0.00  0.00    -0.082 HD
ATOM     26  C   UNL     1      39.889  -5.479   9.645  0.00  0.00    -0.064 C 
ATOM     27  C   UNL     1      38.674  -6.355  10.062  0.00  0.00    +0.066 C 
ENDBRANCH  19  20
ENDBRANCH  18  19
ENDBRANCH  14  15
ENDBRANCH  12  13
TORSDOF 6
ENDMDL
MODEL 2
REMARK VINA RESULT:      -8.9      4.423      7.665
REMARK  Name = C:\Users\Docking\Desktop\test protocol\1iep_ligandH.pdb
REMARK  8 active torsions:
REMARK  status: ('A' for Active; 'I' for Inactive)
REMARK    1  A    between atoms: _5  and  _11
REMARK    2  A    between atoms: _19  and  _21
REMARK    3  A    between atoms: _22  and  _66
REMARK    4  A    between atoms: _27  and  _30
REMARK    5  A    between atoms: _32  and  _33
REMARK    6  A    between atoms: _38  and  _43
REMARK    7  A    between atoms: _43  and  _46
REMARK    8  A    between atoms: _53  and  _55
REMARK                            x       y       z     vdW  Elec       q    Type
REMARK                         _______ _______ _______ _____ _____    ______ ____
ROOT
ATOM     10  C   UNL     1      31.407  -7.717  24.165  0.00  0.00    +0.038 A 
ATOM     11  C   UNL     1      32.402  -8.121  23.239  0.00  0.00    +0.047 A 
ATOM     12  C   UNL     1      33.783  -7.687  23.381  0.00  0.00    +0.035 A 
ATOM     32  C   UNL     1      34.116  -6.842  24.480  0.00  0.00    +0.024 A 
ATOM     33  C   UNL     1      33.117  -6.421  25.430  0.00  0.00    +0.007 A 
ATOM     34  C   UNL     1      31.753  -6.844  25.294  0.00  0.00    -0.029 A 
ATOM     35  C   UNL     1      30.722  -6.356  26.339  0.00  0.00    +0.045 C 
ENDROOT
BRANCH  10   9
ATOM      4  C   UNL     1      28.067 -11.164  24.194  0.00  0.00    +0.077 A 
ATOM      5  C   UNL     1      29.018 -12.164  24.583  0.00  0.00    +0.048 A 
ATOM      6  C   UNL     1      30.358 -11.752  24.759  0.00  0.00    +0.116 A 
ATOM      7  N   UNL     1      30.709 -10.435  24.558  0.00  0.00    -0.223 NA
ATOM      8  C   UNL     1      29.767  -9.495  24.181  0.00  0.00    +0.220 A 
ATOM      9  N   UNL     1      30.097  -8.164  23.981  0.00  0.00    -0.283 N 
ATOM     36  H   UNL     1      29.374  -7.503  23.696  0.00  0.00    +0.155 HD
ATOM     37  N   UNL     1      28.481  -9.864  24.005  0.00  0.00    -0.214 NA
BRANCH   4   3
ATOM      1  C   UNL     1      24.390 -12.411  24.670  0.00  0.00    +0.020 A 
ATOM      2  C   UNL     1      25.790 -12.168  24.932  0.00  0.00    +0.013 A 
ATOM      3  C   UNL     1      26.613 -11.443  23.972  0.00  0.00    +0.019 A 
ATOM     38  C   UNL     1      25.983 -10.972  22.748  0.00  0.00    +0.120 A 
ATOM     39  N   UNL     1      24.633 -11.222  22.522  0.00  0.00    -0.263 NA
ATOM     40  C   UNL     1      23.832 -11.920  23.438  0.00  0.00    +0.111 A 
ENDBRANCH   4   3
ENDBRANCH  10   9
BRANCH  12  13
ATOM     13  N   UNL     1      34.835  -8.058  22.467  0.00  0.00    -0.281 N 
ATOM     14  C   UNL     1      35.368  -9.318  22.249  0.00  0.00    +0.248 C 
ATOM     30  O   UNL     1      35.165 -10.287  22.965  0.00  0.00    -0.270 OA
ATOM     31  H   UNL     1      35.235  -7.300  21.914  0.00  0.00    +0.155 HD
BRANCH  14  15
ATOM     15  C   UNL     1      36.267  -9.528  21.074  0.00  0.00    +0.037 A 
ATOM     16  C   UNL     1      35.846  -9.161  19.720  0.00  0.00    +0.013 A 
ATOM     17  C   UNL     1      36.726  -9.390  18.601  0.00  0.00    +0.005 A 
ATOM     18  C   UNL     1      38.038  -9.989  18.833  0.00  0.00    -0.033 A 
ATOM     28  C   UNL     1      38.432 -10.339  20.188  0.00  0.00    +0.005 A 
ATOM     29  C   UNL     1      37.572 -10.117  21.286  0.00  0.00    +0.013 A 
BRANCH  18  19
ATOM     19  C   UNL     1      39.033 -10.289  17.697  0.00  0.00    +0.119 C 
BRANCH  19  20
ATOM     20  N   UNL     1      38.901 -11.604  17.002  0.00  0.00    -0.302 NA
ATOM     21  C   UNL     1      39.784 -12.681  17.637  0.00  0.00    +0.066 C 
ATOM     22  C   UNL     1      39.616 -14.056  16.911  0.00  0.00    -0.064 C 
ATOM     23  N   UNL     1      39.948 -13.890  15.427  0.00  0.00    +0.379 N 
ATOM     24  C   UNL     1      39.847 -15.192  14.753  0.00  0.00    -0.096 C 
ATOM     25  H   UNL     1      41.007 -13.551  15.353  0.00  0.00    -0.082 HD
ATOM     26  C   UNL     1      39.076 -12.818  14.788  0.00  0.00    -0.064 C 
ATOM     27  C   UNL     1      39.228 -11.464  15.535  0.00  0.00    +0.066 C 
ENDBRANCH  19  20
ENDBRANCH  18  19
ENDBRANCH  14  15
ENDBRANCH  12  13
TORSDOF 6
ENDMDL
MODEL 3
REMARK VINA RESULT:      -8.6      3.993      6.710
REMARK  Name = C:\Users\Docking\Desktop\test protocol\1iep_ligandH.pdb
REMARK  8 active torsions:
REMARK  status: ('A' for Active; 'I' for Inactive)
REMARK    1  A    between atoms: _5  and  _11
REMARK    2  A    between atoms: _19  and  _21
REMARK    3  A    between atoms: _22  and  _66
REMARK    4  A    between atoms: _27  and  _30
REMARK    5  A    between atoms: _32  and  _33
REMARK    6  A    between atoms: _38  and  _43
REMARK    7  A    between atoms: _43  and  _46
REMARK    8  A    between atoms: _53  and  _55
REMARK                            x       y       z     vdW  Elec       q    Type
REMARK                         _______ _______ _______ _____ _____    ______ ____
ROOT
ATOM     10  C   UNL     1      31.418  -7.751  24.044  0.00  0.00    +0.038 A 
ATOM     11  C   UNL     1      32.311  -8.108  23.001  0.00  0.00    +0.047 A 
ATOM     12  C   UNL     1      33.705  -7.695  23.028  0.00  0.00    +0.035 A 
ATOM     32  C   UNL     1      34.158  -6.919  24.135  0.00  0.00    +0.024 A 
ATOM     33  C   UNL     1      33.264  -6.546  25.203  0.00  0.00    +0.007 A 
ATOM     34  C   UNL     1      31.887  -6.949  25.180  0.00  0.00    -0.029 A 
ATOM     35  C   UNL     1      30.973  -6.514  26.349  0.00  0.00    +0.045 C 
ENDROOT
BRANCH  10   9
ATOM      4  C   UNL     1      28.062 -11.182  24.071  0.00  0.00    +0.077 A 
ATOM      5  C   UNL     1      29.041 -12.220  24.226  0.00  0.00    +0.048 A 
ATOM      6  C   UNL     1      30.397 -11.829  24.287  0.00  0.00    +0.116 A 
ATOM      7  N   UNL     1      30.738 -10.497  24.199  0.00  0.00    -0.223 NA
ATOM      8  C   UNL     1      29.770  -9.521  24.049  0.00  0.00    +0.220 A 
ATOM      9  N   UNL     1      30.090  -8.175  23.966  0.00  0.00    -0.283 N 
ATOM     36  H   UNL     1      29.347  -7.486  23.848  0.00  0.00    +0.155 HD
ATOM     37  N   UNL     1      28.468  -9.869  23.986  0.00  0.00    -0.214 NA
BRANCH   4   3
ATOM      1  C   UNL     1      24.380 -11.429  22.775  0.00  0.00    +0.020 A 
ATOM      2  C   UNL     1      25.800 -11.166  22.798  0.00  0.00    +0.013 A 
ATOM      3  C   UNL     1      26.589 -11.435  23.994  0.00  0.00    +0.019 A 
ATOM     38  C   UNL     1      25.905 -11.977  25.158  0.00  0.00    +0.120 A 
ATOM     39  N   UNL     1      24.535 -12.219  25.107  0.00  0.00    -0.263 NA
ATOM     40  C   UNL     1      23.766 -11.961  23.963  0.00  0.00    +0.111 A 
ENDBRANCH   4   3
ENDBRANCH  10   9
BRANCH  12  13
ATOM     13  N   UNL     1      34.655  -8.021  21.994  0.00  0.00    -0.281 N 
ATOM     14  C   UNL     1      35.352  -9.206  21.821  0.00  0.00    +0.248 C 
ATOM     30  O   UNL     1      35.424 -10.094  22.658  0.00  0.00    -0.270 OA
ATOM     31  H   UNL     1      34.836  -7.290  21.306  0.00  0.00    +0.155 HD
BRANCH  14  15
ATOM     15  C   UNL     1      36.087  -9.430  20.540  0.00  0.00    +0.037 A 
ATOM     16  C   UNL     1      37.400 -10.082  20.520  0.00  0.00    +0.013 A 
ATOM     17  C   UNL     1      38.095 -10.271  19.272  0.00  0.00    +0.005 A 
ATOM     18  C   UNL     1      37.478  -9.808  18.031  0.00  0.00    -0.033 A 
ATOM     28  C   UNL     1      36.173  -9.170  18.079  0.00  0.00    +0.005 A 
ATOM     29  C   UNL     1      35.489  -8.982  19.300  0.00  0.00    +0.013 A 
BRANCH  18  19
ATOM     19  C   UNL     1      38.157  -9.949  16.656  0.00  0.00    +0.119 C 
BRANCH  19  20
ATOM     20  N   UNL     1      37.409  -9.438  15.469  0.00  0.00    -0.302 NA
ATOM     21  C   UNL     1      36.575 -10.533  14.799  0.00  0.00    +0.066 C 
ATOM     22  C   UNL     1      35.782  -9.976  13.573  0.00  0.00    -0.064 C 
ATOM     23  N   UNL     1      36.762  -9.355  12.575  0.00  0.00    +0.379 N 
ATOM     24  C   UNL     1      36.025  -8.882  11.394  0.00  0.00    -0.096 C 
ATOM     25  H   UNL     1      37.457 -10.159  12.240  0.00  0.00    -0.082 HD
ATOM     26  C   UNL     1      37.597  -8.266  13.233  0.00  0.00    -0.064 C 
ATOM     27  C   UNL     1      38.358  -8.824  14.468  0.00  0.00    +0.066 C 
ENDBRANCH  19  20
ENDBRANCH  18  19
ENDBRANCH  14  15
ENDBRANCH  12  13
TORSDOF 6
ENDMDL
MODEL 4
REMARK VINA RESULT:      -8.6      1.913     12.484
REMARK  Name = C:\Users\Docking\Desktop\test protocol\1iep_ligandH.pdb
REMARK  8 active torsions:
REMARK  status: ('A' for Active; 'I' for Inactive)
REMARK    1  A    between atoms: _5  and  _11
REMARK    2  A    between atoms: _19  and  _21
REMARK    3  A    between atoms: _22  and  _66
REMARK    4  A    between atoms: _27  and  _30
REMARK    5  A    between atoms: _32  and  _33
REMARK    6  A    between atoms: _38  and  _43
REMARK    7  A    between atoms: _43  and  _46
REMARK    8  A    between atoms: _53  and  _55
REMARK                            x       y       z     vdW  Elec       q    Type
REMARK                         _______ _______ _______ _____ _____    ______ ____
ROOT
ATOM     10  C   UNL     1      37.873 -10.264  18.287  0.00  0.00    +0.038 A 
ATOM     11  C   UNL     1      37.086  -9.497  19.184  0.00  0.00    +0.047 A 
ATOM     12  C   UNL     1      36.586 -10.069  20.424  0.00  0.00    +0.035 A 
ATOM     32  C   UNL     1      36.909 -11.425  20.721  0.00  0.00    +0.024 A 
ATOM     33  C   UNL     1      37.707 -12.220  19.820  0.00  0.00    +0.007 A 
ATOM     34  C   UNL     1      38.200 -11.661  18.594  0.00  0.00    -0.029 A 
ATOM     35  C   UNL     1      39.045 -12.561  17.662  0.00  0.00    +0.045 C 
ENDROOT
BRANCH  10   9
ATOM      4  C   UNL     1      37.109  -8.013  14.116  0.00  0.00    +0.077 A 
ATOM      5  C   UNL     1      35.685  -8.061  14.284  0.00  0.00    +0.048 A 
ATOM      6  C   UNL     1      35.189  -8.679  15.454  0.00  0.00    +0.116 A 
ATOM      7  N   UNL     1      36.062  -9.207  16.380  0.00  0.00    -0.223 NA
ATOM      8  C   UNL     1      37.430  -9.146  16.187  0.00  0.00    +0.220 A 
ATOM      9  N   UNL     1      38.326  -9.664  17.110  0.00  0.00    -0.283 N 
ATOM     36  H   UNL     1      39.328  -9.606  16.927  0.00  0.00    +0.155 HD
ATOM     37  N   UNL     1      37.928  -8.562  15.078  0.00  0.00    -0.214 NA
BRANCH   4   3
ATOM      1  C   UNL     1      38.458  -7.358  10.504  0.00  0.00    +0.020 A 
ATOM      2  C   UNL     1      37.791  -8.002  11.612  0.00  0.00    +0.013 A 
ATOM      3  C   UNL     1      37.785  -7.390  12.935  0.00  0.00    +0.019 A 
ATOM     38  C   UNL     1      38.469  -6.117  13.105  0.00  0.00    +0.120 A 
ATOM     39  N   UNL     1      39.105  -5.522  12.020  0.00  0.00    -0.263 NA
ATOM     40  C   UNL     1      39.118  -6.101  10.742  0.00  0.00    +0.111 A 
ENDBRANCH   4   3
ENDBRANCH  10   9
BRANCH  12  13
ATOM     13  N   UNL     1      35.776  -9.342  21.370  0.00  0.00    -0.281 N 
ATOM     14  C   UNL     1      34.742  -8.460  21.104  0.00  0.00    +0.248 C 
ATOM     30  O   UNL     1      34.495  -7.996  20.000  0.00  0.00    -0.270 OA
ATOM     31  H   UNL     1      35.992  -9.496  22.355  0.00  0.00    +0.155 HD
BRANCH  14  15
ATOM     15  C   UNL     1      33.863  -8.017  22.229  0.00  0.00    +0.037 A 
ATOM     16  C   UNL     1      32.403  -8.075  22.121  0.00  0.00    +0.013 A 
ATOM     17  C   UNL     1      31.579  -7.626  23.215  0.00  0.00    +0.005 A 
ATOM     18  C   UNL     1      32.214  -7.115  24.428  0.00  0.00    -0.033 A 
ATOM     28  C   UNL     1      33.665  -7.073  24.510  0.00  0.00    +0.005 A 
ATOM     29  C   UNL     1      34.476  -7.512  23.439  0.00  0.00    +0.013 A 
BRANCH  18  19
ATOM     19  C   UNL     1      31.413  -6.595  25.636  0.00  0.00    +0.119 C 
BRANCH  19  20
ATOM     20  N   UNL     1      32.159  -5.811  26.665  0.00  0.00    -0.302 NA
ATOM     21  C   UNL     1      31.783  -6.229  28.090  0.00  0.00    +0.066 C 
ATOM     22  C   UNL     1      32.589  -5.415  29.153  0.00  0.00    -0.064 C 
ATOM     23  N   UNL     1      32.341  -3.920  28.944  0.00  0.00    +0.379 N 
ATOM     24  C   UNL     1      33.052  -3.155  29.978  0.00  0.00    -0.096 C 
ATOM     25  H   UNL     1      31.249  -3.737  29.077  0.00  0.00    -0.082 HD
ATOM     26  C   UNL     1      32.710  -3.497  27.529  0.00  0.00    -0.064 C 
ATOM     27  C   UNL     1      31.925  -4.332  26.479  0.00  0.00    +0.066 C 
ENDBRANCH  19  20
ENDBRANCH  18  19
ENDBRANCH  14  15
ENDBRANCH  12  13
TORSDOF 6
ENDMDL
MODEL 5
REMARK VINA RESULT:      -8.5      3.326     12.900
REMARK  Name = C:\Users\Docking\Desktop\test protocol\1iep_ligandH.pdb
REMARK  8 active torsions:
REMARK  status: ('A' for Active; 'I' for Inactive)
REMARK    1  A    between atoms: _5  and  _11
REMARK    2  A    between atoms: _19  and  _21
REMARK    3  A    between atoms: _22  and  _66
REMARK    4  A    between atoms: _27  and  _30
REMARK    5  A    between atoms: _32  and  _33
REMARK    6  A    between atoms: _38  and  _43
REMARK    7  A    between atoms: _43  and  _46
REMARK    8  A    between atoms: _53  and  _55
REMARK                            x       y       z     vdW  Elec       q    Type
REMARK                         _______ _______ _______ _____ _____    ______ ____
ROOT
ATOM     10  C   UNL     1      37.736 -10.334  18.902  0.00  0.00    +0.038 A 
ATOM     11  C   UNL     1      36.687  -9.782  19.679  0.00  0.00    +0.047 A 
ATOM     12  C   UNL     1      36.119 -10.510  20.804  0.00  0.00    +0.035 A 
ATOM     32  C   UNL     1      36.647 -11.798  21.110  0.00  0.00    +0.024 A 
ATOM     33  C   UNL     1      37.714 -12.375  20.330  0.00  0.00    +0.007 A 
ATOM     34  C   UNL     1      38.275 -11.663  19.218  0.00  0.00    -0.029 A 
ATOM     35  C   UNL     1      39.413 -12.333  18.413  0.00  0.00    +0.045 C 
ENDROOT
BRANCH  10   9
ATOM      4  C   UNL     1      37.612  -8.857  14.337  0.00  0.00    +0.077 A 
ATOM      5  C   UNL     1      36.454  -9.654  14.049  0.00  0.00    +0.048 A 
ATOM      6  C   UNL     1      35.926 -10.435  15.101  0.00  0.00    +0.116 A 
ATOM      7  N   UNL     1      36.519 -10.413  16.345  0.00  0.00    -0.223 NA
ATOM      8  C   UNL     1      37.636  -9.635  16.588  0.00  0.00    +0.220 A 
ATOM      9  N   UNL     1      38.244  -9.592  17.833  0.00  0.00    -0.283 N 
ATOM     36  H   UNL     1      39.070  -9.011  17.971  0.00  0.00    +0.155 HD
ATOM     37  N   UNL     1      38.160  -8.881  15.600  0.00  0.00    -0.214 NA
BRANCH   4   3
ATOM      1  C   UNL     1      38.812  -5.721  12.331  0.00  0.00    +0.020 A 
ATOM      2  C   UNL     1      38.141  -6.526  13.325  0.00  0.00    +0.013 A 
ATOM      3  C   UNL     1      38.284  -7.977  13.330  0.00  0.00    +0.019 A 
ATOM     38  C   UNL     1      39.122  -8.586  12.308  0.00  0.00    +0.120 A 
ATOM     39  N   UNL     1      39.755  -7.785  11.362  0.00  0.00    -0.263 NA
ATOM     40  C   UNL     1      39.623  -6.389  11.347  0.00  0.00    +0.111 A 
ENDBRANCH   4   3
ENDBRANCH  10   9
BRANCH  12  13
ATOM     13  N   UNL     1      35.047 -10.003  21.624  0.00  0.00    -0.281 N 
ATOM     14  C   UNL     1      34.233  -8.909  21.381  0.00  0.00    +0.248 C 
ATOM     30  O   UNL     1      34.445  -8.068  20.520  0.00  0.00    -0.270 OA
ATOM     31  H   UNL     1      34.866 -10.513  22.488  0.00  0.00    +0.155 HD
BRANCH  14  15
ATOM     15  C   UNL     1      33.016  -8.712  22.226  0.00  0.00    +0.037 A 
ATOM     16  C   UNL     1      32.426  -7.384  22.411  0.00  0.00    +0.013 A 
ATOM     17  C   UNL     1      31.262  -7.220  23.245  0.00  0.00    +0.005 A 
ATOM     18  C   UNL     1      30.679  -8.389  23.900  0.00  0.00    -0.033 A 
ATOM     28  C   UNL     1      31.282  -9.696  23.694  0.00  0.00    +0.005 A 
ATOM     29  C   UNL     1      32.424  -9.860  22.879  0.00  0.00    +0.013 A 
BRANCH  18  19
ATOM     19  C   UNL     1      29.450  -8.304  24.824  0.00  0.00    +0.119 C 
BRANCH  19  20
ATOM     20  N   UNL     1      28.714  -9.574  25.101  0.00  0.00    -0.302 NA
ATOM     21  C   UNL     1      27.665  -9.876  24.027  0.00  0.00    +0.066 C 
ATOM     22  C   UNL     1      26.920 -11.219  24.321  0.00  0.00    -0.064 C 
ATOM     23  N   UNL     1      26.273 -11.148  25.706  0.00  0.00    +0.379 N 
ATOM     24  C   UNL     1      25.524 -12.387  25.961  0.00  0.00    -0.096 C 
ATOM     25  H   UNL     1      25.542 -10.306  25.695  0.00  0.00    -0.082 HD
ATOM     26  C   UNL     1      27.309 -10.845  26.779  0.00  0.00    -0.064 C 
ATOM     27  C   UNL     1      28.064  -9.524  26.462  0.00  0.00    +0.066 C 
ENDBRANCH  19  20
ENDBRANCH  18  19
ENDBRANCH  14  15
ENDBRANCH  12  13
TORSDOF 6
ENDMDL
