MODEL 1
REMARK VINA RESULT:     -10.1      0.000      0.000
REMARK  Name = C:\Users\Docking\Desktop\test protocol\1iep_ligandH.pdb
REMARK  8 active torsions:
REMARK  status: ('A' for Active; 'I' for Inactive)
REMARK    1  A    between atoms: _5  and  _11
REMARK    2  A    between atoms: _19  and  _21
REMARK    3  A    between atoms: _22  and  _66
REMARK    4  A    between atoms: _27  and  _30
REMARK    5  A    between atoms: _32  and  _33
REMARK    6  A    between atoms: _38  and  _43
REMARK    7  A    between atoms: _43  and  _46
REMARK    8  A    between atoms: _53  and  _55
REMARK                            x       y       z     vdW  Elec       q    Type
REMARK                         _______ _______ _______ _____ _____    ______ ____
ROOT
ATOM     10  C   UNL     1      22.264 -17.922  41.134  0.00  0.00    +0.038 A 
ATOM     11  C   UNL     1      23.574 -17.547  40.741  0.00  0.00    +0.047 A 
ATOM     12  C   UNL     1      24.592 -18.549  40.463  0.00  0.00    +0.035 A 
ATOM     32  C   UNL     1      24.240 -19.924  40.593  0.00  0.00    +0.024 A 
ATOM     33  C   UNL     1      22.913 -20.323  40.993  0.00  0.00    +0.007 A 
ATOM     34  C   UNL     1      21.906 -19.339  41.270  0.00  0.00    -0.029 A 
ATOM     35  C   UNL     1      20.502 -19.824  41.701  0.00  0.00    +0.045 C 
ENDROOT
BRANCH  10   9
ATOM      4  C   UNL     1      20.015 -14.880  44.088  0.00  0.00    +0.077 A 
ATOM      5  C   UNL     1      20.751 -15.349  45.226  0.00  0.00    +0.048 A 
ATOM      6  C   UNL     1      21.695 -16.378  45.010  0.00  0.00    +0.116 A 
ATOM      7  N   UNL     1      21.879 -16.894  43.746  0.00  0.00    -0.223 NA
ATOM      8  C   UNL     1      21.151 -16.421  42.670  0.00  0.00    +0.220 A 
ATOM      9  N   UNL     1      21.326 -16.919  41.388  0.00  0.00    -0.283 N 
ATOM     36  H   UNL     1      20.764 -16.548  40.622  0.00  0.00    +0.155 HD
ATOM     37  N   UNL     1      20.243 -15.439  42.850  0.00  0.00    -0.214 NA
BRANCH   4   3
ATOM      1  C   UNL     1      16.842 -12.697  43.404  0.00  0.00    +0.020 A 
ATOM      2  C   UNL     1      17.806 -13.768  43.299  0.00  0.00    +0.013 A 
ATOM      3  C   UNL     1      18.986 -13.795  44.155  0.00  0.00    +0.019 A 
ATOM     38  C   UNL     1      19.161 -12.716  45.115  0.00  0.00    +0.120 A 
ATOM     39  N   UNL     1      18.216 -11.697  45.192  0.00  0.00    -0.263 NA
ATOM     40  C   UNL     1      17.078 -11.659  44.372  0.00  0.00    +0.111 A 
ENDBRANCH   4   3
ENDBRANCH  10   9
BRANCH  12  13
ATOM     13  N   UNL     1      25.941 -18.228  40.068  0.00  0.00    -0.281 N 
ATOM     14  C   UNL     1      27.056 -18.093  40.879  0.00  0.00    +0.248 C 
ATOM     30  O   UNL     1      27.020 -18.017  42.098  0.00  0.00    -0.270 OA
ATOM     31  H   UNL     1      26.092 -18.084  39.070  0.00  0.00    +0.155 HD
BRANCH  14  15
ATOM     15  C   UNL     1      28.407 -18.017  40.242  0.00  0.00    +0.037 A 
ATOM     16  C   UNL     1      28.653 -18.579  38.912  0.00  0.00    +0.013 A 
ATOM     17  C   UNL     1      29.969 -18.507  38.328  0.00  0.00    +0.005 A 
ATOM     18  C   UNL     1      31.049 -17.868  39.075  0.00  0.00    -0.033 A 
ATOM     28  C   UNL     1      30.776 -17.314  40.391  0.00  0.00    +0.005 A 
ATOM     29  C   UNL     1      29.488 -17.383  40.966  0.00  0.00    +0.013 A 
BRANCH  18  19
ATOM     19  C   UNL     1      32.489 -17.764  38.539  0.00  0.00    +0.119 C 
BRANCH  19  20
ATOM     20  N   UNL     1      32.937 -18.814  37.576  0.00  0.00    -0.302 NA
ATOM     21  C   UNL     1      32.708 -20.227  38.119  0.00  0.00    +0.066 C 
ATOM     22  C   UNL     1      33.162 -21.313  37.090  0.00  0.00    -0.064 C 
ATOM     23  N   UNL     1      34.636 -21.099  36.742  0.00  0.00    +0.379 N 
ATOM     24  C   UNL     1      35.081 -22.153  35.819  0.00  0.00    -0.096 C 
ATOM     25  H   UNL     1      35.223 -21.204  37.684  0.00  0.00    -0.082 HD
ATOM     26  C   UNL     1      34.873 -19.695  36.204  0.00  0.00    -0.064 C 
ATOM     27  C   UNL     1      34.392 -18.624  37.222  0.00  0.00    +0.066 C 
ENDBRANCH  19  20
ENDBRANCH  18  19
ENDBRANCH  14  15
ENDBRANCH  12  13
TORSDOF 6
ENDMDL
MODEL 2
REMARK VINA RESULT:      -8.8      5.771     13.199
REMARK  Name = C:\Users\Docking\Desktop\test protocol\1iep_ligandH.pdb
REMARK  8 active torsions:
REMARK  status: ('A' for Active; 'I' for Inactive)
REMARK    1  A    between atoms: _5  and  _11
REMARK    2  A    between atoms: _19  and  _21
REMARK    3  A    between atoms: _22  and  _66
REMARK    4  A    between atoms: _27  and  _30
REMARK    5  A    between atoms: _32  and  _33
REMARK    6  A    between atoms: _38  and  _43
REMARK    7  A    between atoms: _43  and  _46
REMARK    8  A    between atoms: _53  and  _55
REMARK                            x       y       z     vdW  Elec       q    Type
REMARK                         _______ _______ _______ _____ _____    ______ ____
ROOT
ATOM     10  C   UNL     1      22.467 -18.165  38.472  0.00  0.00    +0.038 A 
ATOM     11  C   UNL     1      21.775 -19.370  38.753  0.00  0.00    +0.047 A 
ATOM     12  C   UNL     1      20.323 -19.402  38.837  0.00  0.00    +0.035 A 
ATOM     32  C   UNL     1      19.607 -18.187  38.627  0.00  0.00    +0.024 A 
ATOM     33  C   UNL     1      20.295 -16.953  38.341  0.00  0.00    +0.007 A 
ATOM     34  C   UNL     1      21.727 -16.915  38.259  0.00  0.00    -0.029 A 
ATOM     35  C   UNL     1      22.412 -15.562  37.957  0.00  0.00    +0.045 C 
ENDROOT
BRANCH  10   9
ATOM      4  C   UNL     1      26.808 -18.139  40.520  0.00  0.00    +0.077 A 
ATOM      5  C   UNL     1      26.251 -18.037  41.838  0.00  0.00    +0.048 A 
ATOM      6  C   UNL     1      24.843 -17.986  41.945  0.00  0.00    +0.116 A 
ATOM      7  N   UNL     1      24.060 -18.035  40.812  0.00  0.00    -0.223 NA
ATOM      8  C   UNL     1      24.630 -18.133  39.555  0.00  0.00    +0.220 A 
ATOM      9  N   UNL     1      23.862 -18.192  38.403  0.00  0.00    -0.283 N 
ATOM     36  H   UNL     1      24.320 -18.256  37.494  0.00  0.00    +0.155 HD
ATOM     37  N   UNL     1      25.972 -18.181  39.426  0.00  0.00    -0.214 NA
BRANCH   4   3
ATOM      1  C   UNL     1      30.633 -17.323  40.439  0.00  0.00    +0.020 A 
ATOM      2  C   UNL     1      29.223 -17.211  40.734  0.00  0.00    +0.013 A 
ATOM      3  C   UNL     1      28.278 -18.207  40.243  0.00  0.00    +0.019 A 
ATOM     38  C   UNL     1      28.797 -19.312  39.451  0.00  0.00    +0.120 A 
ATOM     39  N   UNL     1      30.159 -19.392  39.182  0.00  0.00    -0.263 NA
ATOM     40  C   UNL     1      31.078 -18.439  39.648  0.00  0.00    +0.111 A 
ENDBRANCH   4   3
ENDBRANCH  10   9
BRANCH  12  13
ATOM     13  N   UNL     1      19.566 -20.594  39.127  0.00  0.00    -0.281 N 
ATOM     14  C   UNL     1      19.342 -21.683  38.301  0.00  0.00    +0.248 C 
ATOM     30  O   UNL     1      19.583 -21.703  37.103  0.00  0.00    -0.270 OA
ATOM     31  H   UNL     1      19.143 -20.641  40.055  0.00  0.00    +0.155 HD
BRANCH  14  15
ATOM     15  C   UNL     1      18.752 -22.925  38.887  0.00  0.00    +0.037 A 
ATOM     16  C   UNL     1      17.744 -23.703  38.162  0.00  0.00    +0.013 A 
ATOM     17  C   UNL     1      17.178 -24.887  38.758  0.00  0.00    +0.005 A 
ATOM     18  C   UNL     1      17.622 -25.303  40.086  0.00  0.00    -0.033 A 
ATOM     28  C   UNL     1      18.628 -24.516  40.780  0.00  0.00    +0.005 A 
ATOM     29  C   UNL     1      19.184 -23.354  40.200  0.00  0.00    +0.013 A 
BRANCH  18  19
ATOM     19  C   UNL     1      17.059 -26.542  40.807  0.00  0.00    +0.119 C 
BRANCH  19  20
ATOM     20  N   UNL     1      15.642 -26.474  41.276  0.00  0.00    -0.302 NA
ATOM     21  C   UNL     1      15.503 -25.665  42.568  0.00  0.00    +0.066 C 
ATOM     22  C   UNL     1      14.012 -25.585  43.032  0.00  0.00    -0.064 C 
ATOM     23  N   UNL     1      13.463 -27.001  43.218  0.00  0.00    +0.379 N 
ATOM     24  C   UNL     1      12.079 -26.929  43.710  0.00  0.00    -0.096 C 
ATOM     25  H   UNL     1      14.076 -27.501  44.003  0.00  0.00    -0.082 HD
ATOM     26  C   UNL     1      13.600 -27.814  41.938  0.00  0.00    -0.064 C 
ATOM     27  C   UNL     1      15.081 -27.861  41.470  0.00  0.00    +0.066 C 
ENDBRANCH  19  20
ENDBRANCH  18  19
ENDBRANCH  14  15
ENDBRANCH  12  13
TORSDOF 6
ENDMDL
MODEL 3
REMARK VINA RESULT:      -8.5     10.405     17.257
REMARK  Name = C:\Users\Docking\Desktop\test protocol\1iep_ligandH.pdb
REMARK  8 active torsions:
REMARK  status: ('A' for Active; 'I' for Inactive)
REMARK    1  A    between atoms: _5  and  _11
REMARK    2  A    between atoms: _19  and  _21
REMARK    3  A    between atoms: _22  and  _66
REMARK    4  A    between atoms: _27  and  _30
REMARK    5  A    between atoms: _32  and  _33
REMARK    6  A    between atoms: _38  and  _43
REMARK    7  A    between atoms: _43  and  _46
REMARK    8  A    between atoms: _53  and  _55
REMARK                            x       y       z     vdW  Elec       q    Type
REMARK                         _______ _______ _______ _____ _____    ______ ____
ROOT
ATOM     10  C   UNL     1      23.588  -8.786  47.880  0.00  0.00    +0.038 A 
ATOM     11  C   UNL     1      23.842  -8.919  49.268  0.00  0.00    +0.047 A 
ATOM     12  C   UNL     1      23.578  -7.825  50.190  0.00  0.00    +0.035 A 
ATOM     32  C   UNL     1      23.051  -6.610  49.663  0.00  0.00    +0.024 A 
ATOM     33  C   UNL     1      22.787  -6.457  48.254  0.00  0.00    +0.007 A 
ATOM     34  C   UNL     1      23.049  -7.532  47.340  0.00  0.00    -0.029 A 
ATOM     35  C   UNL     1      22.753  -7.310  45.838  0.00  0.00    +0.045 C 
ENDROOT
BRANCH  10   9
ATOM      4  C   UNL     1      22.205 -12.548  45.239  0.00  0.00    +0.077 A 
ATOM      5  C   UNL     1      20.825 -12.357  45.583  0.00  0.00    +0.048 A 
ATOM      6  C   UNL     1      20.514 -11.283  46.447  0.00  0.00    +0.116 A 
ATOM      7  N   UNL     1      21.516 -10.468  46.926  0.00  0.00    -0.223 NA
ATOM      8  C   UNL     1      22.837 -10.681  46.576  0.00  0.00    +0.220 A 
ATOM      9  N   UNL     1      23.860  -9.868  47.040  0.00  0.00    -0.283 N 
ATOM     36  H   UNL     1      24.823 -10.063  46.765  0.00  0.00    +0.155 HD
ATOM     37  N   UNL     1      23.160 -11.700  45.753  0.00  0.00    -0.214 NA
BRANCH   4   3
ATOM      1  C   UNL     1      23.584 -14.479  42.130  0.00  0.00    +0.020 A 
ATOM      2  C   UNL     1      23.123 -13.393  42.963  0.00  0.00    +0.013 A 
ATOM      3  C   UNL     1      22.691 -13.636  44.333  0.00  0.00    +0.019 A 
ATOM     38  C   UNL     1      22.740 -15.001  44.835  0.00  0.00    +0.120 A 
ATOM     39  N   UNL     1      23.188 -16.028  44.010  0.00  0.00    -0.263 NA
ATOM     40  C   UNL     1      23.604 -15.806  42.688  0.00  0.00    +0.111 A 
ENDBRANCH   4   3
ENDBRANCH  10   9
BRANCH  12  13
ATOM     13  N   UNL     1      23.824  -7.899  51.609  0.00  0.00    -0.281 N 
ATOM     14  C   UNL     1      24.840  -7.294  52.330  0.00  0.00    +0.248 C 
ATOM     30  O   UNL     1      25.823  -6.767  51.830  0.00  0.00    -0.270 OA
ATOM     31  H   UNL     1      23.169  -8.466  52.147  0.00  0.00    +0.155 HD
BRANCH  14  15
ATOM     15  C   UNL     1      24.761  -7.286  53.822  0.00  0.00    +0.037 A 
ATOM     16  C   UNL     1      23.522  -6.925  54.516  0.00  0.00    +0.013 A 
ATOM     17  C   UNL     1      23.478  -6.909  55.956  0.00  0.00    +0.005 A 
ATOM     18  C   UNL     1      24.678  -7.256  56.714  0.00  0.00    -0.033 A 
ATOM     28  C   UNL     1      25.892  -7.616  56.000  0.00  0.00    +0.005 A 
ATOM     29  C   UNL     1      25.940  -7.632  54.588  0.00  0.00    +0.013 A 
BRANCH  18  19
ATOM     19  C   UNL     1      24.728  -7.245  58.253  0.00  0.00    +0.119 C 
BRANCH  19  20
ATOM     20  N   UNL     1      23.619  -7.935  58.978  0.00  0.00    -0.302 NA
ATOM     21  C   UNL     1      23.618  -7.605  60.474  0.00  0.00    +0.066 C 
ATOM     22  C   UNL     1      22.439  -8.317  61.213  0.00  0.00    -0.064 C 
ATOM     23  N   UNL     1      22.540  -9.828  60.991  0.00  0.00    +0.379 N 
ATOM     24  C   UNL     1      21.466 -10.505  61.733  0.00  0.00    -0.096 C 
ATOM     25  H   UNL     1      23.512 -10.167  61.418  0.00  0.00    -0.082 HD
ATOM     26  C   UNL     1      22.544 -10.164  59.507  0.00  0.00    -0.064 C 
ATOM     27  C   UNL     1      23.702  -9.428  58.777  0.00  0.00    +0.066 C 
ENDBRANCH  19  20
ENDBRANCH  18  19
ENDBRANCH  14  15
ENDBRANCH  12  13
TORSDOF 6
ENDMDL
MODEL 4
REMARK VINA RESULT:      -8.3      7.472     18.302
REMARK  Name = C:\Users\Docking\Desktop\test protocol\1iep_ligandH.pdb
REMARK  8 active torsions:
REMARK  status: ('A' for Active; 'I' for Inactive)
REMARK    1  A    between atoms: _5  and  _11
REMARK    2  A    between atoms: _19  and  _21
REMARK    3  A    between atoms: _22  and  _66
REMARK    4  A    between atoms: _27  and  _30
REMARK    5  A    between atoms: _32  and  _33
REMARK    6  A    between atoms: _38  and  _43
REMARK    7  A    between atoms: _43  and  _46
REMARK    8  A    between atoms: _53  and  _55
REMARK                            x       y       z     vdW  Elec       q    Type
REMARK                         _______ _______ _______ _____ _____    ______ ____
ROOT
ATOM     10  C   UNL     1      36.282 -27.099  32.277  0.00  0.00    +0.038 A 
ATOM     11  C   UNL     1      35.826 -26.193  33.269  0.00  0.00    +0.047 A 
ATOM     12  C   UNL     1      35.461 -24.827  32.929  0.00  0.00    +0.035 A 
ATOM     32  C   UNL     1      35.570 -24.417  31.568  0.00  0.00    +0.024 A 
ATOM     33  C   UNL     1      36.033 -25.324  30.547  0.00  0.00    +0.007 A 
ATOM     34  C   UNL     1      36.396 -26.673  30.877  0.00  0.00    -0.029 A 
ATOM     35  C   UNL     1      36.892 -27.600  29.744  0.00  0.00    +0.045 C 
ENDROOT
BRANCH  10   9
ATOM      4  C   UNL     1      35.210 -31.732  32.927  0.00  0.00    +0.077 A 
ATOM      5  C   UNL     1      33.856 -31.541  32.493  0.00  0.00    +0.048 A 
ATOM      6  C   UNL     1      33.473 -30.233  32.118  0.00  0.00    +0.116 A 
ATOM      7  N   UNL     1      34.385 -29.202  32.176  0.00  0.00    -0.223 NA
ATOM      8  C   UNL     1      35.683 -29.420  32.601  0.00  0.00    +0.220 A 
ATOM      9  N   UNL     1      36.619 -28.399  32.660  0.00  0.00    -0.283 N 
ATOM     36  H   UNL     1      37.564 -28.600  32.986  0.00  0.00    +0.155 HD
ATOM     37  N   UNL     1      36.072 -30.660  32.966  0.00  0.00    -0.214 NA
BRANCH   4   3
ATOM      1  C   UNL     1      37.530 -34.496  34.436  0.00  0.00    +0.020 A 
ATOM      2  C   UNL     1      37.039 -33.194  34.047  0.00  0.00    +0.013 A 
ATOM      3  C   UNL     1      35.765 -33.056  33.352  0.00  0.00    +0.019 A 
ATOM     38  C   UNL     1      35.007 -34.264  33.064  0.00  0.00    +0.120 A 
ATOM     39  N   UNL     1      35.506 -35.504  33.450  0.00  0.00    -0.263 NA
ATOM     40  C   UNL     1      36.731 -35.650  34.118  0.00  0.00    +0.111 A 
ENDBRANCH   4   3
ENDBRANCH  10   9
BRANCH  12  13
ATOM     13  N   UNL     1      34.999 -23.860  33.894  0.00  0.00    -0.281 N 
ATOM     14  C   UNL     1      35.736 -23.217  34.874  0.00  0.00    +0.248 C 
ATOM     30  O   UNL     1      36.867 -23.536  35.211  0.00  0.00    -0.270 OA
ATOM     31  H   UNL     1      34.008 -23.621  33.848  0.00  0.00    +0.155 HD
BRANCH  14  15
ATOM     15  C   UNL     1      35.124 -22.060  35.596  0.00  0.00    +0.037 A 
ATOM     16  C   UNL     1      33.796 -22.162  36.206  0.00  0.00    +0.013 A 
ATOM     17  C   UNL     1      33.221 -21.026  36.882  0.00  0.00    +0.005 A 
ATOM     18  C   UNL     1      33.976 -19.777  36.952  0.00  0.00    -0.033 A 
ATOM     28  C   UNL     1      35.293 -19.705  36.342  0.00  0.00    +0.005 A 
ATOM     29  C   UNL     1      35.859 -20.816  35.679  0.00  0.00    +0.013 A 
BRANCH  18  19
ATOM     19  C   UNL     1      33.431 -18.508  37.634  0.00  0.00    +0.119 C 
BRANCH  19  20
ATOM     20  N   UNL     1      32.111 -18.615  38.323  0.00  0.00    -0.302 NA
ATOM     21  C   UNL     1      30.948 -18.245  37.398  0.00  0.00    +0.066 C 
ATOM     22  C   UNL     1      29.573 -18.385  38.128  0.00  0.00    -0.064 C 
ATOM     23  N   UNL     1      29.571 -17.503  39.378  0.00  0.00    +0.379 N 
ATOM     24  C   UNL     1      28.258 -17.587  40.035  0.00  0.00    -0.096 C 
ATOM     25  H   UNL     1      29.717 -16.448  39.048  0.00  0.00    -0.082 HD
ATOM     26  C   UNL     1      30.725 -17.862  40.303  0.00  0.00    -0.064 C 
ATOM     27  C   UNL     1      32.085 -17.749  39.559  0.00  0.00    +0.066 C 
ENDBRANCH  19  20
ENDBRANCH  18  19
ENDBRANCH  14  15
ENDBRANCH  12  13
TORSDOF 6
ENDMDL
MODEL 5
REMARK VINA RESULT:      -8.2      8.374     12.873
REMARK  Name = C:\Users\Docking\Desktop\test protocol\1iep_ligandH.pdb
REMARK  8 active torsions:
REMARK  status: ('A' for Active; 'I' for Inactive)
REMARK    1  A    between atoms: _5  and  _11
REMARK    2  A    between atoms: _19  and  _21
REMARK    3  A    between atoms: _22  and  _66
REMARK    4  A    between atoms: _27  and  _30
REMARK    5  A    between atoms: _32  and  _33
REMARK    6  A    between atoms: _38  and  _43
REMARK    7  A    between atoms: _43  and  _46
REMARK    8  A    between atoms: _53  and  _55
REMARK                            x       y       z     vdW  Elec       q    Type
REMARK                         _______ _______ _______ _____ _____    ______ ____
ROOT
ATOM     10  C   UNL     1      24.076  -7.328  48.481  0.00  0.00    +0.038 A 
ATOM     11  C   UNL     1      23.915  -8.683  48.097  0.00  0.00    +0.047 A 
ATOM     12  C   UNL     1      22.928  -9.071  47.101  0.00  0.00    +0.035 A 
ATOM     32  C   UNL     1      22.124  -8.051  46.514  0.00  0.00    +0.024 A 
ATOM     33  C   UNL     1      22.274  -6.668  46.894  0.00  0.00    +0.007 A 
ATOM     34  C   UNL     1      23.244  -6.280  47.878  0.00  0.00    -0.029 A 
ATOM     35  C   UNL     1      23.357  -4.783  48.251  0.00  0.00    +0.045 C 
ENDROOT
BRANCH  10   9
ATOM      4  C   UNL     1      25.563  -6.993  53.033  0.00  0.00    +0.077 A 
ATOM      5  C   UNL     1      24.305  -7.461  53.540  0.00  0.00    +0.048 A 
ATOM      6  C   UNL     1      23.300  -7.771  52.597  0.00  0.00    +0.116 A 
ATOM      7  N   UNL     1      23.545  -7.620  51.249  0.00  0.00    -0.223 NA
ATOM      8  C   UNL     1      24.768  -7.164  50.793  0.00  0.00    +0.220 A 
ATOM      9  N   UNL     1      25.039  -7.012  49.442  0.00  0.00    -0.283 N 
ATOM     36  H   UNL     1      25.952  -6.666  49.147  0.00  0.00    +0.155 HD
ATOM     37  N   UNL     1      25.744  -6.860  51.674  0.00  0.00    -0.214 NA
BRANCH   4   3
ATOM      1  C   UNL     1      28.413  -7.137  55.708  0.00  0.00    +0.020 A 
ATOM      2  C   UNL     1      27.290  -7.538  54.892  0.00  0.00    +0.013 A 
ATOM      3  C   UNL     1      26.725  -6.629  53.904  0.00  0.00    +0.019 A 
ATOM     38  C   UNL     1      27.324  -5.310  53.764  0.00  0.00    +0.120 A 
ATOM     39  N   UNL     1      28.404  -4.951  54.564  0.00  0.00    -0.263 NA
ATOM     40  C   UNL     1      28.955  -5.817  55.520  0.00  0.00    +0.111 A 
ENDBRANCH   4   3
ENDBRANCH  10   9
BRANCH  12  13
ATOM     13  N   UNL     1      22.714 -10.432  46.677  0.00  0.00    -0.281 N 
ATOM     14  C   UNL     1      21.512 -11.050  46.372  0.00  0.00    +0.248 C 
ATOM     30  O   UNL     1      20.411 -10.583  46.626  0.00  0.00    -0.270 OA
ATOM     31  H   UNL     1      23.550 -11.010  46.590  0.00  0.00    +0.155 HD
BRANCH  14  15
ATOM     15  C   UNL     1      21.536 -12.386  45.703  0.00  0.00    +0.037 A 
ATOM     16  C   UNL     1      20.355 -12.911  45.013  0.00  0.00    +0.013 A 
ATOM     17  C   UNL     1      20.400 -14.210  44.389  0.00  0.00    +0.005 A 
ATOM     18  C   UNL     1      21.632 -14.993  44.452  0.00  0.00    -0.033 A 
ATOM     28  C   UNL     1      22.791 -14.445  45.139  0.00  0.00    +0.005 A 
ATOM     29  C   UNL     1      22.750 -13.173  45.752  0.00  0.00    +0.013 A 
BRANCH  18  19
ATOM     19  C   UNL     1      21.764 -16.397  43.834  0.00  0.00    +0.119 C 
BRANCH  19  20
ATOM     20  N   UNL     1      22.448 -16.500  42.510  0.00  0.00    -0.302 NA
ATOM     21  C   UNL     1      21.803 -17.558  41.611  0.00  0.00    +0.066 C 
ATOM     22  C   UNL     1      22.517 -17.636  40.222  0.00  0.00    -0.064 C 
ATOM     23  N   UNL     1      24.002 -17.936  40.432  0.00  0.00    +0.379 N 
ATOM     24  C   UNL     1      24.665 -18.068  39.126  0.00  0.00    -0.096 C 
ATOM     25  H   UNL     1      24.078 -18.920  40.951  0.00  0.00    -0.082 HD
ATOM     26  C   UNL     1      24.651 -16.891  41.328  0.00  0.00    -0.064 C 
ATOM     27  C   UNL     1      23.916 -16.800  42.694  0.00  0.00    +0.066 C 
ENDBRANCH  19  20
ENDBRANCH  18  19
ENDBRANCH  14  15
ENDBRANCH  12  13
TORSDOF 6
ENDMDL
