MODEL 1
REMARK VINA RESULT:      -8.4      0.000      0.000
REMARK  Name = C:\Users\Docking\Desktop\test protocol\1iep_ligandH.pdb
REMARK  8 active torsions:
REMARK  status: ('A' for Active; 'I' for Inactive)
REMARK    1  A    between atoms: _5  and  _11
REMARK    2  A    between atoms: _19  and  _21
REMARK    3  A    between atoms: _22  and  _66
REMARK    4  A    between atoms: _27  and  _30
REMARK    5  A    between atoms: _32  and  _33
REMARK    6  A    between atoms: _38  and  _43
REMARK    7  A    between atoms: _43  and  _46
REMARK    8  A    between atoms: _53  and  _55
REMARK                            x       y       z     vdW  Elec       q    Type
REMARK                         _______ _______ _______ _____ _____    ______ ____
ROOT
ATOM     10  C   UNL     1      14.731  21.293   7.937  0.00  0.00    +0.038 A 
ATOM     11  C   UNL     1      15.925  21.420   8.692  0.00  0.00    +0.047 A 
ATOM     12  C   UNL     1      16.868  20.317   8.799  0.00  0.00    +0.035 A 
ATOM     32  C   UNL     1      16.564  19.100   8.122  0.00  0.00    +0.024 A 
ATOM     33  C   UNL     1      15.354  18.954   7.351  0.00  0.00    +0.007 A 
ATOM     34  C   UNL     1      14.419  20.037   7.244  0.00  0.00    -0.029 A 
ATOM     35  C   UNL     1      13.135  19.822   6.410  0.00  0.00    +0.045 C 
ENDROOT
BRANCH  10   9
ATOM      4  C   UNL     1      11.097  23.924   9.644  0.00  0.00    +0.077 A 
ATOM      5  C   UNL     1      10.897  23.035  10.753  0.00  0.00    +0.048 A 
ATOM      6  C   UNL     1      11.745  21.909  10.843  0.00  0.00    +0.116 A 
ATOM      7  N   UNL     1      12.718  21.698   9.891  0.00  0.00    -0.223 NA
ATOM      8  C   UNL     1      12.884  22.573   8.833  0.00  0.00    +0.220 A 
ATOM      9  N   UNL     1      13.861  22.384   7.868  0.00  0.00    -0.283 N 
ATOM     36  H   UNL     1      13.946  23.049   7.100  0.00  0.00    +0.155 HD
ATOM     37  N   UNL     1      12.085  23.655   8.724  0.00  0.00    -0.214 NA
BRANCH   4   3
ATOM      1  C   UNL     1       8.121  26.458   9.486  0.00  0.00    +0.020 A 
ATOM      2  C   UNL     1       8.862  25.241   9.729  0.00  0.00    +0.013 A 
ATOM      3  C   UNL     1      10.283  25.159   9.413  0.00  0.00    +0.019 A 
ATOM     38  C   UNL     1      10.929  26.334   8.850  0.00  0.00    +0.120 A 
ATOM     39  N   UNL     1      10.190  27.492   8.626  0.00  0.00    -0.263 NA
ATOM     40  C   UNL     1       8.822  27.582   8.924  0.00  0.00    +0.111 A 
ENDBRANCH   4   3
ENDBRANCH  10   9
BRANCH  12  13
ATOM     13  N   UNL     1      18.092  20.384   9.557  0.00  0.00    -0.281 N 
ATOM     14  C   UNL     1      19.315  20.899   9.157  0.00  0.00    +0.248 C 
ATOM     30  O   UNL     1      19.599  21.188   8.005  0.00  0.00    -0.270 OA
ATOM     31  H   UNL     1      18.053  20.007  10.504  0.00  0.00    +0.155 HD
BRANCH  14  15
ATOM     15  C   UNL     1      20.380  21.110  10.184  0.00  0.00    +0.037 A 
ATOM     16  C   UNL     1      20.640  20.113  11.226  0.00  0.00    +0.013 A 
ATOM     17  C   UNL     1      21.662  20.349  12.214  0.00  0.00    +0.005 A 
ATOM     18  C   UNL     1      22.434  21.589  12.164  0.00  0.00    -0.033 A 
ATOM     28  C   UNL     1      22.159  22.558  11.117  0.00  0.00    +0.005 A 
ATOM     29  C   UNL     1      21.157  22.331  10.147  0.00  0.00    +0.013 A 
BRANCH  18  19
ATOM     19  C   UNL     1      23.529  21.934  13.191  0.00  0.00    +0.119 C 
BRANCH  19  20
ATOM     20  N   UNL     1      23.082  22.405  14.536  0.00  0.00    -0.302 NA
ATOM     21  C   UNL     1      22.690  23.885  14.525  0.00  0.00    +0.066 C 
ATOM     22  C   UNL     1      22.204  24.355  15.934  0.00  0.00    -0.064 C 
ATOM     23  N   UNL     1      23.304  24.094  16.964  0.00  0.00    +0.379 N 
ATOM     24  C   UNL     1      22.873  24.588  18.280  0.00  0.00    -0.096 C 
ATOM     25  H   UNL     1      24.200  24.683  16.658  0.00  0.00    -0.082 HD
ATOM     26  C   UNL     1      23.702  22.625  16.979  0.00  0.00    -0.064 C 
ATOM     27  C   UNL     1      24.156  22.160  15.567  0.00  0.00    +0.066 C 
ENDBRANCH  19  20
ENDBRANCH  18  19
ENDBRANCH  14  15
ENDBRANCH  12  13
TORSDOF 6
ENDMDL
MODEL 2
REMARK VINA RESULT:      -8.0      5.727      7.980
REMARK  Name = C:\Users\Docking\Desktop\test protocol\1iep_ligandH.pdb
REMARK  8 active torsions:
REMARK  status: ('A' for Active; 'I' for Inactive)
REMARK    1  A    between atoms: _5  and  _11
REMARK    2  A    between atoms: _19  and  _21
REMARK    3  A    between atoms: _22  and  _66
REMARK    4  A    between atoms: _27  and  _30
REMARK    5  A    between atoms: _32  and  _33
REMARK    6  A    between atoms: _38  and  _43
REMARK    7  A    between atoms: _43  and  _46
REMARK    8  A    between atoms: _53  and  _55
REMARK                            x       y       z     vdW  Elec       q    Type
REMARK                         _______ _______ _______ _____ _____    ______ ____
ROOT
ATOM     10  C   UNL     1      12.256  22.842   8.744  0.00  0.00    +0.038 A 
ATOM     11  C   UNL     1      13.450  23.096   8.021  0.00  0.00    +0.047 A 
ATOM     12  C   UNL     1      14.739  22.634   8.510  0.00  0.00    +0.035 A 
ATOM     32  C   UNL     1      14.776  21.913   9.739  0.00  0.00    +0.024 A 
ATOM     33  C   UNL     1      13.573  21.647  10.488  0.00  0.00    +0.007 A 
ATOM     34  C   UNL     1      12.298  22.103  10.011  0.00  0.00    -0.029 A 
ATOM     35  C   UNL     1      11.042  21.794  10.858  0.00  0.00    +0.045 C 
ENDROOT
BRANCH  10   9
ATOM      4  C   UNL     1       9.074  26.340   7.919  0.00  0.00    +0.077 A 
ATOM      5  C   UNL     1       9.880  27.314   8.598  0.00  0.00    +0.048 A 
ATOM      6  C   UNL     1      11.102  26.872   9.151  0.00  0.00    +0.116 A 
ATOM      7  N   UNL     1      11.481  25.553   9.029  0.00  0.00    -0.223 NA
ATOM      8  C   UNL     1      10.680  24.639   8.369  0.00  0.00    +0.220 A 
ATOM      9  N   UNL     1      11.045  23.309   8.227  0.00  0.00    -0.283 N 
ATOM     36  H   UNL     1      10.423  22.665   7.740  0.00  0.00    +0.155 HD
ATOM     37  N   UNL     1       9.507  25.036   7.833  0.00  0.00    -0.214 NA
BRANCH   4   3
ATOM      1  C   UNL     1       5.299  27.210   7.377  0.00  0.00    +0.020 A 
ATOM      2  C   UNL     1       6.545  26.911   8.045  0.00  0.00    +0.013 A 
ATOM      3  C   UNL     1       7.758  26.653   7.278  0.00  0.00    +0.019 A 
ATOM     38  C   UNL     1       7.675  26.706   5.826  0.00  0.00    +0.120 A 
ATOM     39  N   UNL     1       6.461  26.994   5.211  0.00  0.00    -0.263 NA
ATOM     40  C   UNL     1       5.287  27.243   5.938  0.00  0.00    +0.111 A 
ENDBRANCH   4   3
ENDBRANCH  10   9
BRANCH  12  13
ATOM     13  N   UNL     1      15.985  22.869   7.824  0.00  0.00    -0.281 N 
ATOM     14  C   UNL     1      16.537  22.136   6.786  0.00  0.00    +0.248 C 
ATOM     30  O   UNL     1      16.142  21.035   6.431  0.00  0.00    -0.270 OA
ATOM     31  H   UNL     1      16.526  23.674   8.141  0.00  0.00    +0.155 HD
BRANCH  14  15
ATOM     15  C   UNL     1      17.705  22.701   6.044  0.00  0.00    +0.037 A 
ATOM     16  C   UNL     1      19.042  22.115   6.171  0.00  0.00    +0.013 A 
ATOM     17  C   UNL     1      20.154  22.690   5.458  0.00  0.00    +0.005 A 
ATOM     18  C   UNL     1      19.934  23.859   4.610  0.00  0.00    -0.033 A 
ATOM     28  C   UNL     1      18.597  24.418   4.498  0.00  0.00    +0.005 A 
ATOM     29  C   UNL     1      17.504  23.857   5.196  0.00  0.00    +0.013 A 
BRANCH  18  19
ATOM     19  C   UNL     1      21.067  24.551   3.829  0.00  0.00    +0.119 C 
BRANCH  19  20
ATOM     20  N   UNL     1      20.673  25.571   2.812  0.00  0.00    -0.302 NA
ATOM     21  C   UNL     1      21.741  25.745   1.729  0.00  0.00    +0.066 C 
ATOM     22  C   UNL     1      21.303  26.799   0.661  0.00  0.00    -0.064 C 
ATOM     23  N   UNL     1      21.011  28.132   1.353  0.00  0.00    +0.379 N 
ATOM     24  C   UNL     1      20.654  29.141   0.345  0.00  0.00    -0.096 C 
ATOM     25  H   UNL     1      21.951  28.467   1.850  0.00  0.00    -0.082 HD
ATOM     26  C   UNL     1      19.952  27.967   2.434  0.00  0.00    -0.064 C 
ATOM     27  C   UNL     1      20.385  26.896   3.474  0.00  0.00    +0.066 C 
ENDBRANCH  19  20
ENDBRANCH  18  19
ENDBRANCH  14  15
ENDBRANCH  12  13
TORSDOF 6
ENDMDL
MODEL 3
REMARK VINA RESULT:      -8.0      8.224     16.100
REMARK  Name = C:\Users\Docking\Desktop\test protocol\1iep_ligandH.pdb
REMARK  8 active torsions:
REMARK  status: ('A' for Active; 'I' for Inactive)
REMARK    1  A    between atoms: _5  and  _11
REMARK    2  A    between atoms: _19  and  _21
REMARK    3  A    between atoms: _22  and  _66
REMARK    4  A    between atoms: _27  and  _30
REMARK    5  A    between atoms: _32  and  _33
REMARK    6  A    between atoms: _38  and  _43
REMARK    7  A    between atoms: _43  and  _46
REMARK    8  A    between atoms: _53  and  _55
REMARK                            x       y       z     vdW  Elec       q    Type
REMARK                         _______ _______ _______ _____ _____    ______ ____
ROOT
ATOM     10  C   UNL     1       9.327  25.153   8.348  0.00  0.00    +0.038 A 
ATOM     11  C   UNL     1       7.948  25.423   8.159  0.00  0.00    +0.047 A 
ATOM     12  C   UNL     1       7.437  26.785   8.187  0.00  0.00    +0.035 A 
ATOM     32  C   UNL     1       8.360  27.849   8.406  0.00  0.00    +0.024 A 
ATOM     33  C   UNL     1       9.766  27.592   8.601  0.00  0.00    +0.007 A 
ATOM     34  C   UNL     1      10.275  26.251   8.577  0.00  0.00    -0.029 A 
ATOM     35  C   UNL     1      11.790  26.034   8.799  0.00  0.00    +0.045 C 
ENDROOT
BRANCH  10   9
ATOM      4  C   UNL     1      10.654  21.074  10.501  0.00  0.00    +0.077 A 
ATOM      5  C   UNL     1      10.491  21.641  11.808  0.00  0.00    +0.048 A 
ATOM      6  C   UNL     1      10.071  22.988  11.883  0.00  0.00    +0.116 A 
ATOM      7  N   UNL     1       9.834  23.705  10.730  0.00  0.00    -0.223 NA
ATOM      8  C   UNL     1      10.003  23.128   9.485  0.00  0.00    +0.220 A 
ATOM      9  N   UNL     1       9.763  23.827   8.312  0.00  0.00    -0.283 N 
ATOM     36  H   UNL     1       9.907  23.368   7.413  0.00  0.00    +0.155 HD
ATOM     37  N   UNL     1      10.405  21.843   9.386  0.00  0.00    -0.214 NA
BRANCH   4   3
ATOM      1  C   UNL     1      10.960  17.178  10.679  0.00  0.00    +0.020 A 
ATOM      2  C   UNL     1      10.504  18.522  10.951  0.00  0.00    +0.013 A 
ATOM      3  C   UNL     1      11.089  19.662  10.258  0.00  0.00    +0.019 A 
ATOM     38  C   UNL     1      12.142  19.406   9.286  0.00  0.00    +0.120 A 
ATOM     39  N   UNL     1      12.562  18.101   9.046  0.00  0.00    -0.263 NA
ATOM     40  C   UNL     1      12.007  16.997   9.709  0.00  0.00    +0.111 A 
ENDBRANCH   4   3
ENDBRANCH  10   9
BRANCH  12  13
ATOM     13  N   UNL     1       6.046  27.120   8.009  0.00  0.00    -0.281 N 
ATOM     14  C   UNL     1       5.347  27.254   6.821  0.00  0.00    +0.248 C 
ATOM     30  O   UNL     1       5.867  27.317   5.717  0.00  0.00    -0.270 OA
ATOM     31  H   UNL     1       5.511  27.276   8.864  0.00  0.00    +0.155 HD
BRANCH  14  15
ATOM     15  C   UNL     1       3.856  27.347   6.866  0.00  0.00    +0.037 A 
ATOM     16  C   UNL     1       3.029  26.169   7.140  0.00  0.00    +0.013 A 
ATOM     17  C   UNL     1       1.592  26.283   7.161  0.00  0.00    +0.005 A 
ATOM     18  C   UNL     1       0.973  27.582   6.909  0.00  0.00    -0.033 A 
ATOM     28  C   UNL     1       1.818  28.736   6.645  0.00  0.00    +0.005 A 
ATOM     29  C   UNL     1       3.226  28.628   6.623  0.00  0.00    +0.013 A 
BRANCH  18  19
ATOM     19  C   UNL     1      -0.552  27.792   6.891  0.00  0.00    +0.119 C 
BRANCH  19  20
ATOM     20  N   UNL     1      -1.270  27.708   8.198  0.00  0.00    -0.302 NA
ATOM     21  C   UNL     1      -0.508  28.423   9.318  0.00  0.00    +0.066 C 
ATOM     22  C   UNL     1      -1.283  28.345  10.674  0.00  0.00    -0.064 C 
ATOM     23  N   UNL     1      -1.527  26.878  11.035  0.00  0.00    +0.379 N 
ATOM     24  C   UNL     1      -2.204  26.800  12.337  0.00  0.00    -0.096 C 
ATOM     25  H   UNL     1      -0.532  26.387  11.141  0.00  0.00    -0.082 HD
ATOM     26  C   UNL     1      -2.281  26.159   9.925  0.00  0.00    -0.064 C 
ATOM     27  C   UNL     1      -1.517  26.269   8.576  0.00  0.00    +0.066 C 
ENDBRANCH  19  20
ENDBRANCH  18  19
ENDBRANCH  14  15
ENDBRANCH  12  13
TORSDOF 6
ENDMDL
MODEL 4
REMARK VINA RESULT:      -7.9      8.177     12.867
REMARK  Name = C:\Users\Docking\Desktop\test protocol\1iep_ligandH.pdb
REMARK  8 active torsions:
REMARK  status: ('A' for Active; 'I' for Inactive)
REMARK    1  A    between atoms: _5  and  _11
REMARK    2  A    between atoms: _19  and  _21
REMARK    3  A    between atoms: _22  and  _66
REMARK    4  A    between atoms: _27  and  _30
REMARK    5  A    between atoms: _32  and  _33
REMARK    6  A    between atoms: _38  and  _43
REMARK    7  A    between atoms: _43  and  _46
REMARK    8  A    between atoms: _53  and  _55
REMARK                            x       y       z     vdW  Elec       q    Type
REMARK                         _______ _______ _______ _____ _____    ______ ____
ROOT
ATOM     10  C   UNL     1      10.261  17.635  11.853  0.00  0.00    +0.038 A 
ATOM     11  C   UNL     1       9.963  19.015  11.725  0.00  0.00    +0.047 A 
ATOM     12  C   UNL     1      10.552  19.817  10.664  0.00  0.00    +0.035 A 
ATOM     32  C   UNL     1      11.439  19.180   9.749  0.00  0.00    +0.024 A 
ATOM     33  C   UNL     1      11.754  17.778   9.864  0.00  0.00    +0.007 A 
ATOM     34  C   UNL     1      11.178  16.982  10.911  0.00  0.00    -0.029 A 
ATOM     35  C   UNL     1      11.557  15.485  10.991  0.00  0.00    +0.045 C 
ENDROOT
BRANCH  10   9
ATOM      4  C   UNL     1       6.635  15.096  13.709  0.00  0.00    +0.077 A 
ATOM      5  C   UNL     1       5.846  15.243  12.520  0.00  0.00    +0.048 A 
ATOM      6  C   UNL     1       6.407  15.986  11.457  0.00  0.00    +0.116 A 
ATOM      7  N   UNL     1       7.664  16.535  11.584  0.00  0.00    -0.223 NA
ATOM      8  C   UNL     1       8.398  16.376  12.745  0.00  0.00    +0.220 A 
ATOM      9  N   UNL     1       9.668  16.913  12.891  0.00  0.00    -0.283 N 
ATOM     36  H   UNL     1      10.174  16.779  13.766  0.00  0.00    +0.155 HD
ATOM     37  N   UNL     1       7.884  15.672  13.775  0.00  0.00    -0.214 NA
BRANCH   4   3
ATOM      1  C   UNL     1       4.913  12.466  16.036  0.00  0.00    +0.020 A 
ATOM      2  C   UNL     1       5.322  13.163  14.838  0.00  0.00    +0.013 A 
ATOM      3  C   UNL     1       6.182  14.337  14.917  0.00  0.00    +0.019 A 
ATOM     38  C   UNL     1       6.615  14.782  16.233  0.00  0.00    +0.120 A 
ATOM     39  N   UNL     1       6.205  14.091  17.369  0.00  0.00    -0.263 NA
ATOM     40  C   UNL     1       5.375  12.961  17.306  0.00  0.00    +0.111 A 
ENDBRANCH   4   3
ENDBRANCH  10   9
BRANCH  12  13
ATOM     13  N   UNL     1      10.293  21.225  10.489  0.00  0.00    -0.281 N 
ATOM     14  C   UNL     1      11.211  22.262  10.451  0.00  0.00    +0.248 C 
ATOM     30  O   UNL     1      12.384  22.158  10.777  0.00  0.00    -0.270 OA
ATOM     31  H   UNL     1       9.313  21.489  10.380  0.00  0.00    +0.155 HD
BRANCH  14  15
ATOM     15  C   UNL     1      10.756  23.612  10.000  0.00  0.00    +0.037 A 
ATOM     16  C   UNL     1      11.704  24.592   9.463  0.00  0.00    +0.013 A 
ATOM     17  C   UNL     1      11.242  25.894   9.050  0.00  0.00    +0.005 A 
ATOM     18  C   UNL     1       9.823  26.222   9.172  0.00  0.00    -0.033 A 
ATOM     28  C   UNL     1       8.904  25.229   9.703  0.00  0.00    +0.005 A 
ATOM     29  C   UNL     1       9.354  23.953  10.109  0.00  0.00    +0.013 A 
BRANCH  18  19
ATOM     19  C   UNL     1       9.245  27.594   8.776  0.00  0.00    +0.119 C 
BRANCH  19  20
ATOM     20  N   UNL     1       8.385  27.647   7.556  0.00  0.00    -0.302 NA
ATOM     21  C   UNL     1       6.945  27.219   7.850  0.00  0.00    +0.066 C 
ATOM     22  C   UNL     1       6.054  27.302   6.568  0.00  0.00    -0.064 C 
ATOM     23  N   UNL     1       6.664  26.431   5.468  0.00  0.00    +0.379 N 
ATOM     24  C   UNL     1       5.798  26.461   4.281  0.00  0.00    -0.096 C 
ATOM     25  H   UNL     1       6.688  25.381   5.843  0.00  0.00    -0.082 HD
ATOM     26  C   UNL     1       8.098  26.848   5.172  0.00  0.00    -0.064 C 
ATOM     27  C   UNL     1       8.968  26.790   6.459  0.00  0.00    +0.066 C 
ENDBRANCH  19  20
ENDBRANCH  18  19
ENDBRANCH  14  15
ENDBRANCH  12  13
TORSDOF 6
ENDMDL
MODEL 5
REMARK VINA RESULT:      -7.9      5.953      7.951
REMARK  Name = C:\Users\Docking\Desktop\test protocol\1iep_ligandH.pdb
REMARK  8 active torsions:
REMARK  status: ('A' for Active; 'I' for Inactive)
REMARK    1  A    between atoms: _5  and  _11
REMARK    2  A    between atoms: _19  and  _21
REMARK    3  A    between atoms: _22  and  _66
REMARK    4  A    between atoms: _27  and  _30
REMARK    5  A    between atoms: _32  and  _33
REMARK    6  A    between atoms: _38  and  _43
REMARK    7  A    between atoms: _43  and  _46
REMARK    8  A    between atoms: _53  and  _55
REMARK                            x       y       z     vdW  Elec       q    Type
REMARK                         _______ _______ _______ _____ _____    ______ ____
ROOT
ATOM     10  C   UNL     1      12.725  23.081   8.192  0.00  0.00    +0.038 A 
ATOM     11  C   UNL     1      13.899  23.391   7.459  0.00  0.00    +0.047 A 
ATOM     12  C   UNL     1      15.211  22.977   7.931  0.00  0.00    +0.035 A 
ATOM     32  C   UNL     1      15.291  22.248   9.153  0.00  0.00    +0.024 A 
ATOM     33  C   UNL     1      14.108  21.925   9.911  0.00  0.00    +0.007 A 
ATOM     34  C   UNL     1      12.811  22.333   9.452  0.00  0.00    -0.029 A 
ATOM     35  C   UNL     1      11.577  21.965  10.309  0.00  0.00    +0.045 C 
ENDROOT
BRANCH  10   9
ATOM      4  C   UNL     1       9.208  26.322   7.782  0.00  0.00    +0.077 A 
ATOM      5  C   UNL     1       9.873  27.242   8.659  0.00  0.00    +0.048 A 
ATOM      6  C   UNL     1      11.115  26.840   9.200  0.00  0.00    +0.116 A 
ATOM      7  N   UNL     1      11.643  25.608   8.881  0.00  0.00    -0.223 NA
ATOM      8  C   UNL     1      10.975  24.744   8.033  0.00  0.00    +0.220 A 
ATOM      9  N   UNL     1      11.491  23.503   7.693  0.00  0.00    -0.283 N 
ATOM     36  H   UNL     1      10.963  22.891   7.070  0.00  0.00    +0.155 HD
ATOM     37  N   UNL     1       9.786  25.103   7.505  0.00  0.00    -0.214 NA
BRANCH   4   3
ATOM      1  C   UNL     1       5.448  27.231   7.201  0.00  0.00    +0.020 A 
ATOM      2  C   UNL     1       6.696  26.969   7.880  0.00  0.00    +0.013 A 
ATOM      3  C   UNL     1       7.890  26.603   7.129  0.00  0.00    +0.019 A 
ATOM     38  C   UNL     1       7.788  26.510   5.681  0.00  0.00    +0.120 A 
ATOM     39  N   UNL     1       6.572  26.767   5.054  0.00  0.00    -0.263 NA
ATOM     40  C   UNL     1       5.416  27.118   5.766  0.00  0.00    +0.111 A 
ENDBRANCH   4   3
ENDBRANCH  10   9
BRANCH  12  13
ATOM     13  N   UNL     1      16.439  23.270   7.234  0.00  0.00    -0.281 N 
ATOM     14  C   UNL     1      17.020  22.558   6.197  0.00  0.00    +0.248 C 
ATOM     30  O   UNL     1      16.679  21.436   5.853  0.00  0.00    -0.270 OA
ATOM     31  H   UNL     1      16.941  24.103   7.542  0.00  0.00    +0.155 HD
BRANCH  14  15
ATOM     15  C   UNL     1      18.153  23.175   5.443  0.00  0.00    +0.037 A 
ATOM     16  C   UNL     1      18.138  24.593   5.075  0.00  0.00    +0.013 A 
ATOM     17  C   UNL     1      19.236  25.160   4.333  0.00  0.00    +0.005 A 
ATOM     18  C   UNL     1      20.360  24.307   3.955  0.00  0.00    -0.033 A 
ATOM     28  C   UNL     1      20.353  22.905   4.338  0.00  0.00    +0.005 A 
ATOM     29  C   UNL     1      19.277  22.346   5.065  0.00  0.00    +0.013 A 
BRANCH  18  19
ATOM     19  C   UNL     1      21.565  24.822   3.145  0.00  0.00    +0.119 C 
BRANCH  19  20
ATOM     20  N   UNL     1      22.507  23.801   2.597  0.00  0.00    -0.302 NA
ATOM     21  C   UNL     1      23.909  23.931   3.200  0.00  0.00    +0.066 C 
ATOM     22  C   UNL     1      24.876  22.841   2.633  0.00  0.00    -0.064 C 
ATOM     23  N   UNL     1      24.929  22.954   1.109  0.00  0.00    +0.379 N 
ATOM     24  C   UNL     1      25.882  21.969   0.577  0.00  0.00    -0.096 C 
ATOM     25  H   UNL     1      25.317  23.969   0.858  0.00  0.00    -0.082 HD
ATOM     26  C   UNL     1      23.539  22.828   0.501  0.00  0.00    -0.064 C 
ATOM     27  C   UNL     1      22.579  23.897   1.093  0.00  0.00    +0.066 C 
ENDBRANCH  19  20
ENDBRANCH  18  19
ENDBRANCH  14  15
ENDBRANCH  12  13
TORSDOF 6
ENDMDL
