MODEL 1
REMARK VINA RESULT:      -8.6      0.000      0.000
REMARK  Name = C:\Users\Docking\Desktop\test protocol\1iep_ligandH.pdb
REMARK  8 active torsions:
REMARK  status: ('A' for Active; 'I' for Inactive)
REMARK    1  A    between atoms: _5  and  _11
REMARK    2  A    between atoms: _19  and  _21
REMARK    3  A    between atoms: _22  and  _66
REMARK    4  A    between atoms: _27  and  _30
REMARK    5  A    between atoms: _32  and  _33
REMARK    6  A    between atoms: _38  and  _43
REMARK    7  A    between atoms: _43  and  _46
REMARK    8  A    between atoms: _53  and  _55
REMARK                            x       y       z     vdW  Elec       q    Type
REMARK                         _______ _______ _______ _____ _____    ______ ____
ROOT
ATOM     10  C   UNL     1      11.745  25.135   9.437  0.00  0.00    +0.038 A 
ATOM     11  C   UNL     1      12.792  25.142   8.480  0.00  0.00    +0.047 A 
ATOM     12  C   UNL     1      13.811  24.104   8.472  0.00  0.00    +0.035 A 
ATOM     32  C   UNL     1      13.732  23.072   9.453  0.00  0.00    +0.024 A 
ATOM     33  C   UNL     1      12.675  23.051  10.434  0.00  0.00    +0.007 A 
ATOM     34  C   UNL     1      11.669  24.074  10.448  0.00  0.00    -0.029 A 
ATOM     35  C   UNL     1      10.563  24.004  11.527  0.00  0.00    +0.045 C 
ENDROOT
BRANCH  10   9
ATOM      4  C   UNL     1       7.628  27.027   7.852  0.00  0.00    +0.077 A 
ATOM      5  C   UNL     1       7.365  25.896   7.009  0.00  0.00    +0.048 A 
ATOM      6  C   UNL     1       8.317  24.852   7.007  0.00  0.00    +0.116 A 
ATOM      7  N   UNL     1       9.445  24.943   7.794  0.00  0.00    -0.223 NA
ATOM      8  C   UNL     1       9.670  26.048   8.593  0.00  0.00    +0.220 A 
ATOM      9  N   UNL     1      10.793  26.157   9.398  0.00  0.00    -0.283 N 
ATOM     36  H   UNL     1      10.926  26.992   9.968  0.00  0.00    +0.155 HD
ATOM     37  N   UNL     1       8.776  27.059   8.612  0.00  0.00    -0.214 NA
BRANCH   4   3
ATOM      1  C   UNL     1       6.114  30.492   8.851  0.00  0.00    +0.020 A 
ATOM      2  C   UNL     1       7.030  29.378   8.776  0.00  0.00    +0.013 A 
ATOM      3  C   UNL     1       6.715  28.208   7.965  0.00  0.00    +0.019 A 
ATOM     38  C   UNL     1       5.456  28.198   7.237  0.00  0.00    +0.120 A 
ATOM     39  N   UNL     1       4.592  29.285   7.330  0.00  0.00    -0.263 NA
ATOM     40  C   UNL     1       4.884  30.415   8.108  0.00  0.00    +0.111 A 
ENDBRANCH   4   3
ENDBRANCH  10   9
BRANCH  12  13
ATOM     13  N   UNL     1      14.901  24.062   7.530  0.00  0.00    -0.281 N 
ATOM     14  C   UNL     1      14.954  23.395   6.317  0.00  0.00    +0.248 C 
ATOM     30  O   UNL     1      14.145  22.554   5.955  0.00  0.00    -0.270 OA
ATOM     31  H   UNL     1      15.736  24.589   7.788  0.00  0.00    +0.155 HD
BRANCH  14  15
ATOM     15  C   UNL     1      16.076  23.696   5.376  0.00  0.00    +0.037 A 
ATOM     16  C   UNL     1      15.824  23.988   3.962  0.00  0.00    +0.013 A 
ATOM     17  C   UNL     1      16.925  24.258   3.072  0.00  0.00    +0.005 A 
ATOM     18  C   UNL     1      18.289  24.239   3.594  0.00  0.00    -0.033 A 
ATOM     28  C   UNL     1      18.510  23.951   5.002  0.00  0.00    +0.005 A 
ATOM     29  C   UNL     1      17.433  23.685   5.877  0.00  0.00    +0.013 A 
BRANCH  18  19
ATOM     19  C   UNL     1      19.526  24.494   2.713  0.00  0.00    +0.119 C 
BRANCH  19  20
ATOM     20  N   UNL     1      19.804  25.907   2.318  0.00  0.00    -0.302 NA
ATOM     21  C   UNL     1      21.302  26.223   2.330  0.00  0.00    +0.066 C 
ATOM     22  C   UNL     1      21.576  27.699   1.893  0.00  0.00    -0.064 C 
ATOM     23  N   UNL     1      20.815  28.651   2.816  0.00  0.00    +0.379 N 
ATOM     24  C   UNL     1      21.116  30.041   2.444  0.00  0.00    -0.096 C 
ATOM     25  H   UNL     1      21.190  28.489   3.853  0.00  0.00    -0.082 HD
ATOM     26  C   UNL     1      19.324  28.343   2.812  0.00  0.00    -0.064 C 
ATOM     27  C   UNL     1      19.065  26.865   3.219  0.00  0.00    +0.066 C 
ENDBRANCH  19  20
ENDBRANCH  18  19
ENDBRANCH  14  15
ENDBRANCH  12  13
TORSDOF 6
ENDMDL
MODEL 2
REMARK VINA RESULT:      -8.5      6.397     12.463
REMARK  Name = C:\Users\Docking\Desktop\test protocol\1iep_ligandH.pdb
REMARK  8 active torsions:
REMARK  status: ('A' for Active; 'I' for Inactive)
REMARK    1  A    between atoms: _5  and  _11
REMARK    2  A    between atoms: _19  and  _21
REMARK    3  A    between atoms: _22  and  _66
REMARK    4  A    between atoms: _27  and  _30
REMARK    5  A    between atoms: _32  and  _33
REMARK    6  A    between atoms: _38  and  _43
REMARK    7  A    between atoms: _43  and  _46
REMARK    8  A    between atoms: _53  and  _55
REMARK                            x       y       z     vdW  Elec       q    Type
REMARK                         _______ _______ _______ _____ _____    ______ ____
ROOT
ATOM     10  C   UNL     1      11.182  23.545  10.769  0.00  0.00    +0.038 A 
ATOM     11  C   UNL     1      10.008  24.296  10.503  0.00  0.00    +0.047 A 
ATOM     12  C   UNL     1      10.052  25.492   9.675  0.00  0.00    +0.035 A 
ATOM     32  C   UNL     1      11.307  25.892   9.132  0.00  0.00    +0.024 A 
ATOM     33  C   UNL     1      12.510  25.141   9.393  0.00  0.00    +0.007 A 
ATOM     34  C   UNL     1      12.474  23.962  10.211  0.00  0.00    -0.029 A 
ATOM     35  C   UNL     1      13.795  23.200  10.462  0.00  0.00    +0.045 C 
ENDROOT
BRANCH  10   9
ATOM      4  C   UNL     1       9.648  19.073  11.594  0.00  0.00    +0.077 A 
ATOM      5  C   UNL     1       8.965  19.011  10.334  0.00  0.00    +0.048 A 
ATOM      6  C   UNL     1       9.026  20.155   9.506  0.00  0.00    +0.116 A 
ATOM      7  N   UNL     1       9.723  21.270   9.917  0.00  0.00    -0.223 NA
ATOM      8  C   UNL     1      10.369  21.297  11.139  0.00  0.00    +0.220 A 
ATOM      9  N   UNL     1      11.082  22.405  11.570  0.00  0.00    -0.283 N 
ATOM     36  H   UNL     1      11.539  22.388  12.481  0.00  0.00    +0.155 HD
ATOM     37  N   UNL     1      10.324  20.218  11.949  0.00  0.00    -0.214 NA
BRANCH   4   3
ATOM      1  C   UNL     1      10.245  16.953  14.827  0.00  0.00    +0.020 A 
ATOM      2  C   UNL     1      10.241  18.074  13.916  0.00  0.00    +0.013 A 
ATOM      3  C   UNL     1       9.678  17.944  12.578  0.00  0.00    +0.019 A 
ATOM     38  C   UNL     1       9.121  16.657  12.191  0.00  0.00    +0.120 A 
ATOM     39  N   UNL     1       9.140  15.595  13.089  0.00  0.00    -0.263 NA
ATOM     40  C   UNL     1       9.681  15.707  14.379  0.00  0.00    +0.111 A 
ENDBRANCH   4   3
ENDBRANCH  10   9
BRANCH  12  13
ATOM     13  N   UNL     1       8.895  26.300   9.378  0.00  0.00    -0.281 N 
ATOM     14  C   UNL     1       8.698  27.642   9.658  0.00  0.00    +0.248 C 
ATOM     30  O   UNL     1       9.406  28.303  10.402  0.00  0.00    -0.270 OA
ATOM     31  H   UNL     1       8.128  25.824   8.902  0.00  0.00    +0.155 HD
BRANCH  14  15
ATOM     15  C   UNL     1       7.539  28.348   9.032  0.00  0.00    +0.037 A 
ATOM     16  C   UNL     1       7.184  29.716   9.418  0.00  0.00    +0.013 A 
ATOM     17  C   UNL     1       6.051  30.368   8.811  0.00  0.00    +0.005 A 
ATOM     18  C   UNL     1       5.264  29.651   7.809  0.00  0.00    -0.033 A 
ATOM     28  C   UNL     1       5.642  28.297   7.442  0.00  0.00    +0.005 A 
ATOM     29  C   UNL     1       6.751  27.654   8.035  0.00  0.00    +0.013 A 
BRANCH  18  19
ATOM     19  C   UNL     1       4.026  30.261   7.125  0.00  0.00    +0.119 C 
BRANCH  19  20
ATOM     20  N   UNL     1       3.031  29.313   6.542  0.00  0.00    -0.302 NA
ATOM     21  C   UNL     1       2.377  29.873   5.276  0.00  0.00    +0.066 C 
ATOM     22  C   UNL     1       1.355  28.859   4.666  0.00  0.00    -0.064 C 
ATOM     23  N   UNL     1       0.296  28.514   5.715  0.00  0.00    +0.379 N 
ATOM     24  C   UNL     1      -0.699  27.605   5.127  0.00  0.00    -0.096 C 
ATOM     25  H   UNL     1      -0.228  29.459   5.989  0.00  0.00    -0.082 HD
ATOM     26  C   UNL     1       0.938  27.959   6.979  0.00  0.00    -0.064 C 
ATOM     27  C   UNL     1       1.973  28.962   7.560  0.00  0.00    +0.066 C 
ENDBRANCH  19  20
ENDBRANCH  18  19
ENDBRANCH  14  15
ENDBRANCH  12  13
TORSDOF 6
ENDMDL
MODEL 3
REMARK VINA RESULT:      -8.4      6.430     12.428
REMARK  Name = C:\Users\Docking\Desktop\test protocol\1iep_ligandH.pdb
REMARK  8 active torsions:
REMARK  status: ('A' for Active; 'I' for Inactive)
REMARK    1  A    between atoms: _5  and  _11
REMARK    2  A    between atoms: _19  and  _21
REMARK    3  A    between atoms: _22  and  _66
REMARK    4  A    between atoms: _27  and  _30
REMARK    5  A    between atoms: _32  and  _33
REMARK    6  A    between atoms: _38  and  _43
REMARK    7  A    between atoms: _43  and  _46
REMARK    8  A    between atoms: _53  and  _55
REMARK                            x       y       z     vdW  Elec       q    Type
REMARK                         _______ _______ _______ _____ _____    ______ ____
ROOT
ATOM     10  C   UNL     1      11.097  23.770  10.702  0.00  0.00    +0.038 A 
ATOM     11  C   UNL     1       9.899  24.469  10.408  0.00  0.00    +0.047 A 
ATOM     12  C   UNL     1       9.909  25.666   9.581  0.00  0.00    +0.035 A 
ATOM     32  C   UNL     1      11.158  26.122   9.068  0.00  0.00    +0.024 A 
ATOM     33  C   UNL     1      12.386  25.424   9.358  0.00  0.00    +0.007 A 
ATOM     34  C   UNL     1      12.382  24.244  10.175  0.00  0.00    -0.029 A 
ATOM     35  C   UNL     1      13.730  23.540  10.458  0.00  0.00    +0.045 C 
ENDROOT
BRANCH  10   9
ATOM      4  C   UNL     1       9.689  19.255  11.517  0.00  0.00    +0.077 A 
ATOM      5  C   UNL     1       9.009  19.176  10.256  0.00  0.00    +0.048 A 
ATOM      6  C   UNL     1       9.040  20.322   9.431  0.00  0.00    +0.116 A 
ATOM      7  N   UNL     1       9.704  21.456   9.845  0.00  0.00    -0.223 NA
ATOM      8  C   UNL     1      10.348  21.499  11.067  0.00  0.00    +0.220 A 
ATOM      9  N   UNL     1      11.029  22.627  11.501  0.00  0.00    -0.283 N 
ATOM     36  H   UNL     1      11.485  22.621  12.413  0.00  0.00    +0.155 HD
ATOM     37  N   UNL     1      10.332  20.418  11.875  0.00  0.00    -0.214 NA
BRANCH   4   3
ATOM      1  C   UNL     1      10.315  17.154  14.757  0.00  0.00    +0.020 A 
ATOM      2  C   UNL     1      10.279  18.277  13.848  0.00  0.00    +0.013 A 
ATOM      3  C   UNL     1       9.750  18.126  12.499  0.00  0.00    +0.019 A 
ATOM     38  C   UNL     1       9.259  16.816  12.098  0.00  0.00    +0.120 A 
ATOM     39  N   UNL     1       9.307  15.753  12.995  0.00  0.00    -0.263 NA
ATOM     40  C   UNL     1       9.816  15.886  14.295  0.00  0.00    +0.111 A 
ENDBRANCH   4   3
ENDBRANCH  10   9
BRANCH  12  13
ATOM     13  N   UNL     1       8.725  26.422   9.255  0.00  0.00    -0.281 N 
ATOM     14  C   UNL     1       8.467  27.756   9.523  0.00  0.00    +0.248 C 
ATOM     30  O   UNL     1       9.131  28.452  10.276  0.00  0.00    -0.270 OA
ATOM     31  H   UNL     1       7.988  25.911   8.769  0.00  0.00    +0.155 HD
BRANCH  14  15
ATOM     15  C   UNL     1       7.291  28.409   8.870  0.00  0.00    +0.037 A 
ATOM     16  C   UNL     1       6.842  29.744   9.272  0.00  0.00    +0.013 A 
ATOM     17  C   UNL     1       5.695  30.344   8.638  0.00  0.00    +0.005 A 
ATOM     18  C   UNL     1       4.989  29.608   7.592  0.00  0.00    -0.033 A 
ATOM     28  C   UNL     1       5.459  28.287   7.208  0.00  0.00    +0.005 A 
ATOM     29  C   UNL     1       6.582  27.696   7.829  0.00  0.00    +0.013 A 
BRANCH  18  19
ATOM     19  C   UNL     1       3.743  30.161   6.876  0.00  0.00    +0.119 C 
BRANCH  19  20
ATOM     20  N   UNL     1       3.235  31.494   7.319  0.00  0.00    -0.302 NA
ATOM     21  C   UNL     1       1.714  31.603   7.181  0.00  0.00    +0.066 C 
ATOM     22  C   UNL     1       1.197  32.995   7.670  0.00  0.00    -0.064 C 
ATOM     23  N   UNL     1       1.894  34.102   6.876  0.00  0.00    +0.379 N 
ATOM     24  C   UNL     1       1.367  35.410   7.293  0.00  0.00    -0.096 C 
ATOM     25  H   UNL     1       1.636  33.961   5.801  0.00  0.00    -0.082 HD
ATOM     26  C   UNL     1       3.407  33.999   7.006  0.00  0.00    -0.064 C 
ATOM     27  C   UNL     1       3.907  32.601   6.545  0.00  0.00    +0.066 C 
ENDBRANCH  19  20
ENDBRANCH  18  19
ENDBRANCH  14  15
ENDBRANCH  12  13
TORSDOF 6
ENDMDL
MODEL 4
REMARK VINA RESULT:      -8.3      2.041     12.014
REMARK  Name = C:\Users\Docking\Desktop\test protocol\1iep_ligandH.pdb
REMARK  8 active torsions:
REMARK  status: ('A' for Active; 'I' for Inactive)
REMARK    1  A    between atoms: _5  and  _11
REMARK    2  A    between atoms: _19  and  _21
REMARK    3  A    between atoms: _22  and  _66
REMARK    4  A    between atoms: _27  and  _30
REMARK    5  A    between atoms: _32  and  _33
REMARK    6  A    between atoms: _38  and  _43
REMARK    7  A    between atoms: _43  and  _46
REMARK    8  A    between atoms: _53  and  _55
REMARK                            x       y       z     vdW  Elec       q    Type
REMARK                         _______ _______ _______ _____ _____    ______ ____
ROOT
ATOM     10  C   UNL     1      20.066  25.889   4.235  0.00  0.00    +0.038 A 
ATOM     11  C   UNL     1      18.756  25.728   4.752  0.00  0.00    +0.047 A 
ATOM     12  C   UNL     1      18.127  24.418   4.812  0.00  0.00    +0.035 A 
ATOM     32  C   UNL     1      18.863  23.292   4.340  0.00  0.00    +0.024 A 
ATOM     33  C   UNL     1      20.196  23.438   3.811  0.00  0.00    +0.007 A 
ATOM     34  C   UNL     1      20.821  24.729   3.746  0.00  0.00    -0.029 A 
ATOM     35  C   UNL     1      22.250  24.827   3.163  0.00  0.00    +0.045 C 
ENDROOT
BRANCH  10   9
ATOM      4  C   UNL     1      21.133  29.980   1.963  0.00  0.00    +0.077 A 
ATOM      5  C   UNL     1      20.559  29.516   0.733  0.00  0.00    +0.048 A 
ATOM      6  C   UNL     1      20.006  28.216   0.725  0.00  0.00    +0.116 A 
ATOM      7  N   UNL     1      20.031  27.446   1.868  0.00  0.00    -0.223 NA
ATOM      8  C   UNL     1      20.594  27.924   3.037  0.00  0.00    +0.220 A 
ATOM      9  N   UNL     1      20.622  27.170   4.201  0.00  0.00    -0.283 N 
ATOM     36  H   UNL     1      21.053  27.556   5.041  0.00  0.00    +0.155 HD
ATOM     37  N   UNL     1      21.129  29.162   3.070  0.00  0.00    -0.214 NA
BRANCH   4   3
ATOM      1  C   UNL     1      23.213  33.236   1.349  0.00  0.00    +0.020 A 
ATOM      2  C   UNL     1      22.640  31.926   1.138  0.00  0.00    +0.013 A 
ATOM      3  C   UNL     1      21.754  31.333   2.131  0.00  0.00    +0.019 A 
ATOM     38  C   UNL     1      21.463  32.097   3.335  0.00  0.00    +0.120 A 
ATOM     39  N   UNL     1      22.030  33.355   3.511  0.00  0.00    -0.263 NA
ATOM     40  C   UNL     1      22.886  33.936   2.563  0.00  0.00    +0.111 A 
ENDBRANCH   4   3
ENDBRANCH  10   9
BRANCH  12  13
ATOM     13  N   UNL     1      16.795  24.194   5.319  0.00  0.00    -0.281 N 
ATOM     14  C   UNL     1      16.425  23.525   6.474  0.00  0.00    +0.248 C 
ATOM     30  O   UNL     1      17.177  22.829   7.141  0.00  0.00    -0.270 OA
ATOM     31  H   UNL     1      16.033  24.574   4.758  0.00  0.00    +0.155 HD
BRANCH  14  15
ATOM     15  C   UNL     1      15.012  23.633   6.950  0.00  0.00    +0.037 A 
ATOM     16  C   UNL     1      13.888  23.581   6.012  0.00  0.00    +0.013 A 
ATOM     17  C   UNL     1      12.536  23.705   6.495  0.00  0.00    +0.005 A 
ATOM     18  C   UNL     1      12.301  23.880   7.926  0.00  0.00    -0.033 A 
ATOM     28  C   UNL     1      13.434  23.923   8.836  0.00  0.00    +0.005 A 
ATOM     29  C   UNL     1      14.761  23.803   8.365  0.00  0.00    +0.013 A 
BRANCH  18  19
ATOM     19  C   UNL     1      10.892  24.042   8.528  0.00  0.00    +0.119 C 
BRANCH  19  20
ATOM     20  N   UNL     1      10.444  25.428   8.857  0.00  0.00    -0.302 NA
ATOM     21  C   UNL     1       9.397  25.444   9.974  0.00  0.00    +0.066 C 
ATOM     22  C   UNL     1       8.956  26.903  10.320  0.00  0.00    -0.064 C 
ATOM     23  N   UNL     1       8.414  27.582   9.061  0.00  0.00    +0.379 N 
ATOM     24  C   UNL     1       7.945  28.934   9.395  0.00  0.00    -0.096 C 
ATOM     25  H   UNL     1       7.533  26.994   8.712  0.00  0.00    -0.082 HD
ATOM     26  C   UNL     1       9.449  27.568   7.944  0.00  0.00    -0.064 C 
ATOM     27  C   UNL     1       9.902  26.116   7.628  0.00  0.00    +0.066 C 
ENDBRANCH  19  20
ENDBRANCH  18  19
ENDBRANCH  14  15
ENDBRANCH  12  13
TORSDOF 6
ENDMDL
MODEL 5
REMARK VINA RESULT:      -8.3      6.369      8.313
REMARK  Name = C:\Users\Docking\Desktop\test protocol\1iep_ligandH.pdb
REMARK  8 active torsions:
REMARK  status: ('A' for Active; 'I' for Inactive)
REMARK    1  A    between atoms: _5  and  _11
REMARK    2  A    between atoms: _19  and  _21
REMARK    3  A    between atoms: _22  and  _66
REMARK    4  A    between atoms: _27  and  _30
REMARK    5  A    between atoms: _32  and  _33
REMARK    6  A    between atoms: _38  and  _43
REMARK    7  A    between atoms: _43  and  _46
REMARK    8  A    between atoms: _53  and  _55
REMARK                            x       y       z     vdW  Elec       q    Type
REMARK                         _______ _______ _______ _____ _____    ______ ____
ROOT
ATOM     10  C   UNL     1      14.625  22.207   7.757  0.00  0.00    +0.038 A 
ATOM     11  C   UNL     1      15.806  22.210   8.543  0.00  0.00    +0.047 A 
ATOM     12  C   UNL     1      16.741  21.096   8.501  0.00  0.00    +0.035 A 
ATOM     32  C   UNL     1      16.443  19.996   7.645  0.00  0.00    +0.024 A 
ATOM     33  C   UNL     1      15.246  19.976   6.840  0.00  0.00    +0.007 A 
ATOM     34  C   UNL     1      14.319  21.071   6.880  0.00  0.00    -0.029 A 
ATOM     35  C   UNL     1      13.050  20.993   6.000  0.00  0.00    +0.045 C 
ENDROOT
BRANCH  10   9
ATOM      4  C   UNL     1      10.977  24.585   9.775  0.00  0.00    +0.077 A 
ATOM      5  C   UNL     1      10.753  23.544  10.737  0.00  0.00    +0.048 A 
ATOM      6  C   UNL     1      11.593  22.410  10.673  0.00  0.00    +0.116 A 
ATOM      7  N   UNL     1      12.582  22.334   9.716  0.00  0.00    -0.223 NA
ATOM      8  C   UNL     1      12.770  23.355   8.803  0.00  0.00    +0.220 A 
ATOM      9  N   UNL     1      13.763  23.303   7.836  0.00  0.00    -0.283 N 
ATOM     36  H   UNL     1      13.865  24.074   7.176  0.00  0.00    +0.155 HD
ATOM     37  N   UNL     1      11.980  24.448   8.841  0.00  0.00    -0.214 NA
BRANCH   4   3
ATOM      1  C   UNL     1       8.472  27.460  10.647  0.00  0.00    +0.020 A 
ATOM      2  C   UNL     1       9.223  26.230  10.752  0.00  0.00    +0.013 A 
ATOM      3  C   UNL     1      10.174  25.847   9.716  0.00  0.00    +0.019 A 
ATOM     38  C   UNL     1      10.343  26.738   8.579  0.00  0.00    +0.120 A 
ATOM     39  N   UNL     1       9.606  27.916   8.504  0.00  0.00    -0.263 NA
ATOM     40  C   UNL     1       8.686  28.294   9.494  0.00  0.00    +0.111 A 
ENDBRANCH   4   3
ENDBRANCH  10   9
BRANCH  12  13
ATOM     13  N   UNL     1      17.951  21.040   9.282  0.00  0.00    -0.281 N 
ATOM     14  C   UNL     1      19.238  21.365   8.883  0.00  0.00    +0.248 C 
ATOM     30  O   UNL     1      19.576  21.551   7.724  0.00  0.00    -0.270 OA
ATOM     31  H   UNL     1      17.848  20.722  10.246  0.00  0.00    +0.155 HD
BRANCH  14  15
ATOM     15  C   UNL     1      20.306  21.486   9.922  0.00  0.00    +0.037 A 
ATOM     16  C   UNL     1      20.464  20.476  10.971  0.00  0.00    +0.013 A 
ATOM     17  C   UNL     1      21.492  20.627  11.970  0.00  0.00    +0.005 A 
ATOM     18  C   UNL     1      22.372  21.792  11.923  0.00  0.00    -0.033 A 
ATOM     28  C   UNL     1      22.196  22.776  10.868  0.00  0.00    +0.005 A 
ATOM     29  C   UNL     1      21.189  22.633   9.887  0.00  0.00    +0.013 A 
BRANCH  18  19
ATOM     19  C   UNL     1      23.482  22.045  12.961  0.00  0.00    +0.119 C 
BRANCH  19  20
ATOM     20  N   UNL     1      23.061  22.527  14.309  0.00  0.00    -0.302 NA
ATOM     21  C   UNL     1      22.882  24.048  14.345  0.00  0.00    +0.066 C 
ATOM     22  C   UNL     1      22.419  24.533  15.758  0.00  0.00    -0.064 C 
ATOM     23  N   UNL     1      23.436  24.083  16.807  0.00  0.00    +0.379 N 
ATOM     24  C   UNL     1      23.034  24.587  18.129  0.00  0.00    -0.096 C 
ATOM     25  H   UNL     1      24.416  24.549  16.551  0.00  0.00    -0.082 HD
ATOM     26  C   UNL     1      23.622  22.572  16.777  0.00  0.00    -0.064 C 
ATOM     27  C   UNL     1      24.053  22.097  15.361  0.00  0.00    +0.066 C 
ENDBRANCH  19  20
ENDBRANCH  18  19
ENDBRANCH  14  15
ENDBRANCH  12  13
TORSDOF 6
ENDMDL
