MODEL 1
REMARK VINA RESULT:      -8.7      0.000      0.000
REMARK  Name = C:\Users\Docking\Desktop\test protocol\1iep_ligandH.pdb
REMARK  8 active torsions:
REMARK  status: ('A' for Active; 'I' for Inactive)
REMARK    1  A    between atoms: _5  and  _11
REMARK    2  A    between atoms: _19  and  _21
REMARK    3  A    between atoms: _22  and  _66
REMARK    4  A    between atoms: _27  and  _30
REMARK    5  A    between atoms: _32  and  _33
REMARK    6  A    between atoms: _38  and  _43
REMARK    7  A    between atoms: _43  and  _46
REMARK    8  A    between atoms: _53  and  _55
REMARK                            x       y       z     vdW  Elec       q    Type
REMARK                         _______ _______ _______ _____ _____    ______ ____
ROOT
ATOM     10  C   UNL     1       9.985 -17.646  30.873  0.00  0.00    +0.038 A 
ATOM     11  C   UNL     1      10.785 -16.747  30.122  0.00  0.00    +0.047 A 
ATOM     12  C   UNL     1      12.195 -17.014  29.883  0.00  0.00    +0.035 A 
ATOM     32  C   UNL     1      12.757 -18.209  30.420  0.00  0.00    +0.024 A 
ATOM     33  C   UNL     1      11.958 -19.134  31.186  0.00  0.00    +0.007 A 
ATOM     34  C   UNL     1      10.568 -18.874  31.427  0.00  0.00    -0.029 A 
ATOM     35  C   UNL     1       9.761 -19.897  32.261  0.00  0.00    +0.045 C 
ENDROOT
BRANCH  10   9
ATOM      4  C   UNL     1       6.451 -15.464  33.277  0.00  0.00    +0.077 A 
ATOM      5  C   UNL     1       7.364 -14.908  34.234  0.00  0.00    +0.048 A 
ATOM      6  C   UNL     1       8.735 -15.214  34.075  0.00  0.00    +0.116 A 
ATOM      7  N   UNL     1       9.149 -16.016  33.034  0.00  0.00    -0.223 NA
ATOM      8  C   UNL     1       8.241 -16.538  32.131  0.00  0.00    +0.220 A 
ATOM      9  N   UNL     1       8.637 -17.340  31.072  0.00  0.00    -0.283 N 
ATOM     36  H   UNL     1       7.935 -17.711  30.431  0.00  0.00    +0.155 HD
ATOM     37  N   UNL     1       6.927 -16.262  32.261  0.00  0.00    -0.214 NA
BRANCH   4   3
ATOM      1  C   UNL     1       2.763 -14.732  32.198  0.00  0.00    +0.020 A 
ATOM      2  C   UNL     1       4.188 -14.951  32.112  0.00  0.00    +0.013 A 
ATOM      3  C   UNL     1       4.972 -15.229  33.309  0.00  0.00    +0.019 A 
ATOM     38  C   UNL     1       4.278 -15.281  34.587  0.00  0.00    +0.120 A 
ATOM     39  N   UNL     1       2.904 -15.065  34.638  0.00  0.00    -0.263 NA
ATOM     40  C   UNL     1       2.140 -14.794  33.494  0.00  0.00    +0.111 A 
ENDBRANCH   4   3
ENDBRANCH  10   9
BRANCH  12  13
ATOM     13  N   UNL     1      13.058 -16.134  29.136  0.00  0.00    -0.281 N 
ATOM     14  C   UNL     1      13.078 -15.920  27.767  0.00  0.00    +0.248 C 
ATOM     30  O   UNL     1      12.495 -16.616  26.950  0.00  0.00    -0.270 OA
ATOM     31  H   UNL     1      13.738 -15.605  29.682  0.00  0.00    +0.155 HD
BRANCH  14  15
ATOM     15  C   UNL     1      13.872 -14.774  27.227  0.00  0.00    +0.037 A 
ATOM     16  C   UNL     1      13.305 -13.426  27.150  0.00  0.00    +0.013 A 
ATOM     17  C   UNL     1      14.086 -12.342  26.609  0.00  0.00    +0.005 A 
ATOM     18  C   UNL     1      15.445 -12.603  26.142  0.00  0.00    -0.033 A 
ATOM     28  C   UNL     1      15.985 -13.950  26.235  0.00  0.00    +0.005 A 
ATOM     29  C   UNL     1      15.222 -15.014  26.764  0.00  0.00    +0.013 A 
BRANCH  18  19
ATOM     19  C   UNL     1      16.344 -11.512  25.530  0.00  0.00    +0.119 C 
BRANCH  19  20
ATOM     20  N   UNL     1      15.742 -10.158  25.340  0.00  0.00    -0.302 NA
ATOM     21  C   UNL     1      16.173  -9.519  24.017  0.00  0.00    +0.066 C 
ATOM     22  C   UNL     1      15.516  -8.113  23.824  0.00  0.00    -0.064 C 
ATOM     23  N   UNL     1      15.886  -7.214  25.005  0.00  0.00    +0.379 N 
ATOM     24  C   UNL     1      15.318  -5.874  24.798  0.00  0.00    -0.096 C 
ATOM     25  H   UNL     1      16.996  -7.114  25.018  0.00  0.00    -0.082 HD
ATOM     26  C   UNL     1      15.464  -7.844  26.325  0.00  0.00    -0.064 C 
ATOM     27  C   UNL     1      16.098  -9.253  26.493  0.00  0.00    +0.066 C 
ENDBRANCH  19  20
ENDBRANCH  18  19
ENDBRANCH  14  15
ENDBRANCH  12  13
TORSDOF 6
ENDMDL
MODEL 2
REMARK VINA RESULT:      -8.6      5.503     14.945
REMARK  Name = C:\Users\Docking\Desktop\test protocol\1iep_ligandH.pdb
REMARK  8 active torsions:
REMARK  status: ('A' for Active; 'I' for Inactive)
REMARK    1  A    between atoms: _5  and  _11
REMARK    2  A    between atoms: _19  and  _21
REMARK    3  A    between atoms: _22  and  _66
REMARK    4  A    between atoms: _27  and  _30
REMARK    5  A    between atoms: _32  and  _33
REMARK    6  A    between atoms: _38  and  _43
REMARK    7  A    between atoms: _43  and  _46
REMARK    8  A    between atoms: _53  and  _55
REMARK                            x       y       z     vdW  Elec       q    Type
REMARK                         _______ _______ _______ _____ _____    ______ ____
ROOT
ATOM     10  C   UNL     1       5.473 -14.291  32.554  0.00  0.00    +0.038 A 
ATOM     11  C   UNL     1       4.219 -14.754  32.080  0.00  0.00    +0.047 A 
ATOM     12  C   UNL     1       3.010 -14.598  32.874  0.00  0.00    +0.035 A 
ATOM     32  C   UNL     1       3.114 -13.964  34.146  0.00  0.00    +0.024 A 
ATOM     33  C   UNL     1       4.381 -13.489  34.644  0.00  0.00    +0.007 A 
ATOM     34  C   UNL     1       5.577 -13.642  33.866  0.00  0.00    -0.029 A 
ATOM     35  C   UNL     1       6.909 -13.119  34.453  0.00  0.00    +0.045 C 
ENDROOT
BRANCH  10   9
ATOM      4  C   UNL     1       9.378 -16.740  31.216  0.00  0.00    +0.077 A 
ATOM      5  C   UNL     1       9.167 -17.741  32.222  0.00  0.00    +0.048 A 
ATOM      6  C   UNL     1       8.046 -17.585  33.068  0.00  0.00    +0.116 A 
ATOM      7  N   UNL     1       7.205 -16.505  32.910  0.00  0.00    -0.223 NA
ATOM      8  C   UNL     1       7.438 -15.556  31.931  0.00  0.00    +0.220 A 
ATOM      9  N   UNL     1       6.601 -14.466  31.750  0.00  0.00    -0.283 N 
ATOM     36  H   UNL     1       6.811 -13.785  31.021  0.00  0.00    +0.155 HD
ATOM     37  N   UNL     1       8.502 -15.682  31.111  0.00  0.00    -0.214 NA
BRANCH   4   3
ATOM      1  C   UNL     1      11.660 -17.620  28.163  0.00  0.00    +0.020 A 
ATOM      2  C   UNL     1      10.536 -17.633  29.071  0.00  0.00    +0.013 A 
ATOM      3  C   UNL     1      10.516 -16.767  30.244  0.00  0.00    +0.019 A 
ATOM     38  C   UNL     1      11.657 -15.893  30.470  0.00  0.00    +0.120 A 
ATOM     39  N   UNL     1      12.726 -15.904  29.579  0.00  0.00    -0.263 NA
ATOM     40  C   UNL     1      12.757 -16.734  28.448  0.00  0.00    +0.111 A 
ENDBRANCH   4   3
ENDBRANCH  10   9
BRANCH  12  13
ATOM     13  N   UNL     1       1.710 -15.055  32.448  0.00  0.00    -0.281 N 
ATOM     14  C   UNL     1       0.738 -14.342  31.767  0.00  0.00    +0.248 C 
ATOM     30  O   UNL     1       0.755 -13.131  31.606  0.00  0.00    -0.270 OA
ATOM     31  H   UNL     1       1.479 -16.022  32.678  0.00  0.00    +0.155 HD
BRANCH  14  15
ATOM     15  C   UNL     1      -0.429 -15.079  31.193  0.00  0.00    +0.037 A 
ATOM     16  C   UNL     1      -1.265 -14.483  30.148  0.00  0.00    +0.013 A 
ATOM     17  C   UNL     1      -2.395 -15.209  29.623  0.00  0.00    +0.005 A 
ATOM     18  C   UNL     1      -2.694 -16.541  30.143  0.00  0.00    -0.033 A 
ATOM     28  C   UNL     1      -1.845 -17.111  31.176  0.00  0.00    +0.005 A 
ATOM     29  C   UNL     1      -0.737 -16.402  31.693  0.00  0.00    +0.013 A 
BRANCH  18  19
ATOM     19  C   UNL     1      -3.891 -17.379  29.657  0.00  0.00    +0.119 C 
BRANCH  19  20
ATOM     20  N   UNL     1      -4.950 -17.703  30.659  0.00  0.00    -0.302 NA
ATOM     21  C   UNL     1      -5.977 -18.696  30.108  0.00  0.00    +0.066 C 
ATOM     22  C   UNL     1      -7.065 -19.042  31.177  0.00  0.00    -0.064 C 
ATOM     23  N   UNL     1      -7.750 -17.755  31.638  0.00  0.00    +0.379 N 
ATOM     24  C   UNL     1      -8.812 -18.082  32.600  0.00  0.00    -0.096 C 
ATOM     25  H   UNL     1      -8.232 -17.290  30.747  0.00  0.00    -0.082 HD
ATOM     26  C   UNL     1      -6.735 -16.760  32.185  0.00  0.00    -0.064 C 
ATOM     27  C   UNL     1      -5.642 -16.446  31.125  0.00  0.00    +0.066 C 
ENDBRANCH  19  20
ENDBRANCH  18  19
ENDBRANCH  14  15
ENDBRANCH  12  13
TORSDOF 6
ENDMDL
MODEL 3
REMARK VINA RESULT:      -8.4      5.515     14.215
REMARK  Name = C:\Users\Docking\Desktop\test protocol\1iep_ligandH.pdb
REMARK  8 active torsions:
REMARK  status: ('A' for Active; 'I' for Inactive)
REMARK    1  A    between atoms: _5  and  _11
REMARK    2  A    between atoms: _19  and  _21
REMARK    3  A    between atoms: _22  and  _66
REMARK    4  A    between atoms: _27  and  _30
REMARK    5  A    between atoms: _32  and  _33
REMARK    6  A    between atoms: _38  and  _43
REMARK    7  A    between atoms: _43  and  _46
REMARK    8  A    between atoms: _53  and  _55
REMARK                            x       y       z     vdW  Elec       q    Type
REMARK                         _______ _______ _______ _____ _____    ______ ____
ROOT
ATOM     10  C   UNL     1       6.665 -14.715  32.802  0.00  0.00    +0.038 A 
ATOM     11  C   UNL     1       5.312 -14.845  32.396  0.00  0.00    +0.047 A 
ATOM     12  C   UNL     1       4.220 -14.586  33.321  0.00  0.00    +0.035 A 
ATOM     32  C   UNL     1       4.542 -14.195  34.654  0.00  0.00    +0.024 A 
ATOM     33  C   UNL     1       5.911 -14.060  35.084  0.00  0.00    +0.007 A 
ATOM     34  C   UNL     1       6.993 -14.316  34.176  0.00  0.00    -0.029 A 
ATOM     35  C   UNL     1       8.442 -14.161  34.694  0.00  0.00    +0.045 C 
ENDROOT
BRANCH  10   9
ATOM      4  C   UNL     1       9.968 -17.587  30.833  0.00  0.00    +0.077 A 
ATOM      5  C   UNL     1       9.679 -18.649  31.753  0.00  0.00    +0.048 A 
ATOM      6  C   UNL     1       8.678 -18.414  32.722  0.00  0.00    +0.116 A 
ATOM      7  N   UNL     1       8.021 -17.202  32.759  0.00  0.00    -0.223 NA
ATOM      8  C   UNL     1       8.326 -16.198  31.858  0.00  0.00    +0.220 A 
ATOM      9  N   UNL     1       7.673 -14.975  31.872  0.00  0.00    -0.283 N 
ATOM     36  H   UNL     1       7.932 -14.258  31.195  0.00  0.00    +0.155 HD
ATOM     37  N   UNL     1       9.279 -16.398  30.924  0.00  0.00    -0.214 NA
BRANCH   4   3
ATOM      1  C   UNL     1      13.352 -18.072  28.932  0.00  0.00    +0.020 A 
ATOM      2  C   UNL     1      12.398 -17.988  30.014  0.00  0.00    +0.013 A 
ATOM      3  C   UNL     1      10.997 -17.685  29.750  0.00  0.00    +0.019 A 
ATOM     38  C   UNL     1      10.591 -17.469  28.370  0.00  0.00    +0.120 A 
ATOM     39  N   UNL     1      11.532 -17.555  27.348  0.00  0.00    -0.263 NA
ATOM     40  C   UNL     1      12.883 -17.845  27.590  0.00  0.00    +0.111 A 
ENDBRANCH   4   3
ENDBRANCH  10   9
BRANCH  12  13
ATOM     13  N   UNL     1       2.828 -14.709  32.968  0.00  0.00    -0.281 N 
ATOM     14  C   UNL     1       2.195 -14.249  31.825  0.00  0.00    +0.248 C 
ATOM     30  O   UNL     1       2.693 -13.469  31.026  0.00  0.00    -0.270 OA
ATOM     31  H   UNL     1       2.236 -15.195  33.642  0.00  0.00    +0.155 HD
BRANCH  14  15
ATOM     15  C   UNL     1       0.803 -14.709  31.534  0.00  0.00    +0.037 A 
ATOM     16  C   UNL     1       0.248 -15.902  32.178  0.00  0.00    +0.013 A 
ATOM     17  C   UNL     1      -1.092 -16.334  31.867  0.00  0.00    +0.005 A 
ATOM     18  C   UNL     1      -1.886 -15.571  30.907  0.00  0.00    -0.033 A 
ATOM     28  C   UNL     1      -1.312 -14.389  30.287  0.00  0.00    +0.005 A 
ATOM     29  C   UNL     1       0.001 -13.962  30.588  0.00  0.00    +0.013 A 
BRANCH  18  19
ATOM     19  C   UNL     1      -3.316 -15.971  30.499  0.00  0.00    +0.119 C 
BRANCH  19  20
ATOM     20  N   UNL     1      -4.424 -15.580  31.420  0.00  0.00    -0.302 NA
ATOM     21  C   UNL     1      -5.760 -16.208  31.011  0.00  0.00    +0.066 C 
ATOM     22  C   UNL     1      -6.904 -15.807  31.999  0.00  0.00    -0.064 C 
ATOM     23  N   UNL     1      -7.015 -14.282  32.053  0.00  0.00    +0.379 N 
ATOM     24  C   UNL     1      -8.128 -13.903  32.936  0.00  0.00    -0.096 C 
ATOM     25  H   UNL     1      -7.261 -13.924  31.026  0.00  0.00    -0.082 HD
ATOM     26  C   UNL     1      -5.691 -13.650  32.457  0.00  0.00    -0.064 C 
ATOM     27  C   UNL     1      -4.555 -14.079  31.486  0.00  0.00    +0.066 C 
ENDBRANCH  19  20
ENDBRANCH  18  19
ENDBRANCH  14  15
ENDBRANCH  12  13
TORSDOF 6
ENDMDL
MODEL 4
REMARK VINA RESULT:      -8.2     24.563     29.132
REMARK  Name = C:\Users\Docking\Desktop\test protocol\1iep_ligandH.pdb
REMARK  8 active torsions:
REMARK  status: ('A' for Active; 'I' for Inactive)
REMARK    1  A    between atoms: _5  and  _11
REMARK    2  A    between atoms: _19  and  _21
REMARK    3  A    between atoms: _22  and  _66
REMARK    4  A    between atoms: _27  and  _30
REMARK    5  A    between atoms: _32  and  _33
REMARK    6  A    between atoms: _38  and  _43
REMARK    7  A    between atoms: _43  and  _46
REMARK    8  A    between atoms: _53  and  _55
REMARK                            x       y       z     vdW  Elec       q    Type
REMARK                         _______ _______ _______ _____ _____    ______ ____
ROOT
ATOM     10  C   UNL     1     -14.158 -22.147  21.948  0.00  0.00    +0.038 A 
ATOM     11  C   UNL     1     -14.289 -21.156  20.941  0.00  0.00    +0.047 A 
ATOM     12  C   UNL     1     -15.539 -20.436  20.753  0.00  0.00    +0.035 A 
ATOM     32  C   UNL     1     -16.634 -20.748  21.610  0.00  0.00    +0.024 A 
ATOM     33  C   UNL     1     -16.518 -21.753  22.638  0.00  0.00    +0.007 A 
ATOM     34  C   UNL     1     -15.289 -22.468  22.826  0.00  0.00    -0.029 A 
ATOM     35  C   UNL     1     -15.223 -23.539  23.940  0.00  0.00    +0.045 C 
ENDROOT
BRANCH  10   9
ATOM      4  C   UNL     1     -11.062 -25.612  20.747  0.00  0.00    +0.077 A 
ATOM      5  C   UNL     1     -11.968 -26.170  19.785  0.00  0.00    +0.048 A 
ATOM      6  C   UNL     1     -13.224 -25.540  19.634  0.00  0.00    +0.116 A 
ATOM      7  N   UNL     1     -13.538 -24.434  20.394  0.00  0.00    -0.223 NA
ATOM      8  C   UNL     1     -12.642 -23.923  21.315  0.00  0.00    +0.220 A 
ATOM      9  N   UNL     1     -12.935 -22.807  22.084  0.00  0.00    -0.283 N 
ATOM     36  H   UNL     1     -12.249 -22.465  22.757  0.00  0.00    +0.155 HD
ATOM     37  N   UNL     1     -11.437 -24.508  21.478  0.00  0.00    -0.214 NA
BRANCH   4   3
ATOM      1  C   UNL     1      -7.386 -26.022  22.021  0.00  0.00    +0.020 A 
ATOM      2  C   UNL     1      -8.690 -25.444  21.787  0.00  0.00    +0.013 A 
ATOM      3  C   UNL     1      -9.697 -26.164  21.018  0.00  0.00    +0.019 A 
ATOM     38  C   UNL     1      -9.351 -27.478  20.496  0.00  0.00    +0.120 A 
ATOM     39  N   UNL     1      -8.087 -28.008  20.735  0.00  0.00    -0.263 NA
ATOM     40  C   UNL     1      -7.109 -27.324  21.473  0.00  0.00    +0.111 A 
ENDBRANCH   4   3
ENDBRANCH  10   9
BRANCH  12  13
ATOM     13  N   UNL     1     -15.734 -19.426  19.742  0.00  0.00    -0.281 N 
ATOM     14  C   UNL     1     -16.008 -19.610  18.397  0.00  0.00    +0.248 C 
ATOM     30  O   UNL     1     -15.915 -20.679  17.812  0.00  0.00    -0.270 OA
ATOM     31  H   UNL     1     -15.661 -18.459  20.057  0.00  0.00    +0.155 HD
BRANCH  14  15
ATOM     15  C   UNL     1     -16.432 -18.432  17.579  0.00  0.00    +0.037 A 
ATOM     16  C   UNL     1     -17.716 -18.420  16.874  0.00  0.00    +0.013 A 
ATOM     17  C   UNL     1     -18.094 -17.279  16.078  0.00  0.00    +0.005 A 
ATOM     18  C   UNL     1     -17.186 -16.139  15.986  0.00  0.00    -0.033 A 
ATOM     28  C   UNL     1     -15.920 -16.175  16.700  0.00  0.00    +0.005 A 
ATOM     29  C   UNL     1     -15.546 -17.292  17.480  0.00  0.00    +0.013 A 
BRANCH  18  19
ATOM     19  C   UNL     1     -17.497 -14.888  15.143  0.00  0.00    +0.119 C 
BRANCH  19  20
ATOM     20  N   UNL     1     -16.353 -14.234  14.441  0.00  0.00    -0.302 NA
ATOM     21  C   UNL     1     -16.303 -12.726  14.704  0.00  0.00    +0.066 C 
ATOM     22  C   UNL     1     -15.087 -12.062  13.980  0.00  0.00    -0.064 C 
ATOM     23  N   UNL     1     -15.172 -12.348  12.479  0.00  0.00    +0.379 N 
ATOM     24  C   UNL     1     -14.062 -11.676  11.789  0.00  0.00    -0.096 C 
ATOM     25  H   UNL     1     -16.123 -11.903  12.104  0.00  0.00    -0.082 HD
ATOM     26  C   UNL     1     -15.224 -13.845  12.209  0.00  0.00    -0.064 C 
ATOM     27  C   UNL     1     -16.419 -14.500  12.957  0.00  0.00    +0.066 C 
ENDBRANCH  19  20
ENDBRANCH  18  19
ENDBRANCH  14  15
ENDBRANCH  12  13
TORSDOF 6
ENDMDL
MODEL 5
REMARK VINA RESULT:      -8.2      5.516     13.723
REMARK  Name = C:\Users\Docking\Desktop\test protocol\1iep_ligandH.pdb
REMARK  8 active torsions:
REMARK  status: ('A' for Active; 'I' for Inactive)
REMARK    1  A    between atoms: _5  and  _11
REMARK    2  A    between atoms: _19  and  _21
REMARK    3  A    between atoms: _22  and  _66
REMARK    4  A    between atoms: _27  and  _30
REMARK    5  A    between atoms: _32  and  _33
REMARK    6  A    between atoms: _38  and  _43
REMARK    7  A    between atoms: _43  and  _46
REMARK    8  A    between atoms: _53  and  _55
REMARK                            x       y       z     vdW  Elec       q    Type
REMARK                         _______ _______ _______ _____ _____    ______ ____
ROOT
ATOM     10  C   UNL     1       7.240 -15.037  32.645  0.00  0.00    +0.038 A 
ATOM     11  C   UNL     1       5.907 -15.124  32.168  0.00  0.00    +0.047 A 
ATOM     12  C   UNL     1       4.775 -14.930  33.061  0.00  0.00    +0.035 A 
ATOM     32  C   UNL     1       5.037 -14.646  34.433  0.00  0.00    +0.024 A 
ATOM     33  C   UNL     1       6.385 -14.555  34.934  0.00  0.00    +0.007 A 
ATOM     34  C   UNL     1       7.506 -14.748  34.059  0.00  0.00    -0.029 A 
ATOM     35  C   UNL     1       8.930 -14.645  34.653  0.00  0.00    +0.045 C 
ENDROOT
BRANCH  10   9
ATOM      4  C   UNL     1      10.582 -17.787  30.571  0.00  0.00    +0.077 A 
ATOM      5  C   UNL     1      10.225 -18.925  31.369  0.00  0.00    +0.048 A 
ATOM      6  C   UNL     1       9.181 -18.759  32.306  0.00  0.00    +0.116 A 
ATOM      7  N   UNL     1       8.548 -17.541  32.428  0.00  0.00    -0.223 NA
ATOM      8  C   UNL     1       8.918 -16.463  31.644  0.00  0.00    +0.220 A 
ATOM      9  N   UNL     1       8.290 -15.232  31.744  0.00  0.00    -0.283 N 
ATOM     36  H   UNL     1       8.597 -14.459  31.154  0.00  0.00    +0.155 HD
ATOM     37  N   UNL     1       9.913 -16.596  30.743  0.00  0.00    -0.214 NA
BRANCH   4   3
ATOM      1  C   UNL     1      12.484 -17.622  27.157  0.00  0.00    +0.020 A 
ATOM      2  C   UNL     1      11.405 -17.594  28.117  0.00  0.00    +0.013 A 
ATOM      3  C   UNL     1      11.663 -17.807  29.536  0.00  0.00    +0.019 A 
ATOM     38  C   UNL     1      13.036 -18.046  29.954  0.00  0.00    +0.120 A 
ATOM     39  N   UNL     1      14.055 -18.068  29.007  0.00  0.00    -0.263 NA
ATOM     40  C   UNL     1      13.818 -17.867  27.639  0.00  0.00    +0.111 A 
ENDBRANCH   4   3
ENDBRANCH  10   9
BRANCH  12  13
ATOM     13  N   UNL     1       3.399 -15.014  32.635  0.00  0.00    -0.281 N 
ATOM     14  C   UNL     1       2.333 -14.230  33.042  0.00  0.00    +0.248 C 
ATOM     30  O   UNL     1       2.359 -13.470  33.999  0.00  0.00    -0.270 OA
ATOM     31  H   UNL     1       3.187 -15.740  31.951  0.00  0.00    +0.155 HD
BRANCH  14  15
ATOM     15  C   UNL     1       1.046 -14.311  32.285  0.00  0.00    +0.037 A 
ATOM     16  C   UNL     1       0.921 -13.749  30.938  0.00  0.00    +0.013 A 
ATOM     17  C   UNL     1      -0.336 -13.827  30.237  0.00  0.00    +0.005 A 
ATOM     18  C   UNL     1      -1.478 -14.470  30.882  0.00  0.00    -0.033 A 
ATOM     28  C   UNL     1      -1.324 -15.024  32.217  0.00  0.00    +0.005 A 
ATOM     29  C   UNL     1      -0.094 -14.949  32.908  0.00  0.00    +0.013 A 
BRANCH  18  19
ATOM     19  C   UNL     1      -2.863 -14.579  30.217  0.00  0.00    +0.119 C 
BRANCH  19  20
ATOM     20  N   UNL     1      -3.363 -15.950  29.899  0.00  0.00    -0.302 NA
ATOM     21  C   UNL     1      -4.218 -16.526  31.031  0.00  0.00    +0.066 C 
ATOM     22  C   UNL     1      -4.752 -17.951  30.672  0.00  0.00    -0.064 C 
ATOM     23  N   UNL     1      -3.570 -18.872  30.363  0.00  0.00    +0.379 N 
ATOM     24  C   UNL     1      -4.065 -20.228  30.082  0.00  0.00    -0.096 C 
ATOM     25  H   UNL     1      -2.936 -18.926  31.278  0.00  0.00    -0.082 HD
ATOM     26  C   UNL     1      -2.713 -18.305  29.241  0.00  0.00    -0.064 C 
ATOM     27  C   UNL     1      -2.212 -16.877  29.595  0.00  0.00    +0.066 C 
ENDBRANCH  19  20
ENDBRANCH  18  19
ENDBRANCH  14  15
ENDBRANCH  12  13
TORSDOF 6
ENDMDL
