MODEL 1
REMARK VINA RESULT:      -8.0      0.000      0.000
REMARK  Name = C:\Users\Docking\Desktop\test protocol\1iep_ligandH.pdb
REMARK  8 active torsions:
REMARK  status: ('A' for Active; 'I' for Inactive)
REMARK    1  A    between atoms: _5  and  _11
REMARK    2  A    between atoms: _19  and  _21
REMARK    3  A    between atoms: _22  and  _66
REMARK    4  A    between atoms: _27  and  _30
REMARK    5  A    between atoms: _32  and  _33
REMARK    6  A    between atoms: _38  and  _43
REMARK    7  A    between atoms: _43  and  _46
REMARK    8  A    between atoms: _53  and  _55
REMARK                            x       y       z     vdW  Elec       q    Type
REMARK                         _______ _______ _______ _____ _____    ______ ____
ROOT
ATOM     10  C   UNL     1      13.950 -16.176  12.280  0.00  0.00    +0.038 A 
ATOM     11  C   UNL     1      13.992 -14.845  12.768  0.00  0.00    +0.047 A 
ATOM     12  C   UNL     1      15.046 -13.928  12.363  0.00  0.00    +0.035 A 
ATOM     32  C   UNL     1      16.041 -14.400  11.458  0.00  0.00    +0.024 A 
ATOM     33  C   UNL     1      16.014 -15.751  10.953  0.00  0.00    +0.007 A 
ATOM     34  C   UNL     1      14.978 -16.660  11.351  0.00  0.00    -0.029 A 
ATOM     35  C   UNL     1      15.002 -18.098  10.783  0.00  0.00    +0.045 C 
ENDROOT
BRANCH  10   9
ATOM      4  C   UNL     1       9.523 -17.980  11.849  0.00  0.00    +0.077 A 
ATOM      5  C   UNL     1       9.239 -17.165  10.702  0.00  0.00    +0.048 A 
ATOM      6  C   UNL     1      10.256 -16.290  10.260  0.00  0.00    +0.116 A 
ATOM      7  N   UNL     1      11.464 -16.242  10.922  0.00  0.00    -0.223 NA
ATOM      8  C   UNL     1      11.704 -17.040  12.025  0.00  0.00    +0.220 A 
ATOM      9  N   UNL     1      12.914 -17.014  12.701  0.00  0.00    -0.283 N 
ATOM     36  H   UNL     1      13.050 -17.613  13.516  0.00  0.00    +0.155 HD
ATOM     37  N   UNL     1      10.748 -17.883  12.468  0.00  0.00    -0.214 NA
BRANCH   4   3
ATOM      1  C   UNL     1       6.413 -19.531  13.644  0.00  0.00    +0.020 A 
ATOM      2  C   UNL     1       7.318 -18.547  13.096  0.00  0.00    +0.013 A 
ATOM      3  C   UNL     1       8.550 -18.956  12.434  0.00  0.00    +0.019 A 
ATOM     38  C   UNL     1       8.839 -20.380  12.341  0.00  0.00    +0.120 A 
ATOM     39  N   UNL     1       7.949 -21.304  12.880  0.00  0.00    -0.263 NA
ATOM     40  C   UNL     1       6.761 -20.922  13.521  0.00  0.00    +0.111 A 
ENDBRANCH   4   3
ENDBRANCH  10   9
BRANCH  12  13
ATOM     13  N   UNL     1      15.145 -12.568  12.831  0.00  0.00    -0.281 N 
ATOM     14  C   UNL     1      14.595 -11.430  12.264  0.00  0.00    +0.248 C 
ATOM     30  O   UNL     1      14.110 -11.382  11.144  0.00  0.00    -0.270 OA
ATOM     31  H   UNL     1      15.686 -12.427  13.685  0.00  0.00    +0.155 HD
BRANCH  14  15
ATOM     15  C   UNL     1      14.597 -10.159  13.050  0.00  0.00    +0.037 A 
ATOM     16  C   UNL     1      15.346  -8.985  12.594  0.00  0.00    +0.013 A 
ATOM     17  C   UNL     1      15.345  -7.776  13.380  0.00  0.00    +0.005 A 
ATOM     18  C   UNL     1      14.590  -7.736  14.630  0.00  0.00    -0.033 A 
ATOM     28  C   UNL     1      13.852  -8.913  15.057  0.00  0.00    +0.005 A 
ATOM     29  C   UNL     1      13.852 -10.100  14.290  0.00  0.00    +0.013 A 
BRANCH  18  19
ATOM     19  C   UNL     1      14.550  -6.496  15.543  0.00  0.00    +0.119 C 
BRANCH  19  20
ATOM     20  N   UNL     1      13.646  -5.378  15.139  0.00  0.00    -0.302 NA
ATOM     21  C   UNL     1      14.318  -4.011  15.291  0.00  0.00    +0.066 C 
ATOM     22  C   UNL     1      13.366  -2.855  14.843  0.00  0.00    -0.064 C 
ATOM     23  N   UNL     1      12.074  -2.917  15.659  0.00  0.00    +0.379 N 
ATOM     24  C   UNL     1      11.200  -1.797  15.280  0.00  0.00    -0.096 C 
ATOM     25  H   UNL     1      12.345  -2.787  16.732  0.00  0.00    -0.082 HD
ATOM     26  C   UNL     1      11.400  -4.274  15.515  0.00  0.00    -0.064 C 
ATOM     27  C   UNL     1      12.365  -5.418  15.935  0.00  0.00    +0.066 C 
ENDBRANCH  19  20
ENDBRANCH  18  19
ENDBRANCH  14  15
ENDBRANCH  12  13
TORSDOF 6
ENDMDL
MODEL 2
REMARK VINA RESULT:      -7.9      4.064     14.492
REMARK  Name = C:\Users\Docking\Desktop\test protocol\1iep_ligandH.pdb
REMARK  8 active torsions:
REMARK  status: ('A' for Active; 'I' for Inactive)
REMARK    1  A    between atoms: _5  and  _11
REMARK    2  A    between atoms: _19  and  _21
REMARK    3  A    between atoms: _22  and  _66
REMARK    4  A    between atoms: _27  and  _30
REMARK    5  A    between atoms: _32  and  _33
REMARK    6  A    between atoms: _38  and  _43
REMARK    7  A    between atoms: _43  and  _46
REMARK    8  A    between atoms: _53  and  _55
REMARK                            x       y       z     vdW  Elec       q    Type
REMARK                         _______ _______ _______ _____ _____    ______ ____
ROOT
ATOM     10  C   UNL     1      11.244  -1.343  15.984  0.00  0.00    +0.038 A 
ATOM     11  C   UNL     1      11.442  -2.663  15.504  0.00  0.00    +0.047 A 
ATOM     12  C   UNL     1      12.739  -3.314  15.607  0.00  0.00    +0.035 A 
ATOM     32  C   UNL     1      13.812  -2.593  16.207  0.00  0.00    +0.024 A 
ATOM     33  C   UNL     1      13.628  -1.250  16.699  0.00  0.00    +0.007 A 
ATOM     34  C   UNL     1      12.352  -0.601  16.598  0.00  0.00    -0.029 A 
ATOM     35  C   UNL     1      12.215   0.842  17.136  0.00  0.00    +0.045 C 
ENDROOT
BRANCH  10   9
ATOM      4  C   UNL     1       7.958   1.170  13.549  0.00  0.00    +0.077 A 
ATOM      5  C   UNL     1       8.848   1.374  12.443  0.00  0.00    +0.048 A 
ATOM      6  C   UNL     1      10.145   0.822  12.542  0.00  0.00    +0.116 A 
ATOM      7  N   UNL     1      10.514   0.120  13.669  0.00  0.00    -0.223 NA
ATOM      8  C   UNL     1       9.632  -0.057  14.720  0.00  0.00    +0.220 A 
ATOM      9  N   UNL     1       9.978  -0.766  15.859  0.00  0.00    -0.283 N 
ATOM     36  H   UNL     1       9.302  -0.868  16.615  0.00  0.00    +0.155 HD
ATOM     37  N   UNL     1       8.388   0.462  14.649  0.00  0.00    -0.214 NA
BRANCH   4   3
ATOM      1  C   UNL     1       4.722   3.100  14.599  0.00  0.00    +0.020 A 
ATOM      2  C   UNL     1       6.088   2.629  14.603  0.00  0.00    +0.013 A 
ATOM      3  C   UNL     1       6.555   1.689  13.592  0.00  0.00    +0.019 A 
ATOM     38  C   UNL     1       5.607   1.242  12.582  0.00  0.00    +0.120 A 
ATOM     39  N   UNL     1       4.297   1.711  12.605  0.00  0.00    -0.263 NA
ATOM     40  C   UNL     1       3.836   2.615  13.574  0.00  0.00    +0.111 A 
ENDBRANCH   4   3
ENDBRANCH  10   9
BRANCH  12  13
ATOM     13  N   UNL     1      13.002  -4.649  15.130  0.00  0.00    -0.281 N 
ATOM     14  C   UNL     1      13.817  -5.033  14.077  0.00  0.00    +0.248 C 
ATOM     30  O   UNL     1      14.280  -4.265  13.246  0.00  0.00    -0.270 OA
ATOM     31  H   UNL     1      12.530  -5.403  15.629  0.00  0.00    +0.155 HD
BRANCH  14  15
ATOM     15  C   UNL     1      14.156  -6.480  13.916  0.00  0.00    +0.037 A 
ATOM     16  C   UNL     1      14.405  -7.059  12.594  0.00  0.00    +0.013 A 
ATOM     17  C   UNL     1      14.713  -8.461  12.465  0.00  0.00    +0.005 A 
ATOM     18  C   UNL     1      14.775  -9.294  13.664  0.00  0.00    -0.033 A 
ATOM     28  C   UNL     1      14.529  -8.692  14.964  0.00  0.00    +0.005 A 
ATOM     29  C   UNL     1      14.226  -7.318  15.094  0.00  0.00    +0.013 A 
BRANCH  18  19
ATOM     19  C   UNL     1      15.077 -10.804  13.620  0.00  0.00    +0.119 C 
BRANCH  19  20
ATOM     20  N   UNL     1      14.071 -11.682  12.951  0.00  0.00    -0.302 NA
ATOM     21  C   UNL     1      12.662 -11.473  13.514  0.00  0.00    +0.066 C 
ATOM     22  C   UNL     1      11.618 -12.383  12.788  0.00  0.00    -0.064 C 
ATOM     23  N   UNL     1      12.043 -13.847  12.920  0.00  0.00    +0.379 N 
ATOM     24  C   UNL     1      11.034 -14.710  12.289  0.00  0.00    -0.096 C 
ATOM     25  H   UNL     1      12.068 -14.095  14.007  0.00  0.00    -0.082 HD
ATOM     26  C   UNL     1      13.444 -14.063  12.366  0.00  0.00    -0.064 C 
ATOM     27  C   UNL     1      14.468 -13.132  13.074  0.00  0.00    +0.066 C 
ENDBRANCH  19  20
ENDBRANCH  18  19
ENDBRANCH  14  15
ENDBRANCH  12  13
TORSDOF 6
ENDMDL
MODEL 3
REMARK VINA RESULT:      -7.9     25.348     28.485
REMARK  Name = C:\Users\Docking\Desktop\test protocol\1iep_ligandH.pdb
REMARK  8 active torsions:
REMARK  status: ('A' for Active; 'I' for Inactive)
REMARK    1  A    between atoms: _5  and  _11
REMARK    2  A    between atoms: _19  and  _21
REMARK    3  A    between atoms: _22  and  _66
REMARK    4  A    between atoms: _27  and  _30
REMARK    5  A    between atoms: _32  and  _33
REMARK    6  A    between atoms: _38  and  _43
REMARK    7  A    between atoms: _43  and  _46
REMARK    8  A    between atoms: _53  and  _55
REMARK                            x       y       z     vdW  Elec       q    Type
REMARK                         _______ _______ _______ _____ _____    ______ ____
ROOT
ATOM     10  C   UNL     1     -13.227 -22.039  21.366  0.00  0.00    +0.038 A 
ATOM     11  C   UNL     1     -13.463 -21.104  20.326  0.00  0.00    +0.047 A 
ATOM     12  C   UNL     1     -14.688 -20.322  20.281  0.00  0.00    +0.035 A 
ATOM     32  C   UNL     1     -15.651 -20.515  21.314  0.00  0.00    +0.024 A 
ATOM     33  C   UNL     1     -15.428 -21.461  22.378  0.00  0.00    +0.007 A 
ATOM     34  C   UNL     1     -14.222 -22.238  22.426  0.00  0.00    -0.029 A 
ATOM     35  C   UNL     1     -14.039 -23.243  23.588  0.00  0.00    +0.045 C 
ENDROOT
BRANCH  10   9
ATOM      4  C   UNL     1     -10.430 -25.575  19.720  0.00  0.00    +0.077 A 
ATOM      5  C   UNL     1     -11.443 -26.034  18.813  0.00  0.00    +0.048 A 
ATOM      6  C   UNL     1     -12.672 -25.337  18.807  0.00  0.00    +0.116 A 
ATOM      7  N   UNL     1     -12.863 -24.263  19.648  0.00  0.00    -0.223 NA
ATOM      8  C   UNL     1     -11.865 -23.847  20.511  0.00  0.00    +0.220 A 
ATOM      9  N   UNL     1     -12.033 -22.764  21.360  0.00  0.00    -0.283 N 
ATOM     36  H   UNL     1     -11.276 -22.493  21.987  0.00  0.00    +0.155 HD
ATOM     37  N   UNL     1     -10.683 -24.496  20.537  0.00  0.00    -0.214 NA
BRANCH   4   3
ATOM      1  C   UNL     1      -6.675 -26.213  20.610  0.00  0.00    +0.020 A 
ATOM      2  C   UNL     1      -7.961 -25.560  20.521  0.00  0.00    +0.013 A 
ATOM      3  C   UNL     1      -9.077 -26.205  19.841  0.00  0.00    +0.019 A 
ATOM     38  C   UNL     1      -8.858 -27.520  19.258  0.00  0.00    +0.120 A 
ATOM     39  N   UNL     1      -7.608 -28.123  19.358  0.00  0.00    -0.263 NA
ATOM     40  C   UNL     1      -6.525 -27.512  20.009  0.00  0.00    +0.111 A 
ENDBRANCH   4   3
ENDBRANCH  10   9
BRANCH  12  13
ATOM     13  N   UNL     1     -14.986 -19.364  19.245  0.00  0.00    -0.281 N 
ATOM     14  C   UNL     1     -15.613 -19.590  18.031  0.00  0.00    +0.248 C 
ATOM     30  O   UNL     1     -15.823 -20.697  17.557  0.00  0.00    -0.270 OA
ATOM     31  H   UNL     1     -14.700 -18.402  19.429  0.00  0.00    +0.155 HD
BRANCH  14  15
ATOM     15  C   UNL     1     -16.059 -18.417  17.218  0.00  0.00    +0.037 A 
ATOM     16  C   UNL     1     -17.324 -18.441  16.479  0.00  0.00    +0.013 A 
ATOM     17  C   UNL     1     -17.722 -17.303  15.690  0.00  0.00    +0.005 A 
ATOM     18  C   UNL     1     -16.853 -16.129  15.637  0.00  0.00    -0.033 A 
ATOM     28  C   UNL     1     -15.606 -16.130  16.384  0.00  0.00    +0.005 A 
ATOM     29  C   UNL     1     -15.212 -17.245  17.158  0.00  0.00    +0.013 A 
BRANCH  18  19
ATOM     19  C   UNL     1     -17.187 -14.878  14.803  0.00  0.00    +0.119 C 
BRANCH  19  20
ATOM     20  N   UNL     1     -16.063 -14.224  14.070  0.00  0.00    -0.302 NA
ATOM     21  C   UNL     1     -15.972 -12.726  14.376  0.00  0.00    +0.066 C 
ATOM     22  C   UNL     1     -14.776 -12.062  13.618  0.00  0.00    -0.064 C 
ATOM     23  N   UNL     1     -14.933 -12.300  12.116  0.00  0.00    +0.379 N 
ATOM     24  C   UNL     1     -13.842 -11.627  11.396  0.00  0.00    -0.096 C 
ATOM     25  H   UNL     1     -15.891 -11.826  11.797  0.00  0.00    -0.082 HD
ATOM     26  C   UNL     1     -15.027 -13.786  11.803  0.00  0.00    -0.064 C 
ATOM     27  C   UNL     1     -16.201 -14.442  12.583  0.00  0.00    +0.066 C 
ENDBRANCH  19  20
ENDBRANCH  18  19
ENDBRANCH  14  15
ENDBRANCH  12  13
TORSDOF 6
ENDMDL
MODEL 4
REMARK VINA RESULT:      -7.9     11.966     15.484
REMARK  Name = C:\Users\Docking\Desktop\test protocol\1iep_ligandH.pdb
REMARK  8 active torsions:
REMARK  status: ('A' for Active; 'I' for Inactive)
REMARK    1  A    between atoms: _5  and  _11
REMARK    2  A    between atoms: _19  and  _21
REMARK    3  A    between atoms: _22  and  _66
REMARK    4  A    between atoms: _27  and  _30
REMARK    5  A    between atoms: _32  and  _33
REMARK    6  A    between atoms: _38  and  _43
REMARK    7  A    between atoms: _43  and  _46
REMARK    8  A    between atoms: _53  and  _55
REMARK                            x       y       z     vdW  Elec       q    Type
REMARK                         _______ _______ _______ _____ _____    ______ ____
ROOT
ATOM     10  C   UNL     1      14.023 -25.995  18.900  0.00  0.00    +0.038 A 
ATOM     11  C   UNL     1      13.052 -25.176  18.269  0.00  0.00    +0.047 A 
ATOM     12  C   UNL     1      12.758 -25.313  16.851  0.00  0.00    +0.035 A 
ATOM     32  C   UNL     1      13.471 -26.298  16.106  0.00  0.00    +0.024 A 
ATOM     33  C   UNL     1      14.462 -27.138  16.731  0.00  0.00    +0.007 A 
ATOM     34  C   UNL     1      14.758 -27.005  18.129  0.00  0.00    -0.029 A 
ATOM     35  C   UNL     1      15.834 -27.928  18.745  0.00  0.00    +0.045 C 
ENDROOT
BRANCH  10   9
ATOM      4  C   UNL     1      16.435 -24.025  22.553  0.00  0.00    +0.077 A 
ATOM      5  C   UNL     1      17.304 -23.305  21.668  0.00  0.00    +0.048 A 
ATOM      6  C   UNL     1      17.102 -23.474  20.280  0.00  0.00    +0.116 A 
ATOM      7  N   UNL     1      16.102 -24.304  19.822  0.00  0.00    -0.223 NA
ATOM      8  C   UNL     1      15.282 -24.986  20.703  0.00  0.00    +0.220 A 
ATOM      9  N   UNL     1      14.265 -25.820  20.265  0.00  0.00    -0.283 N 
ATOM     36  H   UNL     1      13.686 -26.310  20.946  0.00  0.00    +0.155 HD
ATOM     37  N   UNL     1      15.456 -24.842  22.033  0.00  0.00    -0.214 NA
BRANCH   4   3
ATOM      1  C   UNL     1      15.729 -24.545  26.365  0.00  0.00    +0.020 A 
ATOM      2  C   UNL     1      15.602 -24.653  24.930  0.00  0.00    +0.013 A 
ATOM      3  C   UNL     1      16.521 -23.948  24.045  0.00  0.00    +0.019 A 
ATOM     38  C   UNL     1      17.567 -23.136  24.650  0.00  0.00    +0.120 A 
ATOM     39  N   UNL     1      17.664 -23.050  26.035  0.00  0.00    -0.263 NA
ATOM     40  C   UNL     1      16.784 -23.722  26.896  0.00  0.00    +0.111 A 
ENDBRANCH   4   3
ENDBRANCH  10   9
BRANCH  12  13
ATOM     13  N   UNL     1      11.789 -24.505  16.154  0.00  0.00    -0.281 N 
ATOM     14  C   UNL     1      10.762 -24.930  15.327  0.00  0.00    +0.248 C 
ATOM     30  O   UNL     1      10.653 -26.066  14.889  0.00  0.00    -0.270 OA
ATOM     31  H   UNL     1      11.869 -23.497  16.287  0.00  0.00    +0.155 HD
BRANCH  14  15
ATOM     15  C   UNL     1       9.713 -23.948  14.916  0.00  0.00    +0.037 A 
ATOM     16  C   UNL     1       8.325 -24.088  15.363  0.00  0.00    +0.013 A 
ATOM     17  C   UNL     1       7.329 -23.137  14.938  0.00  0.00    +0.005 A 
ATOM     18  C   UNL     1       7.719 -22.036  14.060  0.00  0.00    -0.033 A 
ATOM     28  C   UNL     1       9.104 -21.918  13.636  0.00  0.00    +0.005 A 
ATOM     29  C   UNL     1      10.083 -22.849  14.050  0.00  0.00    +0.013 A 
BRANCH  18  19
ATOM     19  C   UNL     1       6.718 -20.986  13.540  0.00  0.00    +0.119 C 
BRANCH  19  20
ATOM     20  N   UNL     1       5.853 -21.379  12.388  0.00  0.00    -0.302 NA
ATOM     21  C   UNL     1       6.245 -20.648  11.100  0.00  0.00    +0.066 C 
ATOM     22  C   UNL     1       5.345 -21.087   9.900  0.00  0.00    -0.064 C 
ATOM     23  N   UNL     1       3.877 -20.827  10.245  0.00  0.00    +0.379 N 
ATOM     24  C   UNL     1       3.032 -21.185   9.096  0.00  0.00    -0.096 C 
ATOM     25  H   UNL     1       3.761 -19.733  10.423  0.00  0.00    -0.082 HD
ATOM     26  C   UNL     1       3.480 -21.548  11.526  0.00  0.00    -0.064 C 
ATOM     27  C   UNL     1       4.400 -21.126  12.705  0.00  0.00    +0.066 C 
ENDBRANCH  19  20
ENDBRANCH  18  19
ENDBRANCH  14  15
ENDBRANCH  12  13
TORSDOF 6
ENDMDL
MODEL 5
REMARK VINA RESULT:      -7.8     11.536     15.839
REMARK  Name = C:\Users\Docking\Desktop\test protocol\1iep_ligandH.pdb
REMARK  8 active torsions:
REMARK  status: ('A' for Active; 'I' for Inactive)
REMARK    1  A    between atoms: _5  and  _11
REMARK    2  A    between atoms: _19  and  _21
REMARK    3  A    between atoms: _22  and  _66
REMARK    4  A    between atoms: _27  and  _30
REMARK    5  A    between atoms: _32  and  _33
REMARK    6  A    between atoms: _38  and  _43
REMARK    7  A    between atoms: _43  and  _46
REMARK    8  A    between atoms: _53  and  _55
REMARK                            x       y       z     vdW  Elec       q    Type
REMARK                         _______ _______ _______ _____ _____    ______ ____
ROOT
ATOM     10  C   UNL     1       0.175 -17.346   7.699  0.00  0.00    +0.038 A 
ATOM     11  C   UNL     1       1.178 -17.805   8.590  0.00  0.00    +0.047 A 
ATOM     12  C   UNL     1       1.078 -19.108   9.230  0.00  0.00    +0.035 A 
ATOM     32  C   UNL     1      -0.058 -19.918   8.937  0.00  0.00    +0.024 A 
ATOM     33  C   UNL     1      -1.088 -19.466   8.035  0.00  0.00    +0.007 A 
ATOM     34  C   UNL     1      -0.995 -18.181   7.403  0.00  0.00    -0.029 A 
ATOM     35  C   UNL     1      -2.132 -17.745   6.450  0.00  0.00    +0.045 C 
ENDROOT
BRANCH  10   9
ATOM      4  C   UNL     1       2.137 -14.382   4.474  0.00  0.00    +0.077 A 
ATOM      5  C   UNL     1       2.958 -15.425   3.928  0.00  0.00    +0.048 A 
ATOM      6  C   UNL     1       2.850 -16.708   4.510  0.00  0.00    +0.116 A 
ATOM      7  N   UNL     1       1.983 -16.921   5.559  0.00  0.00    -0.223 NA
ATOM      8  C   UNL     1       1.207 -15.893   6.063  0.00  0.00    +0.220 A 
ATOM      9  N   UNL     1       0.322 -16.087   7.113  0.00  0.00    -0.283 N 
ATOM     36  H   UNL     1      -0.227 -15.301   7.461  0.00  0.00    +0.155 HD
ATOM     37  N   UNL     1       1.293 -14.658   5.526  0.00  0.00    -0.214 NA
BRANCH   4   3
ATOM      1  C   UNL     1       3.212 -10.718   3.625  0.00  0.00    +0.020 A 
ATOM      2  C   UNL     1       3.264 -12.068   4.137  0.00  0.00    +0.013 A 
ATOM      3  C   UNL     1       2.136 -12.975   3.964  0.00  0.00    +0.019 A 
ATOM     38  C   UNL     1       0.961 -12.480   3.262  0.00  0.00    +0.120 A 
ATOM     39  N   UNL     1       0.939 -11.175   2.782  0.00  0.00    -0.263 NA
ATOM     40  C   UNL     1       2.018 -10.293   2.944  0.00  0.00    +0.111 A 
ENDBRANCH   4   3
ENDBRANCH  10   9
BRANCH  12  13
ATOM     13  N   UNL     1       2.061 -19.624  10.149  0.00  0.00    -0.281 N 
ATOM     14  C   UNL     1       3.091 -20.512   9.884  0.00  0.00    +0.248 C 
ATOM     30  O   UNL     1       3.193 -21.166   8.857  0.00  0.00    -0.270 OA
ATOM     31  H   UNL     1       1.989 -19.295  11.112  0.00  0.00    +0.155 HD
BRANCH  14  15
ATOM     15  C   UNL     1       4.154 -20.714  10.916  0.00  0.00    +0.037 A 
ATOM     16  C   UNL     1       3.818 -20.856  12.335  0.00  0.00    +0.013 A 
ATOM     17  C   UNL     1       4.864 -21.032  13.311  0.00  0.00    +0.005 A 
ATOM     18  C   UNL     1       6.256 -21.069  12.870  0.00  0.00    -0.033 A 
ATOM     28  C   UNL     1       6.561 -20.930  11.456  0.00  0.00    +0.005 A 
ATOM     29  C   UNL     1       5.538 -20.756  10.496  0.00  0.00    +0.013 A 
BRANCH  18  19
ATOM     19  C   UNL     1       7.438 -21.232  13.845  0.00  0.00    +0.119 C 
BRANCH  19  20
ATOM     20  N   UNL     1       8.153 -22.543  13.839  0.00  0.00    -0.302 NA
ATOM     21  C   UNL     1       7.743 -23.426  15.021  0.00  0.00    +0.066 C 
ATOM     22  C   UNL     1       8.484 -24.802  14.987  0.00  0.00    -0.064 C 
ATOM     23  N   UNL     1       9.995 -24.565  14.986  0.00  0.00    +0.379 N 
ATOM     24  C   UNL     1      10.695 -25.858  15.013  0.00  0.00    -0.096 C 
ATOM     25  H   UNL     1      10.252 -24.022  15.925  0.00  0.00    -0.082 HD
ATOM     26  C   UNL     1      10.411 -23.685  13.816  0.00  0.00    -0.064 C 
ATOM     27  C   UNL     1       9.647 -22.332  13.843  0.00  0.00    +0.066 C 
ENDBRANCH  19  20
ENDBRANCH  18  19
ENDBRANCH  14  15
ENDBRANCH  12  13
TORSDOF 6
ENDMDL
