MODEL 1
REMARK VINA RESULT:      -9.3      0.000      0.000
REMARK  Name = C:\Users\Docking\Desktop\test protocol\1iep_ligandH.pdb
REMARK  8 active torsions:
REMARK  status: ('A' for Active; 'I' for Inactive)
REMARK    1  A    between atoms: _5  and  _11
REMARK    2  A    between atoms: _19  and  _21
REMARK    3  A    between atoms: _22  and  _66
REMARK    4  A    between atoms: _27  and  _30
REMARK    5  A    between atoms: _32  and  _33
REMARK    6  A    between atoms: _38  and  _43
REMARK    7  A    between atoms: _43  and  _46
REMARK    8  A    between atoms: _53  and  _55
REMARK                            x       y       z     vdW  Elec       q    Type
REMARK                         _______ _______ _______ _____ _____    ______ ____
ROOT
ATOM     10  C   UNL     1      25.661 -14.185  32.486  0.00  0.00    +0.038 A 
ATOM     11  C   UNL     1      24.324 -14.345  32.039  0.00  0.00    +0.047 A 
ATOM     12  C   UNL     1      23.202 -14.183  32.950  0.00  0.00    +0.035 A 
ATOM     32  C   UNL     1      23.477 -13.855  34.309  0.00  0.00    +0.024 A 
ATOM     33  C   UNL     1      24.829 -13.689  34.781  0.00  0.00    +0.007 A 
ATOM     34  C   UNL     1      25.940 -13.850  33.888  0.00  0.00    -0.029 A 
ATOM     35  C   UNL     1      27.369 -13.668  34.450  0.00  0.00    +0.045 C 
ENDROOT
BRANCH  10   9
ATOM      4  C   UNL     1      29.008 -16.861  30.325  0.00  0.00    +0.077 A 
ATOM      5  C   UNL     1      28.676 -18.016  31.108  0.00  0.00    +0.048 A 
ATOM      6  C   UNL     1      27.642 -17.877  32.061  0.00  0.00    +0.116 A 
ATOM      7  N   UNL     1      26.996 -16.669  32.211  0.00  0.00    -0.223 NA
ATOM      8  C   UNL     1      27.342 -15.575  31.441  0.00  0.00    +0.220 A 
ATOM      9  N   UNL     1      26.701 -14.352  31.569  0.00  0.00    -0.283 N 
ATOM     36  H   UNL     1      26.991 -13.567  30.987  0.00  0.00    +0.155 HD
ATOM     37  N   UNL     1      28.327 -15.681  30.524  0.00  0.00    -0.214 NA
BRANCH   4   3
ATOM      1  C   UNL     1      30.940 -17.357  26.960  0.00  0.00    +0.020 A 
ATOM      2  C   UNL     1      29.877 -17.393  27.937  0.00  0.00    +0.013 A 
ATOM      3  C   UNL     1      30.076 -16.850  29.275  0.00  0.00    +0.019 A 
ATOM     38  C   UNL     1      31.372 -16.272  29.594  0.00  0.00    +0.120 A 
ATOM     39  N   UNL     1      32.378 -16.252  28.632  0.00  0.00    -0.263 NA
ATOM     40  C   UNL     1      32.199 -16.774  27.342  0.00  0.00    +0.111 A 
ENDBRANCH   4   3
ENDBRANCH  10   9
BRANCH  12  13
ATOM     13  N   UNL     1      21.824 -14.341  32.555  0.00  0.00    -0.281 N 
ATOM     14  C   UNL     1      20.725 -13.619  32.990  0.00  0.00    +0.248 C 
ATOM     30  O   UNL     1      20.731 -12.864  33.951  0.00  0.00    -0.270 OA
ATOM     31  H   UNL     1      21.636 -15.075  31.871  0.00  0.00    +0.155 HD
BRANCH  14  15
ATOM     15  C   UNL     1      19.428 -13.768  32.262  0.00  0.00    +0.037 A 
ATOM     16  C   UNL     1      18.162 -13.911  32.985  0.00  0.00    +0.013 A 
ATOM     17  C   UNL     1      16.928 -14.070  32.258  0.00  0.00    +0.005 A 
ATOM     18  C   UNL     1      16.954 -14.086  30.797  0.00  0.00    -0.033 A 
ATOM     28  C   UNL     1      18.223 -13.937  30.105  0.00  0.00    +0.005 A 
ATOM     29  C   UNL     1      19.435 -13.782  30.814  0.00  0.00    +0.013 A 
BRANCH  18  19
ATOM     19  C   UNL     1      15.688 -14.272  29.940  0.00  0.00    +0.119 C 
BRANCH  19  20
ATOM     20  N   UNL     1      14.408 -13.729  30.485  0.00  0.00    -0.302 NA
ATOM     21  C   UNL     1      13.350 -14.822  30.663  0.00  0.00    +0.066 C 
ATOM     22  C   UNL     1      12.025 -14.241  31.255  0.00  0.00    -0.064 C 
ATOM     23  N   UNL     1      11.506 -13.129  30.341  0.00  0.00    +0.379 N 
ATOM     24  C   UNL     1      10.230 -12.620  30.863  0.00  0.00    -0.096 C 
ATOM     25  H   UNL     1      11.307 -13.580  29.340  0.00  0.00    -0.082 HD
ATOM     26  C   UNL     1      12.553 -12.040  30.156  0.00  0.00    -0.064 C 
ATOM     27  C   UNL     1      13.875 -12.633  29.595  0.00  0.00    +0.066 C 
ENDBRANCH  19  20
ENDBRANCH  18  19
ENDBRANCH  14  15
ENDBRANCH  12  13
TORSDOF 6
ENDMDL
MODEL 2
REMARK VINA RESULT:      -8.9      2.217      3.066
REMARK  Name = C:\Users\Docking\Desktop\test protocol\1iep_ligandH.pdb
REMARK  8 active torsions:
REMARK  status: ('A' for Active; 'I' for Inactive)
REMARK    1  A    between atoms: _5  and  _11
REMARK    2  A    between atoms: _19  and  _21
REMARK    3  A    between atoms: _22  and  _66
REMARK    4  A    between atoms: _27  and  _30
REMARK    5  A    between atoms: _32  and  _33
REMARK    6  A    between atoms: _38  and  _43
REMARK    7  A    between atoms: _43  and  _46
REMARK    8  A    between atoms: _53  and  _55
REMARK                            x       y       z     vdW  Elec       q    Type
REMARK                         _______ _______ _______ _____ _____    ______ ____
ROOT
ATOM     10  C   UNL     1      25.175 -13.750  32.591  0.00  0.00    +0.038 A 
ATOM     11  C   UNL     1      23.848 -13.895  32.113  0.00  0.00    +0.047 A 
ATOM     12  C   UNL     1      22.706 -13.654  32.981  0.00  0.00    +0.035 A 
ATOM     32  C   UNL     1      22.952 -13.265  34.330  0.00  0.00    +0.024 A 
ATOM     33  C   UNL     1      24.295 -13.114  34.832  0.00  0.00    +0.007 A 
ATOM     34  C   UNL     1      25.426 -13.352  33.981  0.00  0.00    -0.029 A 
ATOM     35  C   UNL     1      26.844 -13.182  34.575  0.00  0.00    +0.045 C 
ENDROOT
BRANCH  10   9
ATOM      4  C   UNL     1      28.565 -16.597  30.736  0.00  0.00    +0.077 A 
ATOM      5  C   UNL     1      28.214 -17.682  31.606  0.00  0.00    +0.048 A 
ATOM      6  C   UNL     1      27.160 -17.464  32.522  0.00  0.00    +0.116 A 
ATOM      7  N   UNL     1      26.512 -16.248  32.555  0.00  0.00    -0.223 NA
ATOM      8  C   UNL     1      26.877 -15.222  31.703  0.00  0.00    +0.220 A 
ATOM      9  N   UNL     1      26.235 -13.994  31.714  0.00  0.00    -0.283 N 
ATOM     36  H   UNL     1      26.539 -13.260  31.074  0.00  0.00    +0.155 HD
ATOM     37  N   UNL     1      27.882 -15.405  30.821  0.00  0.00    -0.214 NA
BRANCH   4   3
ATOM      1  C   UNL     1      31.999 -16.211  28.902  0.00  0.00    +0.020 A 
ATOM      2  C   UNL     1      30.982 -16.108  29.923  0.00  0.00    +0.013 A 
ATOM      3  C   UNL     1      29.655 -16.674  29.712  0.00  0.00    +0.019 A 
ATOM     38  C   UNL     1      29.389 -17.344  28.448  0.00  0.00    +0.120 A 
ATOM     39  N   UNL     1      30.388 -17.426  27.483  0.00  0.00    -0.263 NA
ATOM     40  C   UNL     1      31.667 -16.883  27.674  0.00  0.00    +0.111 A 
ENDBRANCH   4   3
ENDBRANCH  10   9
BRANCH  12  13
ATOM     13  N   UNL     1      21.335 -13.793  32.555  0.00  0.00    -0.281 N 
ATOM     14  C   UNL     1      20.813 -13.593  31.287  0.00  0.00    +0.248 C 
ATOM     30  O   UNL     1      21.414 -13.055  30.369  0.00  0.00    -0.270 OA
ATOM     31  H   UNL     1      20.669 -14.072  33.275  0.00  0.00    +0.155 HD
BRANCH  14  15
ATOM     15  C   UNL     1      19.417 -14.044  31.002  0.00  0.00    +0.037 A 
ATOM     16  C   UNL     1      18.714 -13.619  29.788  0.00  0.00    +0.013 A 
ATOM     17  C   UNL     1      17.362 -14.054  29.546  0.00  0.00    +0.005 A 
ATOM     18  C   UNL     1      16.704 -14.923  30.519  0.00  0.00    -0.033 A 
ATOM     28  C   UNL     1      17.426 -15.334  31.711  0.00  0.00    +0.005 A 
ATOM     29  C   UNL     1      18.752 -14.908  31.953  0.00  0.00    +0.013 A 
BRANCH  18  19
ATOM     19  C   UNL     1      15.255 -15.419  30.352  0.00  0.00    +0.119 C 
BRANCH  19  20
ATOM     20  N   UNL     1      15.035 -16.896  30.348  0.00  0.00    -0.302 NA
ATOM     21  C   UNL     1      15.810 -17.589  29.224  0.00  0.00    +0.066 C 
ATOM     22  C   UNL     1      15.586 -19.136  29.249  0.00  0.00    -0.064 C 
ATOM     23  N   UNL     1      14.089 -19.434  29.138  0.00  0.00    +0.379 N 
ATOM     24  C   UNL     1      13.880 -20.888  29.102  0.00  0.00    -0.096 C 
ATOM     25  H   UNL     1      13.733 -19.016  28.167  0.00  0.00    -0.082 HD
ATOM     26  C   UNL     1      13.310 -18.746  30.250  0.00  0.00    -0.064 C 
ATOM     27  C   UNL     1      13.564 -17.212  30.235  0.00  0.00    +0.066 C 
ENDBRANCH  19  20
ENDBRANCH  18  19
ENDBRANCH  14  15
ENDBRANCH  12  13
TORSDOF 6
ENDMDL
MODEL 3
REMARK VINA RESULT:      -8.9     16.965     20.105
REMARK  Name = C:\Users\Docking\Desktop\test protocol\1iep_ligandH.pdb
REMARK  8 active torsions:
REMARK  status: ('A' for Active; 'I' for Inactive)
REMARK    1  A    between atoms: _5  and  _11
REMARK    2  A    between atoms: _19  and  _21
REMARK    3  A    between atoms: _22  and  _66
REMARK    4  A    between atoms: _27  and  _30
REMARK    5  A    between atoms: _32  and  _33
REMARK    6  A    between atoms: _38  and  _43
REMARK    7  A    between atoms: _43  and  _46
REMARK    8  A    between atoms: _53  and  _55
REMARK                            x       y       z     vdW  Elec       q    Type
REMARK                         _______ _______ _______ _____ _____    ______ ____
ROOT
ATOM     10  C   UNL     1      18.939   5.505  31.979  0.00  0.00    +0.038 A 
ATOM     11  C   UNL     1      18.088   4.375  32.080  0.00  0.00    +0.047 A 
ATOM     12  C   UNL     1      18.238   3.416  33.163  0.00  0.00    +0.035 A 
ATOM     32  C   UNL     1      19.264   3.640  34.127  0.00  0.00    +0.024 A 
ATOM     33  C   UNL     1      20.138   4.782  34.039  0.00  0.00    +0.007 A 
ATOM     34  C   UNL     1      19.997   5.731  32.971  0.00  0.00    -0.029 A 
ATOM     35  C   UNL     1      20.967   6.934  32.922  0.00  0.00    +0.045 C 
ENDROOT
BRANCH  10   9
ATOM      4  C   UNL     1      18.639   6.502  27.293  0.00  0.00    +0.077 A 
ATOM      5  C   UNL     1      18.906   5.141  26.926  0.00  0.00    +0.048 A 
ATOM      6  C   UNL     1      19.122   4.218  27.973  0.00  0.00    +0.116 A 
ATOM      7  N   UNL     1      19.072   4.634  29.285  0.00  0.00    -0.223 NA
ATOM      8  C   UNL     1      18.814   5.955  29.605  0.00  0.00    +0.220 A 
ATOM      9  N   UNL     1      18.751   6.395  30.918  0.00  0.00    -0.283 N 
ATOM     36  H   UNL     1      18.565   7.378  31.112  0.00  0.00    +0.155 HD
ATOM     37  N   UNL     1      18.605   6.857  28.623  0.00  0.00    -0.214 NA
BRANCH   4   3
ATOM      1  C   UNL     1      18.033   8.445  23.952  0.00  0.00    +0.020 A 
ATOM      2  C   UNL     1      18.278   7.354  24.868  0.00  0.00    +0.013 A 
ATOM      3  C   UNL     1      18.386   7.595  26.301  0.00  0.00    +0.019 A 
ATOM     38  C   UNL     1      18.238   8.961  26.780  0.00  0.00    +0.120 A 
ATOM     39  N   UNL     1      18.004   9.992  25.874  0.00  0.00    -0.263 NA
ATOM     40  C   UNL     1      17.901   9.772  24.493  0.00  0.00    +0.111 A 
ENDBRANCH   4   3
ENDBRANCH  10   9
BRANCH  12  13
ATOM     13  N   UNL     1      17.409   2.246  33.314  0.00  0.00    -0.281 N 
ATOM     14  C   UNL     1      16.500   1.970  34.322  0.00  0.00    +0.248 C 
ATOM     30  O   UNL     1      16.418   2.596  35.369  0.00  0.00    -0.270 OA
ATOM     31  H   UNL     1      17.503   1.535  32.589  0.00  0.00    +0.155 HD
BRANCH  14  15
ATOM     15  C   UNL     1      15.556   0.824  34.150  0.00  0.00    +0.037 A 
ATOM     16  C   UNL     1      16.020  -0.563  34.236  0.00  0.00    +0.013 A 
ATOM     17  C   UNL     1      15.092  -1.649  34.049  0.00  0.00    +0.005 A 
ATOM     18  C   UNL     1      13.688  -1.352  33.775  0.00  0.00    -0.033 A 
ATOM     28  C   UNL     1      13.253   0.032  33.701  0.00  0.00    +0.005 A 
ATOM     29  C   UNL     1      14.161   1.100  33.883  0.00  0.00    +0.013 A 
BRANCH  18  19
ATOM     19  C   UNL     1      12.631  -2.449  33.542  0.00  0.00    +0.119 C 
BRANCH  19  20
ATOM     20  N   UNL     1      11.279  -2.009  33.084  0.00  0.00    -0.302 NA
ATOM     21  C   UNL     1      10.164  -2.560  33.976  0.00  0.00    +0.066 C 
ATOM     22  C   UNL     1       8.758  -2.072  33.497  0.00  0.00    -0.064 C 
ATOM     23  N   UNL     1       8.545  -2.491  32.042  0.00  0.00    +0.379 N 
ATOM     24  C   UNL     1       7.201  -2.084  31.606  0.00  0.00    -0.096 C 
ATOM     25  H   UNL     1       8.591  -3.604  32.000  0.00  0.00    -0.082 HD
ATOM     26  C   UNL     1       9.651  -1.949  31.148  0.00  0.00    -0.064 C 
ATOM     27  C   UNL     1      11.046  -2.416  31.650  0.00  0.00    +0.066 C 
ENDBRANCH  19  20
ENDBRANCH  18  19
ENDBRANCH  14  15
ENDBRANCH  12  13
TORSDOF 6
ENDMDL
MODEL 4
REMARK VINA RESULT:      -8.8     13.453     17.501
REMARK  Name = C:\Users\Docking\Desktop\test protocol\1iep_ligandH.pdb
REMARK  8 active torsions:
REMARK  status: ('A' for Active; 'I' for Inactive)
REMARK    1  A    between atoms: _5  and  _11
REMARK    2  A    between atoms: _19  and  _21
REMARK    3  A    between atoms: _22  and  _66
REMARK    4  A    between atoms: _27  and  _30
REMARK    5  A    between atoms: _32  and  _33
REMARK    6  A    between atoms: _38  and  _43
REMARK    7  A    between atoms: _43  and  _46
REMARK    8  A    between atoms: _53  and  _55
REMARK                            x       y       z     vdW  Elec       q    Type
REMARK                         _______ _______ _______ _____ _____    ______ ____
ROOT
ATOM     10  C   UNL     1      15.979   0.562  33.699  0.00  0.00    +0.038 A 
ATOM     11  C   UNL     1      16.779  -0.572  33.988  0.00  0.00    +0.047 A 
ATOM     12  C   UNL     1      16.178  -1.833  34.393  0.00  0.00    +0.035 A 
ATOM     32  C   UNL     1      14.758  -1.905  34.491  0.00  0.00    +0.024 A 
ATOM     33  C   UNL     1      13.929  -0.761  34.201  0.00  0.00    +0.007 A 
ATOM     34  C   UNL     1      14.516   0.487  33.804  0.00  0.00    -0.029 A 
ATOM     35  C   UNL     1      13.580   1.682  33.512  0.00  0.00    +0.045 C 
ENDROOT
BRANCH  10   9
ATOM      4  C   UNL     1      18.599   4.468  34.659  0.00  0.00    +0.077 A 
ATOM      5  C   UNL     1      18.699   4.131  36.050  0.00  0.00    +0.048 A 
ATOM      6  C   UNL     1      18.056   2.948  36.479  0.00  0.00    +0.116 A 
ATOM      7  N   UNL     1      17.368   2.168  35.575  0.00  0.00    -0.223 NA
ATOM      8  C   UNL     1      17.289   2.522  34.241  0.00  0.00    +0.220 A 
ATOM      9  N   UNL     1      16.608   1.748  33.314  0.00  0.00    -0.283 N 
ATOM     36  H   UNL     1      16.567   2.048  32.340  0.00  0.00    +0.155 HD
ATOM     37  N   UNL     1      17.893   3.648  33.807  0.00  0.00    -0.214 NA
BRANCH   4   3
ATOM      1  C   UNL     1      21.222   7.026  33.291  0.00  0.00    +0.020 A 
ATOM      2  C   UNL     1      20.667   5.831  33.883  0.00  0.00    +0.013 A 
ATOM      3  C   UNL     1      19.227   5.684  34.052  0.00  0.00    +0.019 A 
ATOM     38  C   UNL     1      18.370   6.773  33.608  0.00  0.00    +0.120 A 
ATOM     39  N   UNL     1      18.933   7.912  33.043  0.00  0.00    -0.263 NA
ATOM     40  C   UNL     1      20.318   8.066  32.876  0.00  0.00    +0.111 A 
ENDBRANCH   4   3
ENDBRANCH  10   9
BRANCH  12  13
ATOM     13  N   UNL     1      16.941  -3.016  34.707  0.00  0.00    -0.281 N 
ATOM     14  C   UNL     1      17.503  -3.369  35.923  0.00  0.00    +0.248 C 
ATOM     30  O   UNL     1      17.618  -2.613  36.876  0.00  0.00    -0.270 OA
ATOM     31  H   UNL     1      17.083  -3.674  33.940  0.00  0.00    +0.155 HD
BRANCH  14  15
ATOM     15  C   UNL     1      18.026  -4.758  36.101  0.00  0.00    +0.037 A 
ATOM     16  C   UNL     1      17.819  -5.494  37.350  0.00  0.00    +0.013 A 
ATOM     17  C   UNL     1      18.349  -6.826  37.502  0.00  0.00    +0.005 A 
ATOM     18  C   UNL     1      19.091  -7.431  36.398  0.00  0.00    -0.033 A 
ATOM     28  C   UNL     1      19.278  -6.680  35.167  0.00  0.00    +0.005 A 
ATOM     29  C   UNL     1      18.760  -5.374  35.016  0.00  0.00    +0.013 A 
BRANCH  18  19
ATOM     19  C   UNL     1      19.710  -8.839  36.479  0.00  0.00    +0.119 C 
BRANCH  19  20
ATOM     20  N   UNL     1      19.292  -9.831  35.444  0.00  0.00    -0.302 NA
ATOM     21  C   UNL     1      17.961 -10.502  35.797  0.00  0.00    +0.066 C 
ATOM     22  C   UNL     1      17.527 -11.520  34.693  0.00  0.00    -0.064 C 
ATOM     23  N   UNL     1      18.628 -12.565  34.505  0.00  0.00    +0.379 N 
ATOM     24  C   UNL     1      18.198 -13.557  33.508  0.00  0.00    -0.096 C 
ATOM     25  H   UNL     1      18.759 -13.096  35.476  0.00  0.00    -0.082 HD
ATOM     26  C   UNL     1      19.955 -11.906  34.157  0.00  0.00    -0.064 C 
ATOM     27  C   UNL     1      20.363 -10.875  35.246  0.00  0.00    +0.066 C 
ENDBRANCH  19  20
ENDBRANCH  18  19
ENDBRANCH  14  15
ENDBRANCH  12  13
TORSDOF 6
ENDMDL
MODEL 5
REMARK VINA RESULT:      -8.7     17.047     20.652
REMARK  Name = C:\Users\Docking\Desktop\test protocol\1iep_ligandH.pdb
REMARK  8 active torsions:
REMARK  status: ('A' for Active; 'I' for Inactive)
REMARK    1  A    between atoms: _5  and  _11
REMARK    2  A    between atoms: _19  and  _21
REMARK    3  A    between atoms: _22  and  _66
REMARK    4  A    between atoms: _27  and  _30
REMARK    5  A    between atoms: _32  and  _33
REMARK    6  A    between atoms: _38  and  _43
REMARK    7  A    between atoms: _43  and  _46
REMARK    8  A    between atoms: _53  and  _55
REMARK                            x       y       z     vdW  Elec       q    Type
REMARK                         _______ _______ _______ _____ _____    ______ ____
ROOT
ATOM     10  C   UNL     1      17.617   6.556  29.480  0.00  0.00    +0.038 A 
ATOM     11  C   UNL     1      17.209   5.357  30.118  0.00  0.00    +0.047 A 
ATOM     12  C   UNL     1      17.612   5.056  31.483  0.00  0.00    +0.035 A 
ATOM     32  C   UNL     1      18.429   6.001  32.171  0.00  0.00    +0.024 A 
ATOM     33  C   UNL     1      18.853   7.224  31.537  0.00  0.00    +0.007 A 
ATOM     34  C   UNL     1      18.461   7.525  30.190  0.00  0.00    -0.029 A 
ATOM     35  C   UNL     1      18.951   8.849  29.558  0.00  0.00    +0.045 C 
ENDROOT
BRANCH  10   9
ATOM      4  C   UNL     1      17.515   5.461  24.808  0.00  0.00    +0.077 A 
ATOM      5  C   UNL     1      18.385   4.335  24.993  0.00  0.00    +0.048 A 
ATOM      6  C   UNL     1      18.842   4.077  26.304  0.00  0.00    +0.116 A 
ATOM      7  N   UNL     1      18.452   4.889  27.346  0.00  0.00    -0.223 NA
ATOM      8  C   UNL     1      17.613   5.968  27.134  0.00  0.00    +0.220 A 
ATOM      9  N   UNL     1      17.201   6.794  28.169  0.00  0.00    -0.283 N 
ATOM     36  H   UNL     1      16.588   7.584  27.970  0.00  0.00    +0.155 HD
ATOM     37  N   UNL     1      17.164   6.237  25.890  0.00  0.00    -0.214 NA
BRANCH   4   3
ATOM      1  C   UNL     1      17.135   6.885  21.185  0.00  0.00    +0.020 A 
ATOM      2  C   UNL     1      17.733   6.520  22.448  0.00  0.00    +0.013 A 
ATOM      3  C   UNL     1      16.945   5.861  23.483  0.00  0.00    +0.019 A 
ATOM     38  C   UNL     1      15.544   5.584  23.205  0.00  0.00    +0.120 A 
ATOM     39  N   UNL     1      14.995   5.949  21.980  0.00  0.00    -0.263 NA
ATOM     40  C   UNL     1      15.743   6.585  20.977  0.00  0.00    +0.111 A 
ENDBRANCH   4   3
ENDBRANCH  10   9
BRANCH  12  13
ATOM     13  N   UNL     1      17.235   3.851  32.180  0.00  0.00    -0.281 N 
ATOM     14  C   UNL     1      16.119   3.639  32.972  0.00  0.00    +0.248 C 
ATOM     30  O   UNL     1      15.381   4.524  33.378  0.00  0.00    -0.270 OA
ATOM     31  H   UNL     1      17.869   3.058  32.076  0.00  0.00    +0.155 HD
BRANCH  14  15
ATOM     15  C   UNL     1      15.782   2.243  33.386  0.00  0.00    +0.037 A 
ATOM     16  C   UNL     1      14.393   1.827  33.596  0.00  0.00    +0.013 A 
ATOM     17  C   UNL     1      14.097   0.479  34.012  0.00  0.00    +0.005 A 
ATOM     18  C   UNL     1      15.193  -0.464  34.219  0.00  0.00    -0.033 A 
ATOM     28  C   UNL     1      16.562  -0.026  33.999  0.00  0.00    +0.005 A 
ATOM     29  C   UNL     1      16.856   1.294  33.592  0.00  0.00    +0.013 A 
BRANCH  18  19
ATOM     19  C   UNL     1      14.972  -1.916  34.683  0.00  0.00    +0.119 C 
BRANCH  19  20
ATOM     20  N   UNL     1      13.575  -2.319  35.025  0.00  0.00    -0.302 NA
ATOM     21  C   UNL     1      13.535  -3.343  36.163  0.00  0.00    +0.066 C 
ATOM     22  C   UNL     1      12.065  -3.736  36.523  0.00  0.00    -0.064 C 
ATOM     23  N   UNL     1      11.366  -4.283  35.277  0.00  0.00    +0.379 N 
ATOM     24  C   UNL     1      10.002  -4.707  35.626  0.00  0.00    -0.096 C 
ATOM     25  H   UNL     1      11.927  -5.187  34.944  0.00  0.00    -0.082 HD
ATOM     26  C   UNL     1      11.404  -3.271  34.140  0.00  0.00    -0.064 C 
ATOM     27  C   UNL     1      12.867  -2.865  33.810  0.00  0.00    +0.066 C 
ENDBRANCH  19  20
ENDBRANCH  18  19
ENDBRANCH  14  15
ENDBRANCH  12  13
TORSDOF 6
ENDMDL
