MODEL 1
REMARK VINA RESULT:      -7.9      0.000      0.000
REMARK  Name = C:\Users\Docking\Desktop\test protocol\1iep_ligandH.pdb
REMARK  8 active torsions:
REMARK  status: ('A' for Active; 'I' for Inactive)
REMARK    1  A    between atoms: _5  and  _11
REMARK    2  A    between atoms: _19  and  _21
REMARK    3  A    between atoms: _22  and  _66
REMARK    4  A    between atoms: _27  and  _30
REMARK    5  A    between atoms: _32  and  _33
REMARK    6  A    between atoms: _38  and  _43
REMARK    7  A    between atoms: _43  and  _46
REMARK    8  A    between atoms: _53  and  _55
REMARK                            x       y       z     vdW  Elec       q    Type
REMARK                         _______ _______ _______ _____ _____    ______ ____
ROOT
ATOM     10  C   UNL     1     -14.038 -22.177  21.894  0.00  0.00    +0.038 A 
ATOM     11  C   UNL     1     -14.160 -21.178  20.895  0.00  0.00    +0.047 A 
ATOM     12  C   UNL     1     -15.400 -20.437  20.721  0.00  0.00    +0.035 A 
ATOM     32  C   UNL     1     -16.494 -20.737  21.583  0.00  0.00    +0.024 A 
ATOM     33  C   UNL     1     -16.387 -21.751  22.603  0.00  0.00    +0.007 A 
ATOM     34  C   UNL     1     -15.168 -22.487  22.778  0.00  0.00    -0.029 A 
ATOM     35  C   UNL     1     -15.112 -23.567  23.884  0.00  0.00    +0.045 C 
ENDROOT
BRANCH  10   9
ATOM      4  C   UNL     1     -10.947 -25.596  20.554  0.00  0.00    +0.077 A 
ATOM      5  C   UNL     1     -11.835 -26.084  19.539  0.00  0.00    +0.048 A 
ATOM      6  C   UNL     1     -13.081 -25.432  19.399  0.00  0.00    +0.116 A 
ATOM      7  N   UNL     1     -13.403 -24.372  20.218  0.00  0.00    -0.223 NA
ATOM      8  C   UNL     1     -12.524 -23.927  21.189  0.00  0.00    +0.220 A 
ATOM      9  N   UNL     1     -12.825 -22.858  22.018  0.00  0.00    -0.283 N 
ATOM     36  H   UNL     1     -12.152 -22.565  22.726  0.00  0.00    +0.155 HD
ATOM     37  N   UNL     1     -11.329 -24.534  21.343  0.00  0.00    -0.214 NA
BRANCH   4   3
ATOM      1  C   UNL     1      -7.360 -26.196  21.995  0.00  0.00    +0.020 A 
ATOM      2  C   UNL     1      -8.654 -25.594  21.772  0.00  0.00    +0.013 A 
ATOM      3  C   UNL     1      -9.593 -26.177  20.822  0.00  0.00    +0.019 A 
ATOM     38  C   UNL     1      -9.189 -27.379  20.109  0.00  0.00    +0.120 A 
ATOM     39  N   UNL     1      -7.935 -27.936  20.343  0.00  0.00    -0.263 NA
ATOM     40  C   UNL     1      -7.022 -27.382  21.253  0.00  0.00    +0.111 A 
ENDBRANCH   4   3
ENDBRANCH  10   9
BRANCH  12  13
ATOM     13  N   UNL     1     -15.585 -19.417  19.718  0.00  0.00    -0.281 N 
ATOM     14  C   UNL     1     -15.961 -19.581  18.395  0.00  0.00    +0.248 C 
ATOM     30  O   UNL     1     -15.987 -20.655  17.813  0.00  0.00    -0.270 OA
ATOM     31  H   UNL     1     -15.420 -18.457  20.022  0.00  0.00    +0.155 HD
BRANCH  14  15
ATOM     15  C   UNL     1     -16.350 -18.377  17.600  0.00  0.00    +0.037 A 
ATOM     16  C   UNL     1     -17.388 -18.450  16.569  0.00  0.00    +0.013 A 
ATOM     17  C   UNL     1     -17.732 -17.277  15.805  0.00  0.00    +0.005 A 
ATOM     18  C   UNL     1     -17.037 -16.020  16.070  0.00  0.00    -0.033 A 
ATOM     28  C   UNL     1     -16.015 -15.974  17.102  0.00  0.00    +0.005 A 
ATOM     29  C   UNL     1     -15.674 -17.122  17.853  0.00  0.00    +0.013 A 
BRANCH  18  19
ATOM     19  C   UNL     1     -17.324 -14.724  15.289  0.00  0.00    +0.119 C 
BRANCH  19  20
ATOM     20  N   UNL     1     -16.217 -14.169  14.455  0.00  0.00    -0.302 NA
ATOM     21  C   UNL     1     -16.074 -12.653  14.624  0.00  0.00    +0.066 C 
ATOM     22  C   UNL     1     -14.897 -12.093  13.762  0.00  0.00    -0.064 C 
ATOM     23  N   UNL     1     -15.127 -12.454  12.294  0.00  0.00    +0.379 N 
ATOM     24  C   UNL     1     -14.051 -11.878  11.473  0.00  0.00    -0.096 C 
ATOM     25  H   UNL     1     -16.085 -11.981  11.976  0.00  0.00    -0.082 HD
ATOM     26  C   UNL     1     -15.272 -13.958  12.116  0.00  0.00    -0.064 C 
ATOM     27  C   UNL     1     -16.426 -14.510  13.000  0.00  0.00    +0.066 C 
ENDBRANCH  19  20
ENDBRANCH  18  19
ENDBRANCH  14  15
ENDBRANCH  12  13
TORSDOF 6
ENDMDL
MODEL 2
REMARK VINA RESULT:      -7.8      2.309     13.178
REMARK  Name = C:\Users\Docking\Desktop\test protocol\1iep_ligandH.pdb
REMARK  8 active torsions:
REMARK  status: ('A' for Active; 'I' for Inactive)
REMARK    1  A    between atoms: _5  and  _11
REMARK    2  A    between atoms: _19  and  _21
REMARK    3  A    between atoms: _22  and  _66
REMARK    4  A    between atoms: _27  and  _30
REMARK    5  A    between atoms: _32  and  _33
REMARK    6  A    between atoms: _38  and  _43
REMARK    7  A    between atoms: _43  and  _46
REMARK    8  A    between atoms: _53  and  _55
REMARK                            x       y       z     vdW  Elec       q    Type
REMARK                         _______ _______ _______ _____ _____    ______ ____
ROOT
ATOM     10  C   UNL     1     -15.352 -20.764  20.481  0.00  0.00    +0.038 A 
ATOM     11  C   UNL     1     -14.069 -21.367  20.532  0.00  0.00    +0.047 A 
ATOM     12  C   UNL     1     -13.879 -22.684  21.120  0.00  0.00    +0.035 A 
ATOM     32  C   UNL     1     -15.018 -23.360  21.646  0.00  0.00    +0.024 A 
ATOM     33  C   UNL     1     -16.329 -22.762  21.604  0.00  0.00    +0.007 A 
ATOM     34  C   UNL     1     -16.523 -21.462  21.027  0.00  0.00    -0.029 A 
ATOM     35  C   UNL     1     -17.950 -20.867  21.015  0.00  0.00    +0.045 C 
ENDROOT
BRANCH  10   9
ATOM      4  C   UNL     1     -16.362 -17.880  16.780  0.00  0.00    +0.077 A 
ATOM      5  C   UNL     1     -16.638 -18.990  15.914  0.00  0.00    +0.048 A 
ATOM      6  C   UNL     1     -16.501 -20.287  16.458  0.00  0.00    +0.116 A 
ATOM      7  N   UNL     1     -16.117 -20.450  17.771  0.00  0.00    -0.223 NA
ATOM      8  C   UNL     1     -15.857 -19.358  18.579  0.00  0.00    +0.220 A 
ATOM      9  N   UNL     1     -15.478 -19.498  19.905  0.00  0.00    -0.283 N 
ATOM     36  H   UNL     1     -15.288 -18.668  20.466  0.00  0.00    +0.155 HD
ATOM     37  N   UNL     1     -15.980 -18.109  18.083  0.00  0.00    -0.214 NA
BRANCH   4   3
ATOM      1  C   UNL     1     -16.538 -14.639  14.597  0.00  0.00    +0.020 A 
ATOM      2  C   UNL     1     -16.434 -16.034  14.956  0.00  0.00    +0.013 A 
ATOM      3  C   UNL     1     -16.466 -16.449  16.353  0.00  0.00    +0.019 A 
ATOM     38  C   UNL     1     -16.607 -15.418  17.371  0.00  0.00    +0.120 A 
ATOM     39  N   UNL     1     -16.704 -14.082  16.995  0.00  0.00    -0.263 NA
ATOM     40  C   UNL     1     -16.672 -13.671  15.654  0.00  0.00    +0.111 A 
ENDBRANCH   4   3
ENDBRANCH  10   9
BRANCH  12  13
ATOM     13  N   UNL     1     -12.599 -23.342  21.207  0.00  0.00    -0.281 N 
ATOM     14  C   UNL     1     -11.953 -23.801  22.343  0.00  0.00    +0.248 C 
ATOM     30  O   UNL     1     -12.282 -23.522  23.486  0.00  0.00    -0.270 OA
ATOM     31  H   UNL     1     -12.110 -23.487  20.323  0.00  0.00    +0.155 HD
BRANCH  14  15
ATOM     15  C   UNL     1     -10.758 -24.686  22.186  0.00  0.00    +0.037 A 
ATOM     16  C   UNL     1     -10.271 -25.509  23.296  0.00  0.00    +0.013 A 
ATOM     17  C   UNL     1      -9.107 -26.341  23.123  0.00  0.00    +0.005 A 
ATOM     18  C   UNL     1      -8.422 -26.355  21.833  0.00  0.00    -0.033 A 
ATOM     28  C   UNL     1      -8.930 -25.533  20.747  0.00  0.00    +0.005 A 
ATOM     29  C   UNL     1     -10.070 -24.715  20.913  0.00  0.00    +0.013 A 
BRANCH  18  19
ATOM     19  C   UNL     1      -7.160 -27.196  21.565  0.00  0.00    +0.119 C 
BRANCH  19  20
ATOM     20  N   UNL     1      -7.305 -28.682  21.615  0.00  0.00    -0.302 NA
ATOM     21  C   UNL     1      -6.602 -29.287  22.833  0.00  0.00    +0.066 C 
ATOM     22  C   UNL     1      -6.783 -30.839  22.882  0.00  0.00    -0.064 C 
ATOM     23  N   UNL     1      -6.248 -31.453  21.587  0.00  0.00    +0.379 N 
ATOM     24  C   UNL     1      -6.364 -32.917  21.655  0.00  0.00    -0.096 C 
ATOM     25  H   UNL     1      -5.164 -31.202  21.517  0.00  0.00    -0.082 HD
ATOM     26  C   UNL     1      -6.940 -30.855  20.371  0.00  0.00    -0.064 C 
ATOM     27  C   UNL     1      -6.779 -29.309  20.347  0.00  0.00    +0.066 C 
ENDBRANCH  19  20
ENDBRANCH  18  19
ENDBRANCH  14  15
ENDBRANCH  12  13
TORSDOF 6
ENDMDL
MODEL 3
REMARK VINA RESULT:      -7.8     23.736     26.680
REMARK  Name = C:\Users\Docking\Desktop\test protocol\1iep_ligandH.pdb
REMARK  8 active torsions:
REMARK  status: ('A' for Active; 'I' for Inactive)
REMARK    1  A    between atoms: _5  and  _11
REMARK    2  A    between atoms: _19  and  _21
REMARK    3  A    between atoms: _22  and  _66
REMARK    4  A    between atoms: _27  and  _30
REMARK    5  A    between atoms: _32  and  _33
REMARK    6  A    between atoms: _38  and  _43
REMARK    7  A    between atoms: _43  and  _46
REMARK    8  A    between atoms: _53  and  _55
REMARK                            x       y       z     vdW  Elec       q    Type
REMARK                         _______ _______ _______ _____ _____    ______ ____
ROOT
ATOM     10  C   UNL     1       7.250 -26.163  31.563  0.00  0.00    +0.038 A 
ATOM     11  C   UNL     1       7.960 -24.938  31.482  0.00  0.00    +0.047 A 
ATOM     12  C   UNL     1       7.656 -23.830  32.375  0.00  0.00    +0.035 A 
ATOM     32  C   UNL     1       6.623 -24.007  33.341  0.00  0.00    +0.024 A 
ATOM     33  C   UNL     1       5.891 -25.245  33.437  0.00  0.00    +0.007 A 
ATOM     34  C   UNL     1       6.185 -26.339  32.557  0.00  0.00    -0.029 A 
ATOM     35  C   UNL     1       5.363 -27.641  32.701  0.00  0.00    +0.045 C 
ENDROOT
BRANCH  10   9
ATOM      4  C   UNL     1       7.007 -28.309  27.277  0.00  0.00    +0.077 A 
ATOM      5  C   UNL     1       6.117 -27.309  26.761  0.00  0.00    +0.048 A 
ATOM      6  C   UNL     1       5.741 -26.263  27.632  0.00  0.00    +0.116 A 
ATOM      7  N   UNL     1       6.225 -26.229  28.922  0.00  0.00    -0.223 NA
ATOM      8  C   UNL     1       7.080 -27.211  29.389  0.00  0.00    +0.220 A 
ATOM      9  N   UNL     1       7.584 -27.192  30.680  0.00  0.00    -0.283 N 
ATOM     36  H   UNL     1       8.206 -27.939  30.989  0.00  0.00    +0.155 HD
ATOM     37  N   UNL     1       7.452 -28.221  28.577  0.00  0.00    -0.214 NA
BRANCH   4   3
ATOM      1  C   UNL     1       8.814 -31.612  26.215  0.00  0.00    +0.020 A 
ATOM      2  C   UNL     1       8.369 -30.505  27.030  0.00  0.00    +0.013 A 
ATOM      3  C   UNL     1       7.497 -29.476  26.477  0.00  0.00    +0.019 A 
ATOM     38  C   UNL     1       7.091 -29.597  25.085  0.00  0.00    +0.120 A 
ATOM     39  N   UNL     1       7.537 -30.673  24.324  0.00  0.00    -0.263 NA
ATOM     40  C   UNL     1       8.377 -31.669  24.845  0.00  0.00    +0.111 A 
ENDBRANCH   4   3
ENDBRANCH  10   9
BRANCH  12  13
ATOM     13  N   UNL     1       8.338 -22.561  32.333  0.00  0.00    -0.281 N 
ATOM     14  C   UNL     1       9.328 -22.098  33.184  0.00  0.00    +0.248 C 
ATOM     30  O   UNL     1       9.630 -22.624  34.245  0.00  0.00    -0.270 OA
ATOM     31  H   UNL     1       8.056 -21.926  31.586  0.00  0.00    +0.155 HD
BRANCH  14  15
ATOM     15  C   UNL     1      10.083 -20.863  32.809  0.00  0.00    +0.037 A 
ATOM     16  C   UNL     1       9.386 -19.633  32.426  0.00  0.00    +0.013 A 
ATOM     17  C   UNL     1      10.138 -18.462  32.052  0.00  0.00    +0.005 A 
ATOM     18  C   UNL     1      11.598 -18.515  32.062  0.00  0.00    -0.033 A 
ATOM     28  C   UNL     1      12.264 -19.747  32.452  0.00  0.00    +0.005 A 
ATOM     29  C   UNL     1      11.530 -20.897  32.818  0.00  0.00    +0.013 A 
BRANCH  18  19
ATOM     19  C   UNL     1      12.482 -17.320  31.658  0.00  0.00    +0.119 C 
BRANCH  19  20
ATOM     20  N   UNL     1      12.803 -17.167  30.208  0.00  0.00    -0.302 NA
ATOM     21  C   UNL     1      11.603 -17.497  29.316  0.00  0.00    +0.066 C 
ATOM     22  C   UNL     1      11.950 -17.310  27.803  0.00  0.00    -0.064 C 
ATOM     23  N   UNL     1      13.150 -18.189  27.445  0.00  0.00    +0.379 N 
ATOM     24  C   UNL     1      13.443 -18.059  26.010  0.00  0.00    -0.096 C 
ATOM     25  H   UNL     1      12.862 -19.248  27.637  0.00  0.00    -0.082 HD
ATOM     26  C   UNL     1      14.347 -17.868  28.329  0.00  0.00    -0.064 C 
ATOM     27  C   UNL     1      13.983 -18.029  29.832  0.00  0.00    +0.066 C 
ENDBRANCH  19  20
ENDBRANCH  18  19
ENDBRANCH  14  15
ENDBRANCH  12  13
TORSDOF 6
ENDMDL
MODEL 4
REMARK VINA RESULT:      -7.7     19.649     24.604
REMARK  Name = C:\Users\Docking\Desktop\test protocol\1iep_ligandH.pdb
REMARK  8 active torsions:
REMARK  status: ('A' for Active; 'I' for Inactive)
REMARK    1  A    between atoms: _5  and  _11
REMARK    2  A    between atoms: _19  and  _21
REMARK    3  A    between atoms: _22  and  _66
REMARK    4  A    between atoms: _27  and  _30
REMARK    5  A    between atoms: _32  and  _33
REMARK    6  A    between atoms: _38  and  _43
REMARK    7  A    between atoms: _43  and  _46
REMARK    8  A    between atoms: _53  and  _55
REMARK                            x       y       z     vdW  Elec       q    Type
REMARK                         _______ _______ _______ _____ _____    ______ ____
ROOT
ATOM     10  C   UNL     1      -3.286   1.252  15.211  0.00  0.00    +0.038 A 
ATOM     11  C   UNL     1      -4.397   0.486  14.777  0.00  0.00    +0.047 A 
ATOM     12  C   UNL     1      -4.428  -0.111  13.451  0.00  0.00    +0.035 A 
ATOM     32  C   UNL     1      -3.307   0.090  12.593  0.00  0.00    +0.024 A 
ATOM     33  C   UNL     1      -2.169   0.867  13.018  0.00  0.00    +0.007 A 
ATOM     34  C   UNL     1      -2.135   1.460  14.324  0.00  0.00    -0.029 A 
ATOM     35  C   UNL     1      -0.891   2.288  14.724  0.00  0.00    +0.045 C 
ENDROOT
BRANCH  10   9
ATOM      4  C   UNL     1      -4.442   4.737  18.302  0.00  0.00    +0.077 A 
ATOM      5  C   UNL     1      -5.025   5.542  17.268  0.00  0.00    +0.048 A 
ATOM      6  C   UNL     1      -5.001   5.026  15.953  0.00  0.00    +0.116 A 
ATOM      7  N   UNL     1      -4.433   3.795  15.702  0.00  0.00    -0.223 NA
ATOM      8  C   UNL     1      -3.878   3.045  16.723  0.00  0.00    +0.220 A 
ATOM      9  N   UNL     1      -3.309   1.802  16.495  0.00  0.00    -0.283 N 
ATOM     36  H   UNL     1      -2.903   1.283  17.273  0.00  0.00    +0.155 HD
ATOM     37  N   UNL     1      -3.888   3.516  17.987  0.00  0.00    -0.214 NA
BRANCH   4   3
ATOM      1  C   UNL     1      -3.330   6.333  21.696  0.00  0.00    +0.020 A 
ATOM      2  C   UNL     1      -3.329   5.968  20.298  0.00  0.00    +0.013 A 
ATOM      3  C   UNL     1      -4.394   5.143  19.742  0.00  0.00    +0.019 A 
ATOM     38  C   UNL     1      -5.455   4.702  20.635  0.00  0.00    +0.120 A 
ATOM     39  N   UNL     1      -5.429   5.067  21.978  0.00  0.00    -0.263 NA
ATOM     40  C   UNL     1      -4.407   5.859  22.523  0.00  0.00    +0.111 A 
ENDBRANCH   4   3
ENDBRANCH  10   9
BRANCH  12  13
ATOM     13  N   UNL     1      -5.533  -0.892  12.952  0.00  0.00    -0.281 N 
ATOM     14  C   UNL     1      -6.551  -0.483  12.106  0.00  0.00    +0.248 C 
ATOM     30  O   UNL     1      -6.786   0.681  11.820  0.00  0.00    -0.270 OA
ATOM     31  H   UNL     1      -5.568  -1.864  13.259  0.00  0.00    +0.155 HD
BRANCH  14  15
ATOM     15  C   UNL     1      -7.448  -1.516  11.504  0.00  0.00    +0.037 A 
ATOM     16  C   UNL     1      -8.631  -1.137  10.728  0.00  0.00    +0.013 A 
ATOM     17  C   UNL     1      -9.488  -2.153  10.171  0.00  0.00    +0.005 A 
ATOM     18  C   UNL     1      -9.163  -3.561  10.389  0.00  0.00    -0.033 A 
ATOM     28  C   UNL     1      -7.981  -3.910  11.158  0.00  0.00    +0.005 A 
ATOM     29  C   UNL     1      -7.139  -2.916  11.706  0.00  0.00    +0.013 A 
BRANCH  18  19
ATOM     19  C   UNL     1     -10.033  -4.713   9.850  0.00  0.00    +0.119 C 
BRANCH  19  20
ATOM     20  N   UNL     1     -10.124  -4.865   8.368  0.00  0.00    -0.302 NA
ATOM     21  C   UNL     1     -11.487  -4.421   7.827  0.00  0.00    +0.066 C 
ATOM     22  C   UNL     1     -11.557  -4.566   6.272  0.00  0.00    -0.064 C 
ATOM     23  N   UNL     1     -11.267  -6.017   5.884  0.00  0.00    +0.379 N 
ATOM     24  C   UNL     1     -11.389  -6.169   4.427  0.00  0.00    -0.096 C 
ATOM     25  H   UNL     1     -12.048  -6.656   6.358  0.00  0.00    -0.082 HD
ATOM     26  C   UNL     1      -9.915  -6.467   6.420  0.00  0.00    -0.064 C 
ATOM     27  C   UNL     1      -9.846  -6.291   7.963  0.00  0.00    +0.066 C 
ENDBRANCH  19  20
ENDBRANCH  18  19
ENDBRANCH  14  15
ENDBRANCH  12  13
TORSDOF 6
ENDMDL
MODEL 5
REMARK VINA RESULT:      -7.6     24.049     26.656
REMARK  Name = C:\Users\Docking\Desktop\test protocol\1iep_ligandH.pdb
REMARK  8 active torsions:
REMARK  status: ('A' for Active; 'I' for Inactive)
REMARK    1  A    between atoms: _5  and  _11
REMARK    2  A    between atoms: _19  and  _21
REMARK    3  A    between atoms: _22  and  _66
REMARK    4  A    between atoms: _27  and  _30
REMARK    5  A    between atoms: _32  and  _33
REMARK    6  A    between atoms: _38  and  _43
REMARK    7  A    between atoms: _43  and  _46
REMARK    8  A    between atoms: _53  and  _55
REMARK                            x       y       z     vdW  Elec       q    Type
REMARK                         _______ _______ _______ _____ _____    ______ ____
ROOT
ATOM     10  C   UNL     1       7.884 -25.739  31.910  0.00  0.00    +0.038 A 
ATOM     11  C   UNL     1       8.447 -24.451  31.717  0.00  0.00    +0.047 A 
ATOM     12  C   UNL     1       8.154 -23.357  32.629  0.00  0.00    +0.035 A 
ATOM     32  C   UNL     1       7.284 -23.610  33.730  0.00  0.00    +0.024 A 
ATOM     33  C   UNL     1       6.702 -24.912  33.940  0.00  0.00    +0.007 A 
ATOM     34  C   UNL     1       6.986 -25.995  33.042  0.00  0.00    -0.029 A 
ATOM     35  C   UNL     1       6.328 -27.368  33.313  0.00  0.00    +0.045 C 
ENDROOT
BRANCH  10   9
ATOM      4  C   UNL     1       7.243 -28.050  27.752  0.00  0.00    +0.077 A 
ATOM      5  C   UNL     1       6.170 -27.180  27.365  0.00  0.00    +0.048 A 
ATOM      6  C   UNL     1       5.809 -26.154  28.268  0.00  0.00    +0.116 A 
ATOM      7  N   UNL     1       6.479 -26.018  29.465  0.00  0.00    -0.223 NA
ATOM      8  C   UNL     1       7.508 -26.876  29.808  0.00  0.00    +0.220 A 
ATOM      9  N   UNL     1       8.200 -26.753  31.003  0.00  0.00    -0.283 N 
ATOM     36  H   UNL     1       8.948 -27.410  31.222  0.00  0.00    +0.155 HD
ATOM     37  N   UNL     1       7.871 -27.864  28.964  0.00  0.00    -0.214 NA
BRANCH   4   3
ATOM      1  C   UNL     1       9.300 -30.160  25.179  0.00  0.00    +0.020 A 
ATOM      2  C   UNL     1       8.856 -29.038  25.975  0.00  0.00    +0.013 A 
ATOM      3  C   UNL     1       7.743 -29.178  26.904  0.00  0.00    +0.019 A 
ATOM     38  C   UNL     1       7.095 -30.477  27.007  0.00  0.00    +0.120 A 
ATOM     39  N   UNL     1       7.543 -31.539  26.227  0.00  0.00    -0.263 NA
ATOM     40  C   UNL     1       8.613 -31.415  25.328  0.00  0.00    +0.111 A 
ENDBRANCH   4   3
ENDBRANCH  10   9
BRANCH  12  13
ATOM     13  N   UNL     1       8.690 -22.027  32.480  0.00  0.00    -0.281 N 
ATOM     14  C   UNL     1       9.844 -21.506  33.040  0.00  0.00    +0.248 C 
ATOM     30  O   UNL     1      10.483 -22.044  33.933  0.00  0.00    -0.270 OA
ATOM     31  H   UNL     1       8.153 -21.392  31.889  0.00  0.00    +0.155 HD
BRANCH  14  15
ATOM     15  C   UNL     1      10.356 -20.191  32.548  0.00  0.00    +0.037 A 
ATOM     16  C   UNL     1       9.442 -19.095  32.218  0.00  0.00    +0.013 A 
ATOM     17  C   UNL     1       9.961 -17.842  31.729  0.00  0.00    +0.005 A 
ATOM     18  C   UNL     1      11.403 -17.678  31.569  0.00  0.00    -0.033 A 
ATOM     28  C   UNL     1      12.288 -18.780  31.909  0.00  0.00    +0.005 A 
ATOM     29  C   UNL     1      11.783 -20.010  32.387  0.00  0.00    +0.013 A 
BRANCH  18  19
ATOM     19  C   UNL     1      12.044 -16.384  31.034  0.00  0.00    +0.119 C 
BRANCH  19  20
ATOM     20  N   UNL     1      12.558 -16.404  29.632  0.00  0.00    -0.302 NA
ATOM     21  C   UNL     1      12.898 -15.000  29.125  0.00  0.00    +0.066 C 
ATOM     22  C   UNL     1      13.455 -15.042  27.665  0.00  0.00    -0.064 C 
ATOM     23  N   UNL     1      12.430 -15.714  26.750  0.00  0.00    +0.379 N 
ATOM     24  C   UNL     1      12.926 -15.703  25.366  0.00  0.00    -0.096 C 
ATOM     25  H   UNL     1      11.498 -15.104  26.780  0.00  0.00    -0.082 HD
ATOM     26  C   UNL     1      12.084 -17.110  27.249  0.00  0.00    -0.064 C 
ATOM     27  C   UNL     1      11.559 -17.060  28.711  0.00  0.00    +0.066 C 
ENDBRANCH  19  20
ENDBRANCH  18  19
ENDBRANCH  14  15
ENDBRANCH  12  13
TORSDOF 6
ENDMDL
