MODEL 1
REMARK VINA RESULT:      -7.3      0.000      0.000
REMARK  Name = C:\Users\Docking\Desktop\test protocol\1iep_ligandH.pdb
REMARK  8 active torsions:
REMARK  status: ('A' for Active; 'I' for Inactive)
REMARK    1  A    between atoms: _5  and  _11
REMARK    2  A    between atoms: _19  and  _21
REMARK    3  A    between atoms: _22  and  _66
REMARK    4  A    between atoms: _27  and  _30
REMARK    5  A    between atoms: _32  and  _33
REMARK    6  A    between atoms: _38  and  _43
REMARK    7  A    between atoms: _43  and  _46
REMARK    8  A    between atoms: _53  and  _55
REMARK                            x       y       z     vdW  Elec       q    Type
REMARK                         _______ _______ _______ _____ _____    ______ ____
ROOT
ATOM     10  C   UNL     1     -39.347   0.917 -53.137  0.00  0.00    +0.038 A 
ATOM     11  C   UNL     1     -39.448   1.663 -54.339  0.00  0.00    +0.047 A 
ATOM     12  C   UNL     1     -40.734   2.140 -54.824  0.00  0.00    +0.035 A 
ATOM     32  C   UNL     1     -41.897   1.841 -54.056  0.00  0.00    +0.024 A 
ATOM     33  C   UNL     1     -41.813   1.084 -52.832  0.00  0.00    +0.007 A 
ATOM     34  C   UNL     1     -40.547   0.609 -52.351  0.00  0.00    -0.029 A 
ATOM     35  C   UNL     1     -40.517  -0.204 -51.036  0.00  0.00    +0.045 C 
ENDROOT
BRANCH  10   9
ATOM      4  C   UNL     1     -35.762  -2.274 -53.108  0.00  0.00    +0.077 A 
ATOM      5  C   UNL     1     -36.471  -3.167 -53.978  0.00  0.00    +0.048 A 
ATOM      6  C   UNL     1     -37.759  -2.772 -54.405  0.00  0.00    +0.116 A 
ATOM      7  N   UNL     1     -38.287  -1.570 -53.986  0.00  0.00    -0.223 NA
ATOM      8  C   UNL     1     -37.577  -0.732 -53.146  0.00  0.00    +0.220 A 
ATOM      9  N   UNL     1     -38.086   0.485 -52.719  0.00  0.00    -0.283 N 
ATOM     36  H   UNL     1     -37.534   1.070 -52.093  0.00  0.00    +0.155 HD
ATOM     37  N   UNL     1     -36.347  -1.088 -52.723  0.00  0.00    -0.214 NA
BRANCH   4   3
ATOM      1  C   UNL     1     -32.799  -3.204 -50.729  0.00  0.00    +0.020 A 
ATOM      2  C   UNL     1     -34.143  -2.949 -51.194  0.00  0.00    +0.013 A 
ATOM      3  C   UNL     1     -34.391  -2.550 -52.574  0.00  0.00    +0.019 A 
ATOM     38  C   UNL     1     -33.248  -2.420 -53.465  0.00  0.00    +0.120 A 
ATOM     39  N   UNL     1     -31.965  -2.671 -52.989  0.00  0.00    -0.263 NA
ATOM     40  C   UNL     1     -31.714  -3.053 -51.663  0.00  0.00    +0.111 A 
ENDBRANCH   4   3
ENDBRANCH  10   9
BRANCH  12  13
ATOM     13  N   UNL     1     -40.899   2.894 -56.041  0.00  0.00    -0.281 N 
ATOM     14  C   UNL     1     -41.184   4.243 -56.176  0.00  0.00    +0.248 C 
ATOM     30  O   UNL     1     -41.553   4.965 -55.262  0.00  0.00    -0.270 OA
ATOM     31  H   UNL     1     -40.793   2.369 -56.910  0.00  0.00    +0.155 HD
BRANCH  14  15
ATOM     15  C   UNL     1     -41.054   4.878 -57.523  0.00  0.00    +0.037 A 
ATOM     16  C   UNL     1     -40.884   4.067 -58.731  0.00  0.00    +0.013 A 
ATOM     17  C   UNL     1     -40.744   4.706 -60.016  0.00  0.00    +0.005 A 
ATOM     18  C   UNL     1     -40.775   6.164 -60.098  0.00  0.00    -0.033 A 
ATOM     28  C   UNL     1     -40.950   6.943 -58.884  0.00  0.00    +0.005 A 
ATOM     29  C   UNL     1     -41.087   6.321 -57.623  0.00  0.00    +0.013 A 
BRANCH  18  19
ATOM     19  C   UNL     1     -40.612   6.931 -61.424  0.00  0.00    +0.119 C 
BRANCH  19  20
ATOM     20  N   UNL     1     -39.432   6.586 -62.273  0.00  0.00    -0.302 NA
ATOM     21  C   UNL     1     -38.131   6.562 -61.466  0.00  0.00    +0.066 C 
ATOM     22  C   UNL     1     -36.911   6.178 -62.364  0.00  0.00    -0.064 C 
ATOM     23  N   UNL     1     -36.808   7.164 -63.529  0.00  0.00    +0.379 N 
ATOM     24  C   UNL     1     -35.627   6.840 -64.343  0.00  0.00    -0.096 C 
ATOM     25  H   UNL     1     -36.653   8.181 -63.098  0.00  0.00    -0.082 HD
ATOM     26  C   UNL     1     -38.098   7.196 -64.335  0.00  0.00    -0.064 C 
ATOM     27  C   UNL     1     -39.309   7.550 -63.427  0.00  0.00    +0.066 C 
ENDBRANCH  19  20
ENDBRANCH  18  19
ENDBRANCH  14  15
ENDBRANCH  12  13
TORSDOF 6
ENDMDL
MODEL 2
REMARK VINA RESULT:      -7.1      2.019      2.965
REMARK  Name = C:\Users\Docking\Desktop\test protocol\1iep_ligandH.pdb
REMARK  8 active torsions:
REMARK  status: ('A' for Active; 'I' for Inactive)
REMARK    1  A    between atoms: _5  and  _11
REMARK    2  A    between atoms: _19  and  _21
REMARK    3  A    between atoms: _22  and  _66
REMARK    4  A    between atoms: _27  and  _30
REMARK    5  A    between atoms: _32  and  _33
REMARK    6  A    between atoms: _38  and  _43
REMARK    7  A    between atoms: _43  and  _46
REMARK    8  A    between atoms: _53  and  _55
REMARK                            x       y       z     vdW  Elec       q    Type
REMARK                         _______ _______ _______ _____ _____    ______ ____
ROOT
ATOM     10  C   UNL     1     -40.661   2.159 -54.888  0.00  0.00    +0.038 A 
ATOM     11  C   UNL     1     -40.392   2.917 -56.055  0.00  0.00    +0.047 A 
ATOM     12  C   UNL     1     -41.466   3.551 -56.805  0.00  0.00    +0.035 A 
ATOM     32  C   UNL     1     -42.802   3.394 -56.335  0.00  0.00    +0.024 A 
ATOM     33  C   UNL     1     -43.094   2.625 -55.150  0.00  0.00    +0.007 A 
ATOM     34  C   UNL     1     -42.039   1.996 -54.408  0.00  0.00    -0.029 A 
ATOM     35  C   UNL     1     -42.410   1.178 -53.149  0.00  0.00    +0.045 C 
ENDROOT
BRANCH  10   9
ATOM      4  C   UNL     1     -37.392  -1.311 -54.327  0.00  0.00    +0.077 A 
ATOM      5  C   UNL     1     -37.872  -2.029 -55.472  0.00  0.00    +0.048 A 
ATOM      6  C   UNL     1     -38.967  -1.476 -56.174  0.00  0.00    +0.116 A 
ATOM      7  N   UNL     1     -39.531  -0.291 -55.753  0.00  0.00    -0.223 NA
ATOM      8  C   UNL     1     -39.045   0.375 -54.643  0.00  0.00    +0.220 A 
ATOM      9  N   UNL     1     -39.592   1.572 -54.207  0.00  0.00    -0.283 N 
ATOM     36  H   UNL     1     -39.209   2.029 -53.379  0.00  0.00    +0.155 HD
ATOM     37  N   UNL     1     -38.002  -0.133 -53.956  0.00  0.00    -0.214 NA
BRANCH   4   3
ATOM      1  C   UNL     1     -35.237  -2.553 -51.309  0.00  0.00    +0.020 A 
ATOM      2  C   UNL     1     -36.381  -2.119 -52.078  0.00  0.00    +0.013 A 
ATOM      3  C   UNL     1     -36.241  -1.766 -53.485  0.00  0.00    +0.019 A 
ATOM     38  C   UNL     1     -34.921  -1.864 -54.089  0.00  0.00    +0.120 A 
ATOM     39  N   UNL     1     -33.838  -2.284 -53.323  0.00  0.00    -0.263 NA
ATOM     40  C   UNL     1     -33.959  -2.625 -51.968  0.00  0.00    +0.111 A 
ENDBRANCH   4   3
ENDBRANCH  10   9
BRANCH  12  13
ATOM     13  N   UNL     1     -41.255   4.326 -58.002  0.00  0.00    -0.281 N 
ATOM     14  C   UNL     1     -41.063   5.694 -58.108  0.00  0.00    +0.248 C 
ATOM     30  O   UNL     1     -41.258   6.491 -57.203  0.00  0.00    -0.270 OA
ATOM     31  H   UNL     1     -41.245   3.803 -58.878  0.00  0.00    +0.155 HD
BRANCH  14  15
ATOM     15  C   UNL     1     -40.602   6.259 -59.413  0.00  0.00    +0.037 A 
ATOM     16  C   UNL     1     -39.286   5.924 -59.963  0.00  0.00    +0.013 A 
ATOM     17  C   UNL     1     -38.859   6.497 -61.215  0.00  0.00    +0.005 A 
ATOM     18  C   UNL     1     -39.750   7.411 -61.926  0.00  0.00    -0.033 A 
ATOM     28  C   UNL     1     -41.052   7.722 -61.359  0.00  0.00    +0.005 A 
ATOM     29  C   UNL     1     -41.474   7.163 -60.132  0.00  0.00    +0.013 A 
BRANCH  18  19
ATOM     19  C   UNL     1     -39.368   8.085 -63.257  0.00  0.00    +0.119 C 
BRANCH  19  20
ATOM     20  N   UNL     1     -40.055   7.599 -64.491  0.00  0.00    -0.302 NA
ATOM     21  C   UNL     1     -40.419   6.115 -64.400  0.00  0.00    +0.066 C 
ATOM     22  C   UNL     1     -41.157   5.629 -65.690  0.00  0.00    -0.064 C 
ATOM     23  N   UNL     1     -40.274   5.897 -66.911  0.00  0.00    +0.379 N 
ATOM     24  C   UNL     1     -40.941   5.389 -68.119  0.00  0.00    -0.096 C 
ATOM     25  H   UNL     1     -39.329   5.320 -66.777  0.00  0.00    -0.082 HD
ATOM     26  C   UNL     1     -39.906   7.371 -67.007  0.00  0.00    -0.064 C 
ATOM     27  C   UNL     1     -39.200   7.850 -65.708  0.00  0.00    +0.066 C 
ENDBRANCH  19  20
ENDBRANCH  18  19
ENDBRANCH  14  15
ENDBRANCH  12  13
TORSDOF 6
ENDMDL
MODEL 3
REMARK VINA RESULT:      -7.1     31.532     37.358
REMARK  Name = C:\Users\Docking\Desktop\test protocol\1iep_ligandH.pdb
REMARK  8 active torsions:
REMARK  status: ('A' for Active; 'I' for Inactive)
REMARK    1  A    between atoms: _5  and  _11
REMARK    2  A    between atoms: _19  and  _21
REMARK    3  A    between atoms: _22  and  _66
REMARK    4  A    between atoms: _27  and  _30
REMARK    5  A    between atoms: _32  and  _33
REMARK    6  A    between atoms: _38  and  _43
REMARK    7  A    between atoms: _43  and  _46
REMARK    8  A    between atoms: _53  and  _55
REMARK                            x       y       z     vdW  Elec       q    Type
REMARK                         _______ _______ _______ _____ _____    ______ ____
ROOT
ATOM     10  C   UNL     1     -11.883  31.079 -59.318  0.00  0.00    +0.038 A 
ATOM     11  C   UNL     1     -12.864  30.102 -59.012  0.00  0.00    +0.047 A 
ATOM     12  C   UNL     1     -12.706  28.719 -59.434  0.00  0.00    +0.035 A 
ATOM     32  C   UNL     1     -11.534  28.365 -60.162  0.00  0.00    +0.024 A 
ATOM     33  C   UNL     1     -10.526  29.345 -60.482  0.00  0.00    +0.007 A 
ATOM     34  C   UNL     1     -10.678  30.712 -60.072  0.00  0.00    -0.029 A 
ATOM     35  C   UNL     1      -9.569  31.722 -60.448  0.00  0.00    +0.045 C 
ENDROOT
BRANCH  10   9
ATOM      4  C   UNL     1     -14.228  35.264 -59.462  0.00  0.00    +0.077 A 
ATOM      5  C   UNL     1     -15.106  34.804 -60.499  0.00  0.00    +0.048 A 
ATOM      6  C   UNL     1     -14.916  33.487 -60.973  0.00  0.00    +0.116 A 
ATOM      7  N   UNL     1     -13.920  32.697 -60.442  0.00  0.00    -0.223 NA
ATOM      8  C   UNL     1     -13.089  33.172 -59.443  0.00  0.00    +0.220 A 
ATOM      9  N   UNL     1     -12.086  32.393 -58.888  0.00  0.00    -0.283 N 
ATOM     36  H   UNL     1     -11.490  32.783 -58.159  0.00  0.00    +0.155 HD
ATOM     37  N   UNL     1     -13.249  34.427 -58.975  0.00  0.00    -0.214 NA
BRANCH   4   3
ATOM      1  C   UNL     1     -13.530  39.020 -58.620  0.00  0.00    +0.020 A 
ATOM      2  C   UNL     1     -13.413  37.719 -59.237  0.00  0.00    +0.013 A 
ATOM      3  C   UNL     1     -14.305  36.631 -58.855  0.00  0.00    +0.019 A 
ATOM     38  C   UNL     1     -15.313  36.895 -57.840  0.00  0.00    +0.120 A 
ATOM     39  N   UNL     1     -15.401  38.158 -57.262  0.00  0.00    -0.263 NA
ATOM     40  C   UNL     1     -14.547  39.212 -57.620  0.00  0.00    +0.111 A 
ENDBRANCH   4   3
ENDBRANCH  10   9
BRANCH  12  13
ATOM     13  N   UNL     1     -13.673  27.685 -59.160  0.00  0.00    -0.281 N 
ATOM     14  C   UNL     1     -14.552  27.085 -60.046  0.00  0.00    +0.248 C 
ATOM     30  O   UNL     1     -14.789  27.498 -61.171  0.00  0.00    -0.270 OA
ATOM     31  H   UNL     1     -13.715  27.356 -58.195  0.00  0.00    +0.155 HD
BRANCH  14  15
ATOM     15  C   UNL     1     -15.284  25.855 -59.615  0.00  0.00    +0.037 A 
ATOM     16  C   UNL     1     -14.617  24.551 -59.565  0.00  0.00    +0.013 A 
ATOM     17  C   UNL     1     -15.352  23.378 -59.162  0.00  0.00    +0.005 A 
ATOM     18  C   UNL     1     -16.763  23.504 -58.804  0.00  0.00    -0.033 A 
ATOM     28  C   UNL     1     -17.398  24.810 -58.858  0.00  0.00    +0.005 A 
ATOM     29  C   UNL     1     -16.682  25.962 -59.253  0.00  0.00    +0.013 A 
BRANCH  18  19
ATOM     19  C   UNL     1     -17.629  22.303 -58.383  0.00  0.00    +0.119 C 
BRANCH  19  20
ATOM     20  N   UNL     1     -18.689  21.857 -59.336  0.00  0.00    -0.302 NA
ATOM     21  C   UNL     1     -20.073  22.379 -58.940  0.00  0.00    +0.066 C 
ATOM     22  C   UNL     1     -21.167  21.922 -59.959  0.00  0.00    -0.064 C 
ATOM     23  N   UNL     1     -21.170  20.395 -60.050  0.00  0.00    +0.379 N 
ATOM     24  C   UNL     1     -22.236  19.960 -60.964  0.00  0.00    -0.096 C 
ATOM     25  H   UNL     1     -21.409  19.997 -59.037  0.00  0.00    -0.082 HD
ATOM     26  C   UNL     1     -19.796  19.867 -60.441  0.00  0.00    -0.064 C 
ATOM     27  C   UNL     1     -18.712  20.352 -59.438  0.00  0.00    +0.066 C 
ENDBRANCH  19  20
ENDBRANCH  18  19
ENDBRANCH  14  15
ENDBRANCH  12  13
TORSDOF 6
ENDMDL
MODEL 4
REMARK VINA RESULT:      -6.7     16.028     17.967
REMARK  Name = C:\Users\Docking\Desktop\test protocol\1iep_ligandH.pdb
REMARK  8 active torsions:
REMARK  status: ('A' for Active; 'I' for Inactive)
REMARK    1  A    between atoms: _5  and  _11
REMARK    2  A    between atoms: _19  and  _21
REMARK    3  A    between atoms: _22  and  _66
REMARK    4  A    between atoms: _27  and  _30
REMARK    5  A    between atoms: _32  and  _33
REMARK    6  A    between atoms: _38  and  _43
REMARK    7  A    between atoms: _43  and  _46
REMARK    8  A    between atoms: _53  and  _55
REMARK                            x       y       z     vdW  Elec       q    Type
REMARK                         _______ _______ _______ _____ _____    ______ ____
ROOT
ATOM     10  C   UNL     1     -21.169   5.849 -48.723  0.00  0.00    +0.038 A 
ATOM     11  C   UNL     1     -21.631   6.559 -49.860  0.00  0.00    +0.047 A 
ATOM     12  C   UNL     1     -21.144   7.896 -50.162  0.00  0.00    +0.035 A 
ATOM     32  C   UNL     1     -20.184   8.479 -49.284  0.00  0.00    +0.024 A 
ATOM     33  C   UNL     1     -19.704   7.771 -48.123  0.00  0.00    +0.007 A 
ATOM     34  C   UNL     1     -20.183   6.453 -47.819  0.00  0.00    -0.029 A 
ATOM     35  C   UNL     1     -19.638   5.744 -46.557  0.00  0.00    +0.045 C 
ENDROOT
BRANCH  10   9
ATOM      4  C   UNL     1     -24.255   2.840 -46.609  0.00  0.00    +0.077 A 
ATOM      5  C   UNL     1     -24.906   3.908 -45.906  0.00  0.00    +0.048 A 
ATOM      6  C   UNL     1     -24.411   5.216 -46.110  0.00  0.00    +0.116 A 
ATOM      7  N   UNL     1     -23.345   5.428 -46.957  0.00  0.00    -0.223 NA
ATOM      8  C   UNL     1     -22.739   4.376 -47.619  0.00  0.00    +0.220 A 
ATOM      9  N   UNL     1     -21.671   4.568 -48.481  0.00  0.00    -0.283 N 
ATOM     36  H   UNL     1     -21.247   3.765 -48.945  0.00  0.00    +0.155 HD
ATOM     37  N   UNL     1     -23.192   3.118 -47.440  0.00  0.00    -0.214 NA
BRANCH   4   3
ATOM      1  C   UNL     1     -25.111  -0.874 -47.486  0.00  0.00    +0.020 A 
ATOM      2  C   UNL     1     -24.710   0.504 -47.646  0.00  0.00    +0.013 A 
ATOM      3  C   UNL     1     -24.664   1.404 -46.500  0.00  0.00    +0.019 A 
ATOM     38  C   UNL     1     -25.033   0.874 -45.197  0.00  0.00    +0.120 A 
ATOM     39  N   UNL     1     -25.417  -0.458 -45.073  0.00  0.00    -0.263 NA
ATOM     40  C   UNL     1     -25.466  -1.333 -46.169  0.00  0.00    +0.111 A 
ENDBRANCH   4   3
ENDBRANCH  10   9
BRANCH  12  13
ATOM     13  N   UNL     1     -21.583   8.669 -51.297  0.00  0.00    -0.281 N 
ATOM     14  C   UNL     1     -22.343   9.827 -51.297  0.00  0.00    +0.248 C 
ATOM     30  O   UNL     1     -22.945  10.258 -50.325  0.00  0.00    -0.270 OA
ATOM     31  H   UNL     1     -21.298   8.320 -52.212  0.00  0.00    +0.155 HD
BRANCH  14  15
ATOM     15  C   UNL     1     -22.465  10.611 -52.563  0.00  0.00    +0.037 A 
ATOM     16  C   UNL     1     -22.183  10.001 -53.865  0.00  0.00    +0.013 A 
ATOM     17  C   UNL     1     -22.291  10.785 -55.070  0.00  0.00    +0.005 A 
ATOM     18  C   UNL     1     -22.685  12.189 -54.978  0.00  0.00    -0.033 A 
ATOM     28  C   UNL     1     -22.964  12.767 -53.674  0.00  0.00    +0.005 A 
ATOM     29  C   UNL     1     -22.858  12.002 -52.491  0.00  0.00    +0.013 A 
BRANCH  18  19
ATOM     19  C   UNL     1     -22.805  13.106 -56.209  0.00  0.00    +0.119 C 
BRANCH  19  20
ATOM     20  N   UNL     1     -22.149  12.648 -57.470  0.00  0.00    -0.302 NA
ATOM     21  C   UNL     1     -21.107  13.651 -57.973  0.00  0.00    +0.066 C 
ATOM     22  C   UNL     1     -20.415  13.146 -59.280  0.00  0.00    -0.064 C 
ATOM     23  N   UNL     1     -21.477  12.886 -60.350  0.00  0.00    +0.379 N 
ATOM     24  C   UNL     1     -20.824  12.466 -61.598  0.00  0.00    -0.096 C 
ATOM     25  H   UNL     1     -21.999  13.850 -60.549  0.00  0.00    -0.082 HD
ATOM     26  C   UNL     1     -22.518  11.891 -59.857  0.00  0.00    -0.064 C 
ATOM     27  C   UNL     1     -23.179  12.389 -58.541  0.00  0.00    +0.066 C 
ENDBRANCH  19  20
ENDBRANCH  18  19
ENDBRANCH  14  15
ENDBRANCH  12  13
TORSDOF 6
ENDMDL
MODEL 5
REMARK VINA RESULT:      -6.5     41.026     43.887
REMARK  Name = C:\Users\Docking\Desktop\test protocol\1iep_ligandH.pdb
REMARK  8 active torsions:
REMARK  status: ('A' for Active; 'I' for Inactive)
REMARK    1  A    between atoms: _5  and  _11
REMARK    2  A    between atoms: _19  and  _21
REMARK    3  A    between atoms: _22  and  _66
REMARK    4  A    between atoms: _27  and  _30
REMARK    5  A    between atoms: _32  and  _33
REMARK    6  A    between atoms: _38  and  _43
REMARK    7  A    between atoms: _43  and  _46
REMARK    8  A    between atoms: _53  and  _55
REMARK                            x       y       z     vdW  Elec       q    Type
REMARK                         _______ _______ _______ _____ _____    ______ ____
ROOT
ATOM     10  C   UNL     1     -22.056  38.614 -47.959  0.00  0.00    +0.038 A 
ATOM     11  C   UNL     1     -20.819  39.230 -47.638  0.00  0.00    +0.047 A 
ATOM     12  C   UNL     1     -20.707  40.152 -46.519  0.00  0.00    +0.035 A 
ATOM     32  C   UNL     1     -21.873  40.422 -45.746  0.00  0.00    +0.024 A 
ATOM     33  C   UNL     1     -23.138  39.806 -46.059  0.00  0.00    +0.007 A 
ATOM     34  C   UNL     1     -23.256  38.897 -47.163  0.00  0.00    -0.029 A 
ATOM     35  C   UNL     1     -24.639  38.271 -47.457  0.00  0.00    +0.045 C 
ENDROOT
BRANCH  10   9
ATOM      4  C   UNL     1     -21.619  34.243 -49.893  0.00  0.00    +0.077 A 
ATOM      5  C   UNL     1     -21.230  33.663 -48.640  0.00  0.00    +0.048 A 
ATOM      6  C   UNL     1     -21.147  34.525 -47.524  0.00  0.00    +0.116 A 
ATOM      7  N   UNL     1     -21.435  35.866 -47.662  0.00  0.00    -0.223 NA
ATOM      8  C   UNL     1     -21.806  36.393 -48.885  0.00  0.00    +0.220 A 
ATOM      9  N   UNL     1     -22.107  37.737 -49.045  0.00  0.00    -0.283 N 
ATOM     36  H   UNL     1     -22.370  38.089 -49.965  0.00  0.00    +0.155 HD
ATOM     37  N   UNL     1     -21.891  35.591 -49.967  0.00  0.00    -0.214 NA
BRANCH   4   3
ATOM      1  C   UNL     1     -23.115  32.451 -53.032  0.00  0.00    +0.020 A 
ATOM      2  C   UNL     1     -23.039  33.212 -51.806  0.00  0.00    +0.013 A 
ATOM      3  C   UNL     1     -21.755  33.462 -51.163  0.00  0.00    +0.019 A 
ATOM     38  C   UNL     1     -20.557  32.924 -51.791  0.00  0.00    +0.120 A 
ATOM     39  N   UNL     1     -20.662  32.194 -52.971  0.00  0.00    -0.263 NA
ATOM     40  C   UNL     1     -21.892  31.946 -53.598  0.00  0.00    +0.111 A 
ENDBRANCH   4   3
ENDBRANCH  10   9
BRANCH  12  13
ATOM     13  N   UNL     1     -19.480  40.814 -46.150  0.00  0.00    -0.281 N 
ATOM     14  C   UNL     1     -18.758  41.741 -46.884  0.00  0.00    +0.248 C 
ATOM     30  O   UNL     1     -18.946  41.983 -48.067  0.00  0.00    -0.270 OA
ATOM     31  H   UNL     1     -19.097  40.570 -45.236  0.00  0.00    +0.155 HD
BRANCH  14  15
ATOM     15  C   UNL     1     -17.659  42.497 -46.211  0.00  0.00    +0.037 A 
ATOM     16  C   UNL     1     -17.526  42.508 -44.752  0.00  0.00    +0.013 A 
ATOM     17  C   UNL     1     -16.467  43.260 -44.127  0.00  0.00    +0.005 A 
ATOM     18  C   UNL     1     -15.530  44.007 -44.963  0.00  0.00    -0.033 A 
ATOM     28  C   UNL     1     -15.681  43.974 -46.408  0.00  0.00    +0.005 A 
ATOM     29  C   UNL     1     -16.719  43.239 -47.024  0.00  0.00    +0.013 A 
BRANCH  18  19
ATOM     19  C   UNL     1     -14.382  44.853 -44.381  0.00  0.00    +0.119 C 
BRANCH  19  20
ATOM     20  N   UNL     1     -13.530  44.221 -43.331  0.00  0.00    -0.302 NA
ATOM     21  C   UNL     1     -12.474  45.188 -42.788  0.00  0.00    +0.066 C 
ATOM     22  C   UNL     1     -11.606  44.516 -41.674  0.00  0.00    -0.064 C 
ATOM     23  N   UNL     1     -10.948  43.255 -42.235  0.00  0.00    +0.379 N 
ATOM     24  C   UNL     1     -10.085  42.653 -41.208  0.00  0.00    -0.096 C 
ATOM     25  H   UNL     1     -10.296  43.564 -43.086  0.00  0.00    -0.082 HD
ATOM     26  C   UNL     1     -11.990  42.289 -42.780  0.00  0.00    -0.064 C 
ATOM     27  C   UNL     1     -12.867  42.975 -43.865  0.00  0.00    +0.066 C 
ENDBRANCH  19  20
ENDBRANCH  18  19
ENDBRANCH  14  15
ENDBRANCH  12  13
TORSDOF 6
ENDMDL
