MODEL 1
REMARK VINA RESULT:      -8.9      0.000      0.000
REMARK  Name = C:\Users\Docking\Desktop\test protocol\1iep_ligandH.pdb
REMARK  8 active torsions:
REMARK  status: ('A' for Active; 'I' for Inactive)
REMARK    1  A    between atoms: _5  and  _11
REMARK    2  A    between atoms: _19  and  _21
REMARK    3  A    between atoms: _22  and  _66
REMARK    4  A    between atoms: _27  and  _30
REMARK    5  A    between atoms: _32  and  _33
REMARK    6  A    between atoms: _38  and  _43
REMARK    7  A    between atoms: _43  and  _46
REMARK    8  A    between atoms: _53  and  _55
REMARK                            x       y       z     vdW  Elec       q    Type
REMARK                         _______ _______ _______ _____ _____    ______ ____
ROOT
ATOM     10  C   UNL     1     -24.063  31.141  25.685  0.00  0.00    +0.038 A 
ATOM     11  C   UNL     1     -23.745  30.507  26.913  0.00  0.00    +0.047 A 
ATOM     12  C   UNL     1     -22.953  31.185  27.927  0.00  0.00    +0.035 A 
ATOM     32  C   UNL     1     -22.502  32.510  27.658  0.00  0.00    +0.024 A 
ATOM     33  C   UNL     1     -22.814  33.169  26.414  0.00  0.00    +0.007 A 
ATOM     34  C   UNL     1     -23.594  32.505  25.410  0.00  0.00    -0.029 A 
ATOM     35  C   UNL     1     -23.893  33.257  24.092  0.00  0.00    +0.045 C 
ENDROOT
BRANCH  10   9
ATOM      4  C   UNL     1     -24.486  28.260  21.869  0.00  0.00    +0.077 A 
ATOM      5  C   UNL     1     -23.063  28.158  21.715  0.00  0.00    +0.048 A 
ATOM      6  C   UNL     1     -22.258  28.867  22.634  0.00  0.00    +0.116 A 
ATOM      7  N   UNL     1     -22.843  29.620  23.629  0.00  0.00    -0.223 NA
ATOM      8  C   UNL     1     -24.218  29.699  23.749  0.00  0.00    +0.220 A 
ATOM      9  N   UNL     1     -24.827  30.444  24.747  0.00  0.00    -0.283 N 
ATOM     36  H   UNL     1     -25.845  30.483  24.797  0.00  0.00    +0.155 HD
ATOM     37  N   UNL     1     -25.009  29.032  22.883  0.00  0.00    -0.214 NA
BRANCH   4   3
ATOM      1  C   UNL     1     -27.308  25.892  20.555  0.00  0.00    +0.020 A 
ATOM      2  C   UNL     1     -26.377  26.531  21.456  0.00  0.00    +0.013 A 
ATOM      3  C   UNL     1     -25.469  27.566  20.979  0.00  0.00    +0.019 A 
ATOM     38  C   UNL     1     -25.530  27.936  19.573  0.00  0.00    +0.120 A 
ATOM     39  N   UNL     1     -26.436  27.303  18.728  0.00  0.00    -0.263 NA
ATOM     40  C   UNL     1     -27.313  26.304  19.176  0.00  0.00    +0.111 A 
ENDBRANCH   4   3
ENDBRANCH  10   9
BRANCH  12  13
ATOM     13  N   UNL     1     -22.592  30.589  29.190  0.00  0.00    -0.281 N 
ATOM     14  C   UNL     1     -23.022  30.950  30.456  0.00  0.00    +0.248 C 
ATOM     30  O   UNL     1     -23.620  31.984  30.714  0.00  0.00    -0.270 OA
ATOM     31  H   UNL     1     -21.941  29.805  29.144  0.00  0.00    +0.155 HD
BRANCH  14  15
ATOM     15  C   UNL     1     -22.733  30.038  31.604  0.00  0.00    +0.037 A 
ATOM     16  C   UNL     1     -23.242  30.324  32.948  0.00  0.00    +0.013 A 
ATOM     17  C   UNL     1     -22.934  29.437  34.042  0.00  0.00    +0.005 A 
ATOM     18  C   UNL     1     -22.114  28.253  33.795  0.00  0.00    -0.033 A 
ATOM     28  C   UNL     1     -21.627  27.991  32.450  0.00  0.00    +0.005 A 
ATOM     29  C   UNL     1     -21.926  28.859  31.376  0.00  0.00    +0.013 A 
BRANCH  18  19
ATOM     19  C   UNL     1     -21.719  27.262  34.906  0.00  0.00    +0.119 C 
BRANCH  19  20
ATOM     20  N   UNL     1     -20.901  26.078  34.507  0.00  0.00    -0.302 NA
ATOM     21  C   UNL     1     -21.774  24.880  34.125  0.00  0.00    +0.066 C 
ATOM     22  C   UNL     1     -20.903  23.657  33.689  0.00  0.00    -0.064 C 
ATOM     23  N   UNL     1     -19.943  23.288  34.821  0.00  0.00    +0.379 N 
ATOM     24  C   UNL     1     -19.163  22.103  34.437  0.00  0.00    -0.096 C 
ATOM     25  H   UNL     1     -20.558  23.015  35.710  0.00  0.00    -0.082 HD
ATOM     26  C   UNL     1     -19.073  24.476  35.209  0.00  0.00    -0.064 C 
ATOM     27  C   UNL     1     -19.949  25.695  35.613  0.00  0.00    +0.066 C 
ENDBRANCH  19  20
ENDBRANCH  18  19
ENDBRANCH  14  15
ENDBRANCH  12  13
TORSDOF 6
ENDMDL
MODEL 2
REMARK VINA RESULT:      -8.7     15.224     21.044
REMARK  Name = C:\Users\Docking\Desktop\test protocol\1iep_ligandH.pdb
REMARK  8 active torsions:
REMARK  status: ('A' for Active; 'I' for Inactive)
REMARK    1  A    between atoms: _5  and  _11
REMARK    2  A    between atoms: _19  and  _21
REMARK    3  A    between atoms: _22  and  _66
REMARK    4  A    between atoms: _27  and  _30
REMARK    5  A    between atoms: _32  and  _33
REMARK    6  A    between atoms: _38  and  _43
REMARK    7  A    between atoms: _43  and  _46
REMARK    8  A    between atoms: _53  and  _55
REMARK                            x       y       z     vdW  Elec       q    Type
REMARK                         _______ _______ _______ _____ _____    ______ ____
ROOT
ATOM     10  C   UNL     1     -10.903  20.555  36.293  0.00  0.00    +0.038 A 
ATOM     11  C   UNL     1      -9.535  20.196  36.395  0.00  0.00    +0.047 A 
ATOM     12  C   UNL     1      -8.758  20.522  37.580  0.00  0.00    +0.035 A 
ATOM     32  C   UNL     1      -9.407  21.212  38.645  0.00  0.00    +0.024 A 
ATOM     33  C   UNL     1     -10.797  21.585  38.558  0.00  0.00    +0.007 A 
ATOM     34  C   UNL     1     -11.568  21.269  37.390  0.00  0.00    -0.029 A 
ATOM     35  C   UNL     1     -13.053  21.699  37.349  0.00  0.00    +0.045 C 
ENDROOT
BRANCH  10   9
ATOM      4  C   UNL     1     -12.774  17.336  33.264  0.00  0.00    +0.077 A 
ATOM      5  C   UNL     1     -12.296  16.233  34.047  0.00  0.00    +0.048 A 
ATOM      6  C   UNL     1     -11.567  16.537  35.219  0.00  0.00    +0.116 A 
ATOM      7  N   UNL     1     -11.339  17.850  35.571  0.00  0.00    -0.223 NA
ATOM      8  C   UNL     1     -11.813  18.890  34.792  0.00  0.00    +0.220 A 
ATOM      9  N   UNL     1     -11.602  20.218  35.132  0.00  0.00    -0.283 N 
ATOM     36  H   UNL     1     -11.961  20.956  34.527  0.00  0.00    +0.155 HD
ATOM     37  N   UNL     1     -12.510  18.626  33.668  0.00  0.00    -0.214 NA
BRANCH   4   3
ATOM      1  C   UNL     1     -15.142  15.910  30.496  0.00  0.00    +0.020 A 
ATOM      2  C   UNL     1     -14.400  16.015  31.731  0.00  0.00    +0.013 A 
ATOM      3  C   UNL     1     -13.563  17.177  32.001  0.00  0.00    +0.019 A 
ATOM     38  C   UNL     1     -13.498  18.224  30.993  0.00  0.00    +0.120 A 
ATOM     39  N   UNL     1     -14.223  18.095  29.812  0.00  0.00    -0.263 NA
ATOM     40  C   UNL     1     -15.030  16.980  29.541  0.00  0.00    +0.111 A 
ENDBRANCH   4   3
ENDBRANCH  10   9
BRANCH  12  13
ATOM     13  N   UNL     1      -7.363  20.190  37.737  0.00  0.00    -0.281 N 
ATOM     14  C   UNL     1      -6.801  18.937  37.913  0.00  0.00    +0.248 C 
ATOM     30  O   UNL     1      -7.434  17.926  38.179  0.00  0.00    -0.270 OA
ATOM     31  H   UNL     1      -6.712  20.975  37.714  0.00  0.00    +0.155 HD
BRANCH  14  15
ATOM     15  C   UNL     1      -5.318  18.787  37.792  0.00  0.00    +0.037 A 
ATOM     16  C   UNL     1      -4.636  18.992  36.512  0.00  0.00    +0.013 A 
ATOM     17  C   UNL     1      -3.208  18.825  36.418  0.00  0.00    +0.005 A 
ATOM     18  C   UNL     1      -2.451  18.451  37.611  0.00  0.00    -0.033 A 
ATOM     28  C   UNL     1      -3.152  18.258  38.869  0.00  0.00    +0.005 A 
ATOM     29  C   UNL     1      -4.553  18.421  38.964  0.00  0.00    +0.013 A 
BRANCH  18  19
ATOM     19  C   UNL     1      -0.927  18.230  37.599  0.00  0.00    +0.119 C 
BRANCH  19  20
ATOM     20  N   UNL     1      -0.191  18.471  38.876  0.00  0.00    -0.302 NA
ATOM     21  C   UNL     1       1.069  19.315  38.663  0.00  0.00    +0.066 C 
ATOM     22  C   UNL     1       1.814  19.577  40.012  0.00  0.00    -0.064 C 
ATOM     23  N   UNL     1       2.163  18.239  40.666  0.00  0.00    +0.379 N 
ATOM     24  C   UNL     1       2.915  18.481  41.906  0.00  0.00    -0.096 C 
ATOM     25  H   UNL     1       2.832  17.686  39.968  0.00  0.00    -0.082 HD
ATOM     26  C   UNL     1       0.916  17.393  40.880  0.00  0.00    -0.064 C 
ATOM     27  C   UNL     1       0.167  17.163  39.537  0.00  0.00    +0.066 C 
ENDBRANCH  19  20
ENDBRANCH  18  19
ENDBRANCH  14  15
ENDBRANCH  12  13
TORSDOF 6
ENDMDL
MODEL 3
REMARK VINA RESULT:      -8.7     15.165     20.916
REMARK  Name = C:\Users\Docking\Desktop\test protocol\1iep_ligandH.pdb
REMARK  8 active torsions:
REMARK  status: ('A' for Active; 'I' for Inactive)
REMARK    1  A    between atoms: _5  and  _11
REMARK    2  A    between atoms: _19  and  _21
REMARK    3  A    between atoms: _22  and  _66
REMARK    4  A    between atoms: _27  and  _30
REMARK    5  A    between atoms: _32  and  _33
REMARK    6  A    between atoms: _38  and  _43
REMARK    7  A    between atoms: _43  and  _46
REMARK    8  A    between atoms: _53  and  _55
REMARK                            x       y       z     vdW  Elec       q    Type
REMARK                         _______ _______ _______ _____ _____    ______ ____
ROOT
ATOM     10  C   UNL     1     -10.862  20.581  36.254  0.00  0.00    +0.038 A 
ATOM     11  C   UNL     1      -9.495  20.221  36.376  0.00  0.00    +0.047 A 
ATOM     12  C   UNL     1      -8.739  20.537  37.577  0.00  0.00    +0.035 A 
ATOM     32  C   UNL     1      -9.406  21.218  38.637  0.00  0.00    +0.024 A 
ATOM     33  C   UNL     1     -10.795  21.592  38.529  0.00  0.00    +0.007 A 
ATOM     34  C   UNL     1     -11.546  21.285  37.345  0.00  0.00    -0.029 A 
ATOM     35  C   UNL     1     -13.029  21.716  37.282  0.00  0.00    +0.045 C 
ENDROOT
BRANCH  10   9
ATOM      4  C   UNL     1     -12.745  17.388  33.204  0.00  0.00    +0.077 A 
ATOM      5  C   UNL     1     -12.318  16.280  34.008  0.00  0.00    +0.048 A 
ATOM      6  C   UNL     1     -11.610  16.574  35.195  0.00  0.00    +0.116 A 
ATOM      7  N   UNL     1     -11.355  17.882  35.543  0.00  0.00    -0.223 NA
ATOM      8  C   UNL     1     -11.779  18.928  34.744  0.00  0.00    +0.220 A 
ATOM      9  N   UNL     1     -11.540  20.252  35.078  0.00  0.00    -0.283 N 
ATOM     36  H   UNL     1     -11.863  20.995  34.458  0.00  0.00    +0.155 HD
ATOM     37  N   UNL     1     -12.456  18.674  33.604  0.00  0.00    -0.214 NA
BRANCH   4   3
ATOM      1  C   UNL     1     -14.900  15.914  30.292  0.00  0.00    +0.020 A 
ATOM      2  C   UNL     1     -14.178  16.005  31.540  0.00  0.00    +0.013 A 
ATOM      3  C   UNL     1     -13.506  17.240  31.923  0.00  0.00    +0.019 A 
ATOM     38  C   UNL     1     -13.584  18.374  31.014  0.00  0.00    +0.120 A 
ATOM     39  N   UNL     1     -14.286  18.256  29.818  0.00  0.00    -0.263 NA
ATOM     40  C   UNL     1     -14.935  17.072  29.438  0.00  0.00    +0.111 A 
ENDBRANCH   4   3
ENDBRANCH  10   9
BRANCH  12  13
ATOM     13  N   UNL     1      -7.347  20.204  37.755  0.00  0.00    -0.281 N 
ATOM     14  C   UNL     1      -6.788  18.950  37.939  0.00  0.00    +0.248 C 
ATOM     30  O   UNL     1      -7.426  17.940  38.193  0.00  0.00    -0.270 OA
ATOM     31  H   UNL     1      -6.695  20.989  37.744  0.00  0.00    +0.155 HD
BRANCH  14  15
ATOM     15  C   UNL     1      -5.304  18.800  37.841  0.00  0.00    +0.037 A 
ATOM     16  C   UNL     1      -4.598  19.040  36.580  0.00  0.00    +0.013 A 
ATOM     17  C   UNL     1      -3.168  18.871  36.508  0.00  0.00    +0.005 A 
ATOM     18  C   UNL     1      -2.435  18.461  37.703  0.00  0.00    -0.033 A 
ATOM     28  C   UNL     1      -3.160  18.234  38.942  0.00  0.00    +0.005 A 
ATOM     29  C   UNL     1      -4.561  18.398  39.016  0.00  0.00    +0.013 A 
BRANCH  18  19
ATOM     19  C   UNL     1      -0.911  18.236  37.712  0.00  0.00    +0.119 C 
BRANCH  19  20
ATOM     20  N   UNL     1      -0.282  17.758  36.445  0.00  0.00    -0.302 NA
ATOM     21  C   UNL     1      -0.493  16.257  36.230  0.00  0.00    +0.066 C 
ATOM     22  C   UNL     1       0.151  15.778  34.888  0.00  0.00    -0.064 C 
ATOM     23  N   UNL     1       1.642  16.120  34.892  0.00  0.00    +0.379 N 
ATOM     24  C   UNL     1       2.263  15.619  33.657  0.00  0.00    -0.096 C 
ATOM     25  H   UNL     1       2.111  15.582  35.748  0.00  0.00    -0.082 HD
ATOM     26  C   UNL     1       1.861  17.610  35.108  0.00  0.00    -0.064 C 
ATOM     27  C   UNL     1       1.192  18.082  36.429  0.00  0.00    +0.066 C 
ENDBRANCH  19  20
ENDBRANCH  18  19
ENDBRANCH  14  15
ENDBRANCH  12  13
TORSDOF 6
ENDMDL
