MODEL 1
REMARK VINA RESULT:      -9.4      0.000      0.000
REMARK  Name = C:\Users\Docking\Desktop\test protocol\1iep_ligandH.pdb
REMARK  8 active torsions:
REMARK  status: ('A' for Active; 'I' for Inactive)
REMARK    1  A    between atoms: _5  and  _11
REMARK    2  A    between atoms: _19  and  _21
REMARK    3  A    between atoms: _22  and  _66
REMARK    4  A    between atoms: _27  and  _30
REMARK    5  A    between atoms: _32  and  _33
REMARK    6  A    between atoms: _38  and  _43
REMARK    7  A    between atoms: _43  and  _46
REMARK    8  A    between atoms: _53  and  _55
REMARK                            x       y       z     vdW  Elec       q    Type
REMARK                         _______ _______ _______ _____ _____    ______ ____
ROOT
ATOM     10  C   UNL     1      24.694   7.065  14.899  0.00  0.00    +0.038 A 
ATOM     11  C   UNL     1      25.720   6.721  13.981  0.00  0.00    +0.047 A 
ATOM     12  C   UNL     1      26.849   5.900  14.389  0.00  0.00    +0.035 A 
ATOM     32  C   UNL     1      26.901   5.444  15.738  0.00  0.00    +0.024 A 
ATOM     33  C   UNL     1      25.868   5.785  16.684  0.00  0.00    +0.007 A 
ATOM     34  C   UNL     1      24.753   6.597  16.289  0.00  0.00    -0.029 A 
ATOM     35  C   UNL     1      23.678   6.937  17.347  0.00  0.00    +0.045 C 
ENDROOT
BRANCH  10   9
ATOM      4  C   UNL     1      21.645   8.531  11.495  0.00  0.00    +0.077 A 
ATOM      5  C   UNL     1      22.234   7.667  10.512  0.00  0.00    +0.048 A 
ATOM      6  C   UNL     1      23.324   6.867  10.921  0.00  0.00    +0.116 A 
ATOM      7  N   UNL     1      23.783   6.934  12.219  0.00  0.00    -0.223 NA
ATOM      8  C   UNL     1      23.193   7.779  13.141  0.00  0.00    +0.220 A 
ATOM      9  N   UNL     1      23.632   7.856  14.454  0.00  0.00    -0.283 N 
ATOM     36  H   UNL     1      23.176   8.497  15.102  0.00  0.00    +0.155 HD
ATOM     37  N   UNL     1      22.151   8.554  12.775  0.00  0.00    -0.214 NA
BRANCH   4   3
ATOM      1  C   UNL     1      18.094  10.171  11.548  0.00  0.00    +0.020 A 
ATOM      2  C   UNL     1      19.182   9.271  11.852  0.00  0.00    +0.013 A 
ATOM      3  C   UNL     1      20.484   9.434  11.216  0.00  0.00    +0.019 A 
ATOM     38  C   UNL     1      20.652  10.528  10.271  0.00  0.00    +0.120 A 
ATOM     39  N   UNL     1      19.586  11.378   9.997  0.00  0.00    -0.263 NA
ATOM     40  C   UNL     1      18.328  11.230  10.601  0.00  0.00    +0.111 A 
ENDBRANCH   4   3
ENDBRANCH  10   9
BRANCH  12  13
ATOM     13  N   UNL     1      27.924   5.526  13.503  0.00  0.00    -0.281 N 
ATOM     14  C   UNL     1      29.197   6.068  13.432  0.00  0.00    +0.248 C 
ATOM     30  O   UNL     1      29.537   7.107  13.977  0.00  0.00    -0.270 OA
ATOM     31  H   UNL     1      27.722   4.769  12.850  0.00  0.00    +0.155 HD
BRANCH  14  15
ATOM     15  C   UNL     1      30.239   5.361  12.627  0.00  0.00    +0.037 A 
ATOM     16  C   UNL     1      30.217   3.905  12.467  0.00  0.00    +0.013 A 
ATOM     17  C   UNL     1      31.244   3.246  11.699  0.00  0.00    +0.005 A 
ATOM     18  C   UNL     1      32.302   4.045  11.084  0.00  0.00    -0.033 A 
ATOM     28  C   UNL     1      32.296   5.488  11.255  0.00  0.00    +0.005 A 
ATOM     29  C   UNL     1      31.292   6.137  12.007  0.00  0.00    +0.013 A 
BRANCH  18  19
ATOM     19  C   UNL     1      33.450   3.424  10.266  0.00  0.00    +0.119 C 
BRANCH  19  20
ATOM     20  N   UNL     1      33.207   3.199   8.809  0.00  0.00    -0.302 NA
ATOM     21  C   UNL     1      33.332   1.722   8.428  0.00  0.00    +0.066 C 
ATOM     22  C   UNL     1      33.053   1.502   6.905  0.00  0.00    -0.064 C 
ATOM     23  N   UNL     1      34.019   2.356   6.084  0.00  0.00    +0.379 N 
ATOM     24  C   UNL     1      33.798   2.108   4.652  0.00  0.00    -0.096 C 
ATOM     25  H   UNL     1      35.055   2.025   6.329  0.00  0.00    -0.082 HD
ATOM     26  C   UNL     1      33.904   3.827   6.459  0.00  0.00    -0.064 C 
ATOM     27  C   UNL     1      34.154   4.031   7.979  0.00  0.00    +0.066 C 
ENDBRANCH  19  20
ENDBRANCH  18  19
ENDBRANCH  14  15
ENDBRANCH  12  13
TORSDOF 6
ENDMDL
MODEL 2
REMARK VINA RESULT:      -9.3      1.635     12.275
REMARK  Name = C:\Users\Docking\Desktop\test protocol\1iep_ligandH.pdb
REMARK  8 active torsions:
REMARK  status: ('A' for Active; 'I' for Inactive)
REMARK    1  A    between atoms: _5  and  _11
REMARK    2  A    between atoms: _19  and  _21
REMARK    3  A    between atoms: _22  and  _66
REMARK    4  A    between atoms: _27  and  _30
REMARK    5  A    between atoms: _32  and  _33
REMARK    6  A    between atoms: _38  and  _43
REMARK    7  A    between atoms: _43  and  _46
REMARK    8  A    between atoms: _53  and  _55
REMARK                            x       y       z     vdW  Elec       q    Type
REMARK                         _______ _______ _______ _____ _____    ______ ____
ROOT
ATOM     10  C   UNL     1      32.372   2.561  11.055  0.00  0.00    +0.038 A 
ATOM     11  C   UNL     1      31.180   3.263  11.370  0.00  0.00    +0.047 A 
ATOM     12  C   UNL     1      30.988   3.871  12.677  0.00  0.00    +0.035 A 
ATOM     32  C   UNL     1      32.033   3.748  13.639  0.00  0.00    +0.024 A 
ATOM     33  C   UNL     1      33.250   3.038  13.336  0.00  0.00    +0.007 A 
ATOM     34  C   UNL     1      33.444   2.433  12.049  0.00  0.00    -0.029 A 
ATOM     35  C   UNL     1      34.767   1.678  11.782  0.00  0.00    +0.045 C 
ENDROOT
BRANCH  10   9
ATOM      4  C   UNL     1      33.695   2.770   6.446  0.00  0.00    +0.077 A 
ATOM      5  C   UNL     1      34.138   4.129   6.573  0.00  0.00    +0.048 A 
ATOM      6  C   UNL     1      34.002   4.740   7.840  0.00  0.00    +0.116 A 
ATOM      7  N   UNL     1      33.461   4.035   8.894  0.00  0.00    -0.223 NA
ATOM      8  C   UNL     1      33.042   2.727   8.736  0.00  0.00    +0.220 A 
ATOM      9  N   UNL     1      32.503   1.996   9.784  0.00  0.00    -0.283 N 
ATOM     36  H   UNL     1      32.198   1.036   9.625  0.00  0.00    +0.155 HD
ATOM     37  N   UNL     1      33.160   2.121   7.536  0.00  0.00    -0.214 NA
BRANCH   4   3
ATOM      1  C   UNL     1      33.469   1.731   2.682  0.00  0.00    +0.020 A 
ATOM      2  C   UNL     1      33.370   2.529   3.882  0.00  0.00    +0.013 A 
ATOM      3  C   UNL     1      33.776   1.987   5.172  0.00  0.00    +0.019 A 
ATOM     38  C   UNL     1      34.283   0.624   5.214  0.00  0.00    +0.120 A 
ATOM     39  N   UNL     1      34.366  -0.121   4.042  0.00  0.00    -0.263 NA
ATOM     40  C   UNL     1      33.976   0.389   2.795  0.00  0.00    +0.111 A 
ENDBRANCH   4   3
ENDBRANCH  10   9
BRANCH  12  13
ATOM     13  N   UNL     1      29.797   4.589  13.057  0.00  0.00    -0.281 N 
ATOM     14  C   UNL     1      29.414   5.865  12.678  0.00  0.00    +0.248 C 
ATOM     30  O   UNL     1      30.147   6.670  12.122  0.00  0.00    -0.270 OA
ATOM     31  H   UNL     1      29.158   4.096  13.681  0.00  0.00    +0.155 HD
BRANCH  14  15
ATOM     15  C   UNL     1      28.021   6.319  12.972  0.00  0.00    +0.037 A 
ATOM     16  C   UNL     1      27.543   7.635  12.542  0.00  0.00    +0.013 A 
ATOM     17  C   UNL     1      26.199   8.054  12.853  0.00  0.00    +0.005 A 
ATOM     18  C   UNL     1      25.323   7.154  13.599  0.00  0.00    -0.033 A 
ATOM     28  C   UNL     1      25.821   5.852  14.010  0.00  0.00    +0.005 A 
ATOM     29  C   UNL     1      27.138   5.438  13.707  0.00  0.00    +0.013 A 
BRANCH  18  19
ATOM     19  C   UNL     1      23.882   7.527  13.994  0.00  0.00    +0.119 C 
BRANCH  19  20
ATOM     20  N   UNL     1      23.118   8.397  13.051  0.00  0.00    -0.302 NA
ATOM     21  C   UNL     1      21.938   9.091  13.738  0.00  0.00    +0.066 C 
ATOM     22  C   UNL     1      21.163  10.015  12.742  0.00  0.00    -0.064 C 
ATOM     23  N   UNL     1      20.685   9.186  11.549  0.00  0.00    +0.379 N 
ATOM     24  C   UNL     1      19.906  10.040  10.640  0.00  0.00    -0.096 C 
ATOM     25  H   UNL     1      20.002   8.395  11.939  0.00  0.00    -0.082 HD
ATOM     26  C   UNL     1      21.852   8.491  10.862  0.00  0.00    -0.064 C 
ATOM     27  C   UNL     1      22.632   7.598  11.867  0.00  0.00    +0.066 C 
ENDBRANCH  19  20
ENDBRANCH  18  19
ENDBRANCH  14  15
ENDBRANCH  12  13
TORSDOF 6
ENDMDL
MODEL 3
REMARK VINA RESULT:      -9.3      2.021     11.925
REMARK  Name = C:\Users\Docking\Desktop\test protocol\1iep_ligandH.pdb
REMARK  8 active torsions:
REMARK  status: ('A' for Active; 'I' for Inactive)
REMARK    1  A    between atoms: _5  and  _11
REMARK    2  A    between atoms: _19  and  _21
REMARK    3  A    between atoms: _22  and  _66
REMARK    4  A    between atoms: _27  and  _30
REMARK    5  A    between atoms: _32  and  _33
REMARK    6  A    between atoms: _38  and  _43
REMARK    7  A    between atoms: _43  and  _46
REMARK    8  A    between atoms: _53  and  _55
REMARK                            x       y       z     vdW  Elec       q    Type
REMARK                         _______ _______ _______ _____ _____    ______ ____
ROOT
ATOM     10  C   UNL     1      32.441   2.563  11.021  0.00  0.00    +0.038 A 
ATOM     11  C   UNL     1      31.247   3.249  11.361  0.00  0.00    +0.047 A 
ATOM     12  C   UNL     1      31.074   3.854  12.672  0.00  0.00    +0.035 A 
ATOM     32  C   UNL     1      32.139   3.744  13.613  0.00  0.00    +0.024 A 
ATOM     33  C   UNL     1      33.359   3.049  13.285  0.00  0.00    +0.007 A 
ATOM     34  C   UNL     1      33.534   2.448  11.993  0.00  0.00    -0.029 A 
ATOM     35  C   UNL     1      34.861   1.710  11.698  0.00  0.00    +0.045 C 
ENDROOT
BRANCH  10   9
ATOM      4  C   UNL     1      33.719   2.773   6.399  0.00  0.00    +0.077 A 
ATOM      5  C   UNL     1      34.178   4.127   6.527  0.00  0.00    +0.048 A 
ATOM      6  C   UNL     1      34.060   4.735   7.796  0.00  0.00    +0.116 A 
ATOM      7  N   UNL     1      33.523   4.032   8.853  0.00  0.00    -0.223 NA
ATOM      8  C   UNL     1      33.089   2.729   8.696  0.00  0.00    +0.220 A 
ATOM      9  N   UNL     1      32.553   2.001   9.747  0.00  0.00    -0.283 N 
ATOM     36  H   UNL     1      32.238   1.044   9.589  0.00  0.00    +0.155 HD
ATOM     37  N   UNL     1      33.189   2.126   7.493  0.00  0.00    -0.214 NA
BRANCH   4   3
ATOM      1  C   UNL     1      33.428   1.741   2.638  0.00  0.00    +0.020 A 
ATOM      2  C   UNL     1      33.348   2.537   3.841  0.00  0.00    +0.013 A 
ATOM      3  C   UNL     1      33.780   1.993   5.123  0.00  0.00    +0.019 A 
ATOM     38  C   UNL     1      34.292   0.631   5.152  0.00  0.00    +0.120 A 
ATOM     39  N   UNL     1      34.355  -0.111   3.977  0.00  0.00    -0.263 NA
ATOM     40  C   UNL     1      33.941   0.401   2.738  0.00  0.00    +0.111 A 
ENDBRANCH   4   3
ENDBRANCH  10   9
BRANCH  12  13
ATOM     13  N   UNL     1      29.882   4.556  13.077  0.00  0.00    -0.281 N 
ATOM     14  C   UNL     1      29.465   5.820  12.691  0.00  0.00    +0.248 C 
ATOM     30  O   UNL     1      30.166   6.629  12.102  0.00  0.00    -0.270 OA
ATOM     31  H   UNL     1      29.270   4.062  13.726  0.00  0.00    +0.155 HD
BRANCH  14  15
ATOM     15  C   UNL     1      28.073   6.253  13.020  0.00  0.00    +0.037 A 
ATOM     16  C   UNL     1      27.067   5.292  13.481  0.00  0.00    +0.013 A 
ATOM     17  C   UNL     1      25.727   5.734  13.775  0.00  0.00    +0.005 A 
ATOM     18  C   UNL     1      25.385   7.145  13.610  0.00  0.00    -0.033 A 
ATOM     28  C   UNL     1      26.404   8.077  13.157  0.00  0.00    +0.005 A 
ATOM     29  C   UNL     1      27.718   7.648  12.866  0.00  0.00    +0.013 A 
BRANCH  18  19
ATOM     19  C   UNL     1      23.974   7.700  13.880  0.00  0.00    +0.119 C 
BRANCH  19  20
ATOM     20  N   UNL     1      23.133   8.036  12.693  0.00  0.00    -0.302 NA
ATOM     21  C   UNL     1      23.542   7.235  11.454  0.00  0.00    +0.066 C 
ATOM     22  C   UNL     1      22.637   7.583  10.227  0.00  0.00    -0.064 C 
ATOM     23  N   UNL     1      22.712   9.085   9.950  0.00  0.00    +0.379 N 
ATOM     24  C   UNL     1      21.908   9.406   8.762  0.00  0.00    -0.096 C 
ATOM     25  H   UNL     1      23.774   9.333   9.718  0.00  0.00    -0.082 HD
ATOM     26  C   UNL     1      22.309   9.889  11.179  0.00  0.00    -0.064 C 
ATOM     27  C   UNL     1      23.196   9.515  12.399  0.00  0.00    +0.066 C 
ENDBRANCH  19  20
ENDBRANCH  18  19
ENDBRANCH  14  15
ENDBRANCH  12  13
TORSDOF 6
ENDMDL
MODEL 4
REMARK VINA RESULT:      -9.0      2.078      2.836
REMARK  Name = C:\Users\Docking\Desktop\test protocol\1iep_ligandH.pdb
REMARK  8 active torsions:
REMARK  status: ('A' for Active; 'I' for Inactive)
REMARK    1  A    between atoms: _5  and  _11
REMARK    2  A    between atoms: _19  and  _21
REMARK    3  A    between atoms: _22  and  _66
REMARK    4  A    between atoms: _27  and  _30
REMARK    5  A    between atoms: _32  and  _33
REMARK    6  A    between atoms: _38  and  _43
REMARK    7  A    between atoms: _43  and  _46
REMARK    8  A    between atoms: _53  and  _55
REMARK                            x       y       z     vdW  Elec       q    Type
REMARK                         _______ _______ _______ _____ _____    ______ ____
ROOT
ATOM     10  C   UNL     1      26.212   7.433  13.650  0.00  0.00    +0.038 A 
ATOM     11  C   UNL     1      27.393   7.693  12.909  0.00  0.00    +0.047 A 
ATOM     12  C   UNL     1      28.624   6.965  13.177  0.00  0.00    +0.035 A 
ATOM     32  C   UNL     1      28.615   5.978  14.204  0.00  0.00    +0.024 A 
ATOM     33  C   UNL     1      27.423   5.702  14.968  0.00  0.00    +0.007 A 
ATOM     34  C   UNL     1      26.207   6.418  14.710  0.00  0.00    -0.029 A 
ATOM     35  C   UNL     1      24.961   6.085  15.564  0.00  0.00    +0.045 C 
ENDROOT
BRANCH  10   9
ATOM      4  C   UNL     1      22.134   8.088  11.203  0.00  0.00    +0.077 A 
ATOM      5  C   UNL     1      22.333   6.891  10.437  0.00  0.00    +0.048 A 
ATOM      6  C   UNL     1      23.501   6.140  10.698  0.00  0.00    +0.116 A 
ATOM      7  N   UNL     1      24.396   6.562  11.656  0.00  0.00    -0.223 NA
ATOM      8  C   UNL     1      24.175   7.722  12.376  0.00  0.00    +0.220 A 
ATOM      9  N   UNL     1      25.058   8.162  13.351  0.00  0.00    -0.283 N 
ATOM     36  H   UNL     1      24.863   9.026  13.855  0.00  0.00    +0.155 HD
ATOM     37  N   UNL     1      23.068   8.458  12.145  0.00  0.00    -0.214 NA
BRANCH   4   3
ATOM      1  C   UNL     1      18.646   9.786  11.698  0.00  0.00    +0.020 A 
ATOM      2  C   UNL     1      19.765   8.893  11.892  0.00  0.00    +0.013 A 
ATOM      3  C   UNL     1      20.948   8.987  11.045  0.00  0.00    +0.019 A 
ATOM     38  C   UNL     1      20.967  10.003  10.004  0.00  0.00    +0.120 A 
ATOM     39  N   UNL     1      19.874  10.848   9.839  0.00  0.00    -0.263 NA
ATOM     40  C   UNL     1      18.729  10.766  10.647  0.00  0.00    +0.111 A 
ENDBRANCH   4   3
ENDBRANCH  10   9
BRANCH  12  13
ATOM     13  N   UNL     1      29.856   7.191  12.463  0.00  0.00    -0.281 N 
ATOM     14  C   UNL     1      30.830   6.264  12.130  0.00  0.00    +0.248 C 
ATOM     30  O   UNL     1      30.890   5.131  12.585  0.00  0.00    -0.270 OA
ATOM     31  H   UNL     1      30.032   8.152  12.167  0.00  0.00    +0.155 HD
BRANCH  14  15
ATOM     15  C   UNL     1      31.900   6.656  11.163  0.00  0.00    +0.037 A 
ATOM     16  C   UNL     1      31.652   7.652  10.117  0.00  0.00    +0.013 A 
ATOM     17  C   UNL     1      32.697   7.999   9.187  0.00  0.00    +0.005 A 
ATOM     18  C   UNL     1      34.001   7.351   9.300  0.00  0.00    -0.033 A 
ATOM     28  C   UNL     1      34.222   6.371  10.351  0.00  0.00    +0.005 A 
ATOM     29  C   UNL     1      33.200   6.027  11.264  0.00  0.00    +0.013 A 
BRANCH  18  19
ATOM     19  C   UNL     1      35.167   7.645   8.338  0.00  0.00    +0.119 C 
BRANCH  19  20
ATOM     20  N   UNL     1      35.718   6.496   7.560  0.00  0.00    -0.302 NA
ATOM     21  C   UNL     1      36.437   6.954   6.288  0.00  0.00    +0.066 C 
ATOM     22  C   UNL     1      37.026   5.741   5.498  0.00  0.00    -0.064 C 
ATOM     23  N   UNL     1      35.901   4.761   5.161  0.00  0.00    +0.379 N 
ATOM     24  C   UNL     1      36.442   3.647   4.368  0.00  0.00    -0.096 C 
ATOM     25  H   UNL     1      35.162   5.301   4.525  0.00  0.00    -0.082 HD
ATOM     26  C   UNL     1      35.180   4.301   6.420  0.00  0.00    -0.064 C 
ATOM     27  C   UNL     1      34.623   5.517   7.213  0.00  0.00    +0.066 C 
ENDBRANCH  19  20
ENDBRANCH  18  19
ENDBRANCH  14  15
ENDBRANCH  12  13
TORSDOF 6
ENDMDL
MODEL 5
REMARK VINA RESULT:      -8.9      8.442     13.945
REMARK  Name = C:\Users\Docking\Desktop\test protocol\1iep_ligandH.pdb
REMARK  8 active torsions:
REMARK  status: ('A' for Active; 'I' for Inactive)
REMARK    1  A    between atoms: _5  and  _11
REMARK    2  A    between atoms: _19  and  _21
REMARK    3  A    between atoms: _22  and  _66
REMARK    4  A    between atoms: _27  and  _30
REMARK    5  A    between atoms: _32  and  _33
REMARK    6  A    between atoms: _38  and  _43
REMARK    7  A    between atoms: _43  and  _46
REMARK    8  A    between atoms: _53  and  _55
REMARK                            x       y       z     vdW  Elec       q    Type
REMARK                         _______ _______ _______ _____ _____    ______ ____
ROOT
ATOM     10  C   UNL     1      34.334   2.248   4.683  0.00  0.00    +0.038 A 
ATOM     11  C   UNL     1      33.245   2.448   3.797  0.00  0.00    +0.047 A 
ATOM     12  C   UNL     1      33.449   3.001   2.467  0.00  0.00    +0.035 A 
ATOM     32  C   UNL     1      34.777   3.338   2.072  0.00  0.00    +0.024 A 
ATOM     33  C   UNL     1      35.895   3.142   2.961  0.00  0.00    +0.007 A 
ATOM     34  C   UNL     1      35.699   2.599   4.275  0.00  0.00    -0.029 A 
ATOM     35  C   UNL     1      36.934   2.416   5.188  0.00  0.00    +0.045 C 
ENDROOT
BRANCH  10   9
ATOM      4  C   UNL     1      33.051   2.692   9.287  0.00  0.00    +0.077 A 
ATOM      5  C   UNL     1      32.899   4.114   9.169  0.00  0.00    +0.048 A 
ATOM      6  C   UNL     1      33.167   4.692   7.908  0.00  0.00    +0.116 A 
ATOM      7  N   UNL     1      33.557   3.899   6.851  0.00  0.00    -0.223 NA
ATOM      8  C   UNL     1      33.696   2.531   7.000  0.00  0.00    +0.220 A 
ATOM      9  N   UNL     1      34.080   1.713   5.949  0.00  0.00    -0.283 N 
ATOM     36  H   UNL     1      34.179   0.709   6.101  0.00  0.00    +0.155 HD
ATOM     37  N   UNL     1      33.447   1.955   8.194  0.00  0.00    -0.214 NA
BRANCH   4   3
ATOM      1  C   UNL     1      32.520   1.791  13.056  0.00  0.00    +0.020 A 
ATOM      2  C   UNL     1      32.766   2.569  11.864  0.00  0.00    +0.013 A 
ATOM      3  C   UNL     1      32.801   1.933  10.553  0.00  0.00    +0.019 A 
ATOM     38  C   UNL     1      32.580   0.497  10.483  0.00  0.00    +0.120 A 
ATOM     39  N   UNL     1      32.347  -0.227  11.648  0.00  0.00    -0.263 NA
ATOM     40  C   UNL     1      32.313   0.374  12.915  0.00  0.00    +0.111 A 
ENDBRANCH   4   3
ENDBRANCH  10   9
BRANCH  12  13
ATOM     13  N   UNL     1      32.381   3.235   1.527  0.00  0.00    -0.281 N 
ATOM     14  C   UNL     1      31.400   2.347   1.115  0.00  0.00    +0.248 C 
ATOM     30  O   UNL     1      31.420   1.145   1.334  0.00  0.00    -0.270 OA
ATOM     31  H   UNL     1      32.344   4.167   1.115  0.00  0.00    +0.155 HD
BRANCH  14  15
ATOM     15  C   UNL     1      30.237   2.869   0.335  0.00  0.00    +0.037 A 
ATOM     16  C   UNL     1      30.365   3.214  -1.083  0.00  0.00    +0.013 A 
ATOM     17  C   UNL     1      29.232   3.731  -1.807  0.00  0.00    +0.005 A 
ATOM     18  C   UNL     1      27.957   3.904  -1.114  0.00  0.00    -0.033 A 
ATOM     28  C   UNL     1      27.856   3.549   0.292  0.00  0.00    +0.005 A 
ATOM     29  C   UNL     1      28.966   3.043   1.005  0.00  0.00    +0.013 A 
BRANCH  18  19
ATOM     19  C   UNL     1      26.701   4.469  -1.803  0.00  0.00    +0.119 C 
BRANCH  19  20
ATOM     20  N   UNL     1      26.285   5.856  -1.436  0.00  0.00    -0.302 NA
ATOM     21  C   UNL     1      27.372   6.591  -0.647  0.00  0.00    +0.066 C 
ATOM     22  C   UNL     1      26.929   8.048  -0.291  0.00  0.00    -0.064 C 
ATOM     23  N   UNL     1      25.622   8.002   0.501  0.00  0.00    +0.379 N 
ATOM     24  C   UNL     1      25.233   9.366   0.887  0.00  0.00    -0.096 C 
ATOM     25  H   UNL     1      25.814   7.427   1.437  0.00  0.00    -0.082 HD
ATOM     26  C   UNL     1      24.536   7.270  -0.276  0.00  0.00    -0.064 C 
ATOM     27  C   UNL     1      24.998   5.833  -0.650  0.00  0.00    +0.066 C 
ENDBRANCH  19  20
ENDBRANCH  18  19
ENDBRANCH  14  15
ENDBRANCH  12  13
TORSDOF 6
ENDMDL
