MODEL 1
REMARK VINA RESULT:      -8.4      0.000      0.000
REMARK  Name = C:\Users\Docking\Desktop\test protocol\1iep_ligandH.pdb
REMARK  8 active torsions:
REMARK  status: ('A' for Active; 'I' for Inactive)
REMARK    1  A    between atoms: _5  and  _11
REMARK    2  A    between atoms: _19  and  _21
REMARK    3  A    between atoms: _22  and  _66
REMARK    4  A    between atoms: _27  and  _30
REMARK    5  A    between atoms: _32  and  _33
REMARK    6  A    between atoms: _38  and  _43
REMARK    7  A    between atoms: _43  and  _46
REMARK    8  A    between atoms: _53  and  _55
REMARK                            x       y       z     vdW  Elec       q    Type
REMARK                         _______ _______ _______ _____ _____    ______ ____
ROOT
ATOM     10  C   UNL     1     -48.244  40.872 -21.707  0.00  0.00    +0.038 A 
ATOM     11  C   UNL     1     -48.493  42.262 -21.838  0.00  0.00    +0.047 A 
ATOM     12  C   UNL     1     -49.588  42.901 -21.126  0.00  0.00    +0.035 A 
ATOM     32  C   UNL     1     -50.410  42.094 -20.286  0.00  0.00    +0.024 A 
ATOM     33  C   UNL     1     -50.172  40.679 -20.142  0.00  0.00    +0.007 A 
ATOM     34  C   UNL     1     -49.095  40.043 -20.844  0.00  0.00    -0.029 A 
ATOM     35  C   UNL     1     -48.891  38.521 -20.657  0.00  0.00    +0.045 C 
ENDROOT
BRANCH  10   9
ATOM      4  C   UNL     1     -46.377  38.814 -25.621  0.00  0.00    +0.077 A 
ATOM      5  C   UNL     1     -47.638  38.834 -26.305  0.00  0.00    +0.048 A 
ATOM      6  C   UNL     1     -48.744  39.377 -25.613  0.00  0.00    +0.116 A 
ATOM      7  N   UNL     1     -48.588  39.860 -24.331  0.00  0.00    -0.223 NA
ATOM      8  C   UNL     1     -47.359  39.823 -23.699  0.00  0.00    +0.220 A 
ATOM      9  N   UNL     1     -47.178  40.310 -22.414  0.00  0.00    -0.283 N 
ATOM     36  H   UNL     1     -46.257  40.258 -21.980  0.00  0.00    +0.155 HD
ATOM     37  N   UNL     1     -46.288  39.309 -24.339  0.00  0.00    -0.214 NA
BRANCH   4   3
ATOM      1  C   UNL     1     -42.636  38.375 -26.676  0.00  0.00    +0.020 A 
ATOM      2  C   UNL     1     -43.825  38.936 -26.077  0.00  0.00    +0.013 A 
ATOM      3  C   UNL     1     -45.116  38.276 -26.221  0.00  0.00    +0.019 A 
ATOM     38  C   UNL     1     -45.170  37.038 -26.984  0.00  0.00    +0.120 A 
ATOM     39  N   UNL     1     -44.010  36.521 -27.552  0.00  0.00    -0.263 NA
ATOM     40  C   UNL     1     -42.762  37.149 -27.421  0.00  0.00    +0.111 A 
ENDBRANCH   4   3
ENDBRANCH  10   9
BRANCH  12  13
ATOM     13  N   UNL     1     -49.893  44.307 -21.226  0.00  0.00    -0.281 N 
ATOM     14  C   UNL     1     -49.495  45.327 -20.379  0.00  0.00    +0.248 C 
ATOM     30  O   UNL     1     -48.989  45.155 -19.280  0.00  0.00    -0.270 OA
ATOM     31  H   UNL     1     -50.474  44.583 -22.018  0.00  0.00    +0.155 HD
BRANCH  14  15
ATOM     15  C   UNL     1     -49.701  46.744 -20.807  0.00  0.00    +0.037 A 
ATOM     16  C   UNL     1     -50.684  47.091 -21.838  0.00  0.00    +0.013 A 
ATOM     17  C   UNL     1     -50.851  48.463 -22.245  0.00  0.00    +0.005 A 
ATOM     18  C   UNL     1     -50.033  49.500 -21.620  0.00  0.00    -0.033 A 
ATOM     28  C   UNL     1     -49.070  49.129 -20.597  0.00  0.00    +0.005 A 
ATOM     29  C   UNL     1     -48.903  47.785 -20.196  0.00  0.00    +0.013 A 
BRANCH  18  19
ATOM     19  C   UNL     1     -50.129  50.988 -22.008  0.00  0.00    +0.119 C 
BRANCH  19  20
ATOM     20  N   UNL     1     -51.453  51.657 -21.830  0.00  0.00    -0.302 NA
ATOM     21  C   UNL     1     -51.929  51.611 -20.375  0.00  0.00    +0.066 C 
ATOM     22  C   UNL     1     -53.304  52.335 -20.204  0.00  0.00    -0.064 C 
ATOM     23  N   UNL     1     -54.335  51.691 -21.131  0.00  0.00    +0.379 N 
ATOM     24  C   UNL     1     -55.644  52.331 -20.930  0.00  0.00    -0.096 C 
ATOM     25  H   UNL     1     -54.433  50.620 -20.836  0.00  0.00    -0.082 HD
ATOM     26  C   UNL     1     -53.869  51.729 -22.580  0.00  0.00    -0.064 C 
ATOM     27  C   UNL     1     -52.488  51.033 -22.734  0.00  0.00    +0.066 C 
ENDBRANCH  19  20
ENDBRANCH  18  19
ENDBRANCH  14  15
ENDBRANCH  12  13
TORSDOF 6
ENDMDL
MODEL 2
REMARK VINA RESULT:      -8.2      1.631      2.193
REMARK  Name = C:\Users\Docking\Desktop\test protocol\1iep_ligandH.pdb
REMARK  8 active torsions:
REMARK  status: ('A' for Active; 'I' for Inactive)
REMARK    1  A    between atoms: _5  and  _11
REMARK    2  A    between atoms: _19  and  _21
REMARK    3  A    between atoms: _22  and  _66
REMARK    4  A    between atoms: _27  and  _30
REMARK    5  A    between atoms: _32  and  _33
REMARK    6  A    between atoms: _38  and  _43
REMARK    7  A    between atoms: _43  and  _46
REMARK    8  A    between atoms: _53  and  _55
REMARK                            x       y       z     vdW  Elec       q    Type
REMARK                         _______ _______ _______ _____ _____    ______ ____
ROOT
ATOM     10  C   UNL     1     -47.192  39.732 -22.698  0.00  0.00    +0.038 A 
ATOM     11  C   UNL     1     -47.665  41.063 -22.566  0.00  0.00    +0.047 A 
ATOM     12  C   UNL     1     -48.739  41.391 -21.641  0.00  0.00    +0.035 A 
ATOM     32  C   UNL     1     -49.306  40.340 -20.863  0.00  0.00    +0.024 A 
ATOM     33  C   UNL     1     -48.838  38.982 -20.986  0.00  0.00    +0.007 A 
ATOM     34  C   UNL     1     -47.781  38.651 -21.898  0.00  0.00    -0.029 A 
ATOM     35  C   UNL     1     -47.323  37.177 -21.992  0.00  0.00    +0.045 C 
ENDROOT
BRANCH  10   9
ATOM      4  C   UNL     1     -45.582  38.587 -27.072  0.00  0.00    +0.077 A 
ATOM      5  C   UNL     1     -46.912  38.468 -27.595  0.00  0.00    +0.048 A 
ATOM      6  C   UNL     1     -47.983  38.702 -26.704  0.00  0.00    +0.116 A 
ATOM      7  N   UNL     1     -47.731  39.031 -25.390  0.00  0.00    -0.223 NA
ATOM      8  C   UNL     1     -46.436  39.136 -24.917  0.00  0.00    +0.220 A 
ATOM      9  N   UNL     1     -46.159  39.473 -23.601  0.00  0.00    -0.283 N 
ATOM     36  H   UNL     1     -45.190  39.533 -23.289  0.00  0.00    +0.155 HD
ATOM     37  N   UNL     1     -45.396  38.916 -25.748  0.00  0.00    -0.214 NA
BRANCH   4   3
ATOM      1  C   UNL     1     -43.037  38.513 -30.042  0.00  0.00    +0.020 A 
ATOM      2  C   UNL     1     -44.254  38.741 -29.297  0.00  0.00    +0.013 A 
ATOM      3  C   UNL     1     -44.346  38.373 -27.890  0.00  0.00    +0.019 A 
ATOM     38  C   UNL     1     -43.180  37.772 -27.261  0.00  0.00    +0.120 A 
ATOM     39  N   UNL     1     -42.022  37.563 -28.004  0.00  0.00    -0.263 NA
ATOM     40  C   UNL     1     -41.922  37.912 -29.359  0.00  0.00    +0.111 A 
ENDBRANCH   4   3
ENDBRANCH  10   9
BRANCH  12  13
ATOM     13  N   UNL     1     -49.266  42.722 -21.470  0.00  0.00    -0.281 N 
ATOM     14  C   UNL     1     -48.946  43.646 -20.488  0.00  0.00    +0.248 C 
ATOM     30  O   UNL     1     -48.311  43.387 -19.477  0.00  0.00    -0.270 OA
ATOM     31  H   UNL     1     -49.960  43.020 -22.156  0.00  0.00    +0.155 HD
BRANCH  14  15
ATOM     15  C   UNL     1     -49.411  45.057 -20.645  0.00  0.00    +0.037 A 
ATOM     16  C   UNL     1     -50.289  45.449 -21.751  0.00  0.00    +0.013 A 
ATOM     17  C   UNL     1     -50.710  46.821 -21.889  0.00  0.00    +0.005 A 
ATOM     18  C   UNL     1     -50.253  47.812 -20.916  0.00  0.00    -0.033 A 
ATOM     28  C   UNL     1     -49.387  47.394 -19.826  0.00  0.00    +0.005 A 
ATOM     29  C   UNL     1     -48.972  46.050 -19.689  0.00  0.00    +0.013 A 
BRANCH  18  19
ATOM     19  C   UNL     1     -50.634  49.302 -20.998  0.00  0.00    +0.119 C 
BRANCH  19  20
ATOM     20  N   UNL     1     -51.351  49.758 -22.226  0.00  0.00    -0.302 NA
ATOM     21  C   UNL     1     -51.330  51.282 -22.371  0.00  0.00    +0.066 C 
ATOM     22  C   UNL     1     -52.065  51.740 -23.672  0.00  0.00    -0.064 C 
ATOM     23  N   UNL     1     -53.503  51.218 -23.654  0.00  0.00    +0.379 N 
ATOM     24  C   UNL     1     -54.214  51.696 -24.848  0.00  0.00    -0.096 C 
ATOM     25  H   UNL     1     -54.009  51.654 -22.761  0.00  0.00    -0.082 HD
ATOM     26  C   UNL     1     -53.533  49.703 -23.507  0.00  0.00    -0.064 C 
ATOM     27  C   UNL     1     -52.775  49.256 -22.226  0.00  0.00    +0.066 C 
ENDBRANCH  19  20
ENDBRANCH  18  19
ENDBRANCH  14  15
ENDBRANCH  12  13
TORSDOF 6
ENDMDL
MODEL 3
REMARK VINA RESULT:      -8.1      8.627     14.456
REMARK  Name = C:\Users\Docking\Desktop\test protocol\1iep_ligandH.pdb
REMARK  8 active torsions:
REMARK  status: ('A' for Active; 'I' for Inactive)
REMARK    1  A    between atoms: _5  and  _11
REMARK    2  A    between atoms: _19  and  _21
REMARK    3  A    between atoms: _22  and  _66
REMARK    4  A    between atoms: _27  and  _30
REMARK    5  A    between atoms: _32  and  _33
REMARK    6  A    between atoms: _38  and  _43
REMARK    7  A    between atoms: _43  and  _46
REMARK    8  A    between atoms: _53  and  _55
REMARK                            x       y       z     vdW  Elec       q    Type
REMARK                         _______ _______ _______ _____ _____    ______ ____
ROOT
ATOM     10  C   UNL     1     -46.870  50.569 -12.814  0.00  0.00    +0.038 A 
ATOM     11  C   UNL     1     -47.395  49.737 -13.836  0.00  0.00    +0.047 A 
ATOM     12  C   UNL     1     -47.164  50.035 -15.241  0.00  0.00    +0.035 A 
ATOM     32  C   UNL     1     -46.391  51.186 -15.570  0.00  0.00    +0.024 A 
ATOM     33  C   UNL     1     -45.850  52.043 -14.544  0.00  0.00    +0.007 A 
ATOM     34  C   UNL     1     -46.077  51.756 -13.156  0.00  0.00    -0.029 A 
ATOM     35  C   UNL     1     -45.479  52.714 -12.099  0.00  0.00    +0.045 C 
ENDROOT
BRANCH  10   9
ATOM      4  C   UNL     1     -45.820  48.208  -8.769  0.00  0.00    +0.077 A 
ATOM      5  C   UNL     1     -44.689  47.562  -9.370  0.00  0.00    +0.048 A 
ATOM      6  C   UNL     1     -44.416  47.859 -10.724  0.00  0.00    +0.116 A 
ATOM      7  N   UNL     1     -45.220  48.738 -11.416  0.00  0.00    -0.223 NA
ATOM      8  C   UNL     1     -46.304  49.343 -10.807  0.00  0.00    +0.220 A 
ATOM      9  N   UNL     1     -47.122  50.237 -11.481  0.00  0.00    -0.283 N 
ATOM     36  H   UNL     1     -47.916  50.656 -10.999  0.00  0.00    +0.155 HD
ATOM     37  N   UNL     1     -46.587  49.075  -9.515  0.00  0.00    -0.214 NA
BRANCH   4   3
ATOM      1  C   UNL     1     -45.816  47.214  -4.986  0.00  0.00    +0.020 A 
ATOM      2  C   UNL     1     -45.366  47.393  -6.347  0.00  0.00    +0.013 A 
ATOM      3  C   UNL     1     -46.236  48.000  -7.346  0.00  0.00    +0.019 A 
ATOM     38  C   UNL     1     -47.566  48.420  -6.931  0.00  0.00    +0.120 A 
ATOM     39  N   UNL     1     -47.973  48.234  -5.614  0.00  0.00    -0.263 NA
ATOM     40  C   UNL     1     -47.144  47.649  -4.644  0.00  0.00    +0.111 A 
ENDBRANCH   4   3
ENDBRANCH  10   9
BRANCH  12  13
ATOM     13  N   UNL     1     -47.679  49.231 -16.322  0.00  0.00    -0.281 N 
ATOM     14  C   UNL     1     -46.967  48.438 -17.207  0.00  0.00    +0.248 C 
ATOM     30  O   UNL     1     -45.752  48.467 -17.339  0.00  0.00    -0.270 OA
ATOM     31  H   UNL     1     -48.690  49.249 -16.450  0.00  0.00    +0.155 HD
BRANCH  14  15
ATOM     15  C   UNL     1     -47.714  47.485 -18.084  0.00  0.00    +0.037 A 
ATOM     16  C   UNL     1     -48.288  47.918 -19.360  0.00  0.00    +0.013 A 
ATOM     17  C   UNL     1     -49.019  46.983 -20.179  0.00  0.00    +0.005 A 
ATOM     18  C   UNL     1     -49.177  45.604 -19.723  0.00  0.00    -0.033 A 
ATOM     28  C   UNL     1     -48.592  45.200 -18.455  0.00  0.00    +0.005 A 
ATOM     29  C   UNL     1     -47.877  46.114 -17.650  0.00  0.00    +0.013 A 
BRANCH  18  19
ATOM     19  C   UNL     1     -49.959  44.544 -20.522  0.00  0.00    +0.119 C 
BRANCH  19  20
ATOM     20  N   UNL     1     -49.287  43.231 -20.755  0.00  0.00    -0.302 NA
ATOM     21  C   UNL     1     -48.875  43.048 -22.218  0.00  0.00    +0.066 C 
ATOM     22  C   UNL     1     -48.153  41.679 -22.439  0.00  0.00    -0.064 C 
ATOM     23  N   UNL     1     -49.073  40.542 -21.990  0.00  0.00    +0.379 N 
ATOM     24  C   UNL     1     -48.421  39.251 -22.250  0.00  0.00    -0.096 C 
ATOM     25  H   UNL     1     -49.996  40.587 -22.614  0.00  0.00    -0.082 HD
ATOM     26  C   UNL     1     -49.490  40.718 -20.536  0.00  0.00    -0.064 C 
ATOM     27  C   UNL     1     -50.179  42.094 -20.321  0.00  0.00    +0.066 C 
ENDBRANCH  19  20
ENDBRANCH  18  19
ENDBRANCH  14  15
ENDBRANCH  12  13
TORSDOF 6
ENDMDL
MODEL 4
REMARK VINA RESULT:      -7.8      3.106      4.462
REMARK  Name = C:\Users\Docking\Desktop\test protocol\1iep_ligandH.pdb
REMARK  8 active torsions:
REMARK  status: ('A' for Active; 'I' for Inactive)
REMARK    1  A    between atoms: _5  and  _11
REMARK    2  A    between atoms: _19  and  _21
REMARK    3  A    between atoms: _22  and  _66
REMARK    4  A    between atoms: _27  and  _30
REMARK    5  A    between atoms: _32  and  _33
REMARK    6  A    between atoms: _38  and  _43
REMARK    7  A    between atoms: _43  and  _46
REMARK    8  A    between atoms: _53  and  _55
REMARK                            x       y       z     vdW  Elec       q    Type
REMARK                         _______ _______ _______ _____ _____    ______ ____
ROOT
ATOM     10  C   UNL     1     -47.964  38.439 -24.472  0.00  0.00    +0.038 A 
ATOM     11  C   UNL     1     -48.428  39.748 -24.187  0.00  0.00    +0.047 A 
ATOM     12  C   UNL     1     -47.933  40.489 -23.037  0.00  0.00    +0.035 A 
ATOM     32  C   UNL     1     -46.963  39.865 -22.199  0.00  0.00    +0.024 A 
ATOM     33  C   UNL     1     -46.481  38.534 -22.473  0.00  0.00    +0.007 A 
ATOM     34  C   UNL     1     -46.967  37.798 -23.605  0.00  0.00    -0.029 A 
ATOM     35  C   UNL     1     -46.420  36.372 -23.847  0.00  0.00    +0.045 C 
ENDROOT
BRANCH  10   9
ATOM      4  C   UNL     1     -47.782  37.198 -29.105  0.00  0.00    +0.077 A 
ATOM      5  C   UNL     1     -46.587  37.960 -29.324  0.00  0.00    +0.048 A 
ATOM      6  C   UNL     1     -46.055  38.663 -28.220  0.00  0.00    +0.116 A 
ATOM      7  N   UNL     1     -46.679  38.601 -26.993  0.00  0.00    -0.223 NA
ATOM      8  C   UNL     1     -47.832  37.857 -26.817  0.00  0.00    +0.220 A 
ATOM      9  N   UNL     1     -48.473  37.774 -25.590  0.00  0.00    -0.283 N 
ATOM     36  H   UNL     1     -49.325  37.221 -25.503  0.00  0.00    +0.155 HD
ATOM     37  N   UNL     1     -48.361  37.178 -27.856  0.00  0.00    -0.214 NA
BRANCH   4   3
ATOM      1  C   UNL     1     -50.424  35.100 -31.086  0.00  0.00    +0.020 A 
ATOM      2  C   UNL     1     -49.811  35.865 -30.024  0.00  0.00    +0.013 A 
ATOM      3  C   UNL     1     -48.463  36.399 -30.172  0.00  0.00    +0.019 A 
ATOM     38  C   UNL     1     -47.757  36.139 -31.418  0.00  0.00    +0.120 A 
ATOM     39  N   UNL     1     -48.371  35.398 -32.422  0.00  0.00    -0.263 NA
ATOM     40  C   UNL     1     -49.667  34.878 -32.290  0.00  0.00    +0.111 A 
ENDBRANCH   4   3
ENDBRANCH  10   9
BRANCH  12  13
ATOM     13  N   UNL     1     -48.373  41.818 -22.693  0.00  0.00    -0.281 N 
ATOM     14  C   UNL     1     -49.112  42.211 -21.590  0.00  0.00    +0.248 C 
ATOM     30  O   UNL     1     -49.692  41.443 -20.837  0.00  0.00    -0.270 OA
ATOM     31  H   UNL     1     -48.108  42.559 -23.342  0.00  0.00    +0.155 HD
BRANCH  14  15
ATOM     15  C   UNL     1     -49.237  43.670 -21.287  0.00  0.00    +0.037 A 
ATOM     16  C   UNL     1     -49.859  44.593 -22.240  0.00  0.00    +0.013 A 
ATOM     17  C   UNL     1     -49.951  45.998 -21.930  0.00  0.00    +0.005 A 
ATOM     18  C   UNL     1     -49.421  46.488 -20.660  0.00  0.00    -0.033 A 
ATOM     28  C   UNL     1     -48.814  45.549 -19.731  0.00  0.00    +0.005 A 
ATOM     29  C   UNL     1     -48.721  44.171 -20.031  0.00  0.00    +0.013 A 
BRANCH  18  19
ATOM     19  C   UNL     1     -49.458  47.973 -20.255  0.00  0.00    +0.119 C 
BRANCH  19  20
ATOM     20  N   UNL     1     -50.779  48.667 -20.319  0.00  0.00    -0.302 NA
ATOM     21  C   UNL     1     -51.188  48.991 -21.759  0.00  0.00    +0.066 C 
ATOM     22  C   UNL     1     -52.583  49.696 -21.808  0.00  0.00    -0.064 C 
ATOM     23  N   UNL     1     -52.539  50.967 -20.959  0.00  0.00    +0.379 N 
ATOM     24  C   UNL     1     -53.831  51.663 -21.050  0.00  0.00    -0.096 C 
ATOM     25  H   UNL     1     -51.762  51.638 -21.394  0.00  0.00    -0.082 HD
ATOM     26  C   UNL     1     -52.130  50.655 -19.526  0.00  0.00    -0.064 C 
ATOM     27  C   UNL     1     -50.756  49.928 -19.490  0.00  0.00    +0.066 C 
ENDBRANCH  19  20
ENDBRANCH  18  19
ENDBRANCH  14  15
ENDBRANCH  12  13
TORSDOF 6
ENDMDL
MODEL 5
REMARK VINA RESULT:      -7.4     10.103     12.668
REMARK  Name = C:\Users\Docking\Desktop\test protocol\1iep_ligandH.pdb
REMARK  8 active torsions:
REMARK  status: ('A' for Active; 'I' for Inactive)
REMARK    1  A    between atoms: _5  and  _11
REMARK    2  A    between atoms: _19  and  _21
REMARK    3  A    between atoms: _22  and  _66
REMARK    4  A    between atoms: _27  and  _30
REMARK    5  A    between atoms: _32  and  _33
REMARK    6  A    between atoms: _38  and  _43
REMARK    7  A    between atoms: _43  and  _46
REMARK    8  A    between atoms: _53  and  _55
REMARK                            x       y       z     vdW  Elec       q    Type
REMARK                         _______ _______ _______ _____ _____    ______ ____
ROOT
ATOM     10  C   UNL     1     -47.703  46.893 -13.326  0.00  0.00    +0.038 A 
ATOM     11  C   UNL     1     -46.932  48.077 -13.204  0.00  0.00    +0.047 A 
ATOM     12  C   UNL     1     -46.252  48.408 -11.962  0.00  0.00    +0.035 A 
ATOM     32  C   UNL     1     -46.377  47.509 -10.863  0.00  0.00    +0.024 A 
ATOM     33  C   UNL     1     -47.157  46.301 -10.968  0.00  0.00    +0.007 A 
ATOM     34  C   UNL     1     -47.832  45.971 -12.191  0.00  0.00    -0.029 A 
ATOM     35  C   UNL     1     -48.661  44.666 -12.245  0.00  0.00    +0.045 C 
ENDROOT
BRANCH  10   9
ATOM      4  C   UNL     1     -47.743  45.049 -17.757  0.00  0.00    +0.077 A 
ATOM      5  C   UNL     1     -46.382  44.607 -17.649  0.00  0.00    +0.048 A 
ATOM      6  C   UNL     1     -45.705  44.881 -16.440  0.00  0.00    +0.116 A 
ATOM      7  N   UNL     1     -46.351  45.546 -15.420  0.00  0.00    -0.223 NA
ATOM      8  C   UNL     1     -47.663  45.960 -15.557  0.00  0.00    +0.220 A 
ATOM      9  N   UNL     1     -48.334  46.624 -14.542  0.00  0.00    -0.283 N 
ATOM     36  H   UNL     1     -49.299  46.919 -14.685  0.00  0.00    +0.155 HD
ATOM     37  N   UNL     1     -48.331  45.713 -16.703  0.00  0.00    -0.214 NA
BRANCH   4   3
ATOM      1  C   UNL     1     -49.985  45.663 -20.903  0.00  0.00    +0.020 A 
ATOM      2  C   UNL     1     -49.172  45.927 -19.738  0.00  0.00    +0.013 A 
ATOM      3  C   UNL     1     -48.592  44.832 -18.971  0.00  0.00    +0.019 A 
ATOM     38  C   UNL     1     -48.855  43.471 -19.413  0.00  0.00    +0.120 A 
ATOM     39  N   UNL     1     -49.643  43.247 -20.538  0.00  0.00    -0.263 NA
ATOM     40  C   UNL     1     -50.208  44.293 -21.283  0.00  0.00    +0.111 A 
ENDBRANCH   4   3
ENDBRANCH  10   9
BRANCH  12  13
ATOM     13  N   UNL     1     -45.462  49.600 -11.777  0.00  0.00    -0.281 N 
ATOM     14  C   UNL     1     -45.831  50.913 -12.020  0.00  0.00    +0.248 C 
ATOM     30  O   UNL     1     -46.830  51.246 -12.640  0.00  0.00    -0.270 OA
ATOM     31  H   UNL     1     -44.515  49.459 -11.424  0.00  0.00    +0.155 HD
BRANCH  14  15
ATOM     15  C   UNL     1     -44.956  52.015 -11.515  0.00  0.00    +0.037 A 
ATOM     16  C   UNL     1     -45.173  52.612 -10.195  0.00  0.00    +0.013 A 
ATOM     17  C   UNL     1     -44.325  53.685  -9.739  0.00  0.00    +0.005 A 
ATOM     18  C   UNL     1     -43.251  54.167 -10.605  0.00  0.00    -0.033 A 
ATOM     28  C   UNL     1     -43.055  53.552 -11.907  0.00  0.00    +0.005 A 
ATOM     29  C   UNL     1     -43.885  52.501 -12.358  0.00  0.00    +0.013 A 
BRANCH  18  19
ATOM     19  C   UNL     1     -42.312  55.321 -10.208  0.00  0.00    +0.119 C 
BRANCH  19  20
ATOM     20  N   UNL     1     -42.929  56.508  -9.545  0.00  0.00    -0.302 NA
ATOM     21  C   UNL     1     -43.905  57.241 -10.470  0.00  0.00    +0.066 C 
ATOM     22  C   UNL     1     -44.558  58.466  -9.752  0.00  0.00    -0.064 C 
ATOM     23  N   UNL     1     -43.460  59.413  -9.264  0.00  0.00    +0.379 N 
ATOM     24  C   UNL     1     -44.073  60.594  -8.640  0.00  0.00    -0.096 C 
ATOM     25  H   UNL     1     -42.891  59.759 -10.157  0.00  0.00    -0.082 HD
ATOM     26  C   UNL     1     -42.484  58.691  -8.345  0.00  0.00    -0.064 C 
ATOM     27  C   UNL     1     -41.863  57.458  -9.058  0.00  0.00    +0.066 C 
ENDBRANCH  19  20
ENDBRANCH  18  19
ENDBRANCH  14  15
ENDBRANCH  12  13
TORSDOF 6
ENDMDL
