MODEL 1
REMARK VINA RESULT:     -10.3      0.000      0.000
REMARK  Name = C:\Users\Docking\Desktop\test protocol\1iep_ligandH.pdb
REMARK  8 active torsions:
REMARK  status: ('A' for Active; 'I' for Inactive)
REMARK    1  A    between atoms: _5  and  _11
REMARK    2  A    between atoms: _19  and  _21
REMARK    3  A    between atoms: _22  and  _66
REMARK    4  A    between atoms: _27  and  _30
REMARK    5  A    between atoms: _32  and  _33
REMARK    6  A    between atoms: _38  and  _43
REMARK    7  A    between atoms: _43  and  _46
REMARK    8  A    between atoms: _53  and  _55
REMARK                            x       y       z     vdW  Elec       q    Type
REMARK                         _______ _______ _______ _____ _____    ______ ____
ROOT
ATOM     10  C   UNL     1      13.683  28.041 -13.628  0.00  0.00    +0.038 A 
ATOM     11  C   UNL     1      15.010  28.123 -14.121  0.00  0.00    +0.047 A 
ATOM     12  C   UNL     1      16.072  27.300 -13.562  0.00  0.00    +0.035 A 
ATOM     32  C   UNL     1      15.745  26.402 -12.505  0.00  0.00    +0.024 A 
ATOM     33  C   UNL     1      14.401  26.307 -11.991  0.00  0.00    +0.007 A 
ATOM     34  C   UNL     1      13.350  27.118 -12.536  0.00  0.00    -0.029 A 
ATOM     35  C   UNL     1      11.929  26.979 -11.943  0.00  0.00    +0.045 C 
ENDROOT
BRANCH  10   9
ATOM      4  C   UNL     1      11.172  29.627 -17.399  0.00  0.00    +0.077 A 
ATOM      5  C   UNL     1      11.892  28.782 -18.308  0.00  0.00    +0.048 A 
ATOM      6  C   UNL     1      12.905  27.961 -17.767  0.00  0.00    +0.116 A 
ATOM      7  N   UNL     1      13.170  27.989 -16.415  0.00  0.00    -0.223 NA
ATOM      8  C   UNL     1      12.458  28.816 -15.565  0.00  0.00    +0.220 A 
ATOM      9  N   UNL     1      12.703  28.854 -14.201  0.00  0.00    -0.283 N 
ATOM     36  H   UNL     1      12.160  29.484 -13.610  0.00  0.00    +0.155 HD
ATOM     37  N   UNL     1      11.486  29.611 -16.058  0.00  0.00    -0.214 NA
BRANCH   4   3
ATOM      1  C   UNL     1       9.166  32.830 -18.407  0.00  0.00    +0.020 A 
ATOM      2  C   UNL     1      10.263  31.983 -18.000  0.00  0.00    +0.013 A 
ATOM      3  C   UNL     1      10.070  30.549 -17.819  0.00  0.00    +0.019 A 
ATOM     38  C   UNL     1       8.744  30.000 -18.061  0.00  0.00    +0.120 A 
ATOM     39  N   UNL     1       7.706  30.841 -18.451  0.00  0.00    -0.263 NA
ATOM     40  C   UNL     1       7.879  32.222 -18.626  0.00  0.00    +0.111 A 
ENDBRANCH   4   3
ENDBRANCH  10   9
BRANCH  12  13
ATOM     13  N   UNL     1      17.440  27.345 -14.016  0.00  0.00    -0.281 N 
ATOM     14  C   UNL     1      18.330  28.403 -13.932  0.00  0.00    +0.248 C 
ATOM     30  O   UNL     1      18.017  29.548 -13.645  0.00  0.00    -0.270 OA
ATOM     31  H   UNL     1      17.795  26.494 -14.452  0.00  0.00    +0.155 HD
BRANCH  14  15
ATOM     15  C   UNL     1      19.775  28.155 -14.224  0.00  0.00    +0.037 A 
ATOM     16  C   UNL     1      20.765  29.231 -14.128  0.00  0.00    +0.013 A 
ATOM     17  C   UNL     1      22.149  28.969 -14.431  0.00  0.00    +0.005 A 
ATOM     18  C   UNL     1      22.553  27.624 -14.832  0.00  0.00    -0.033 A 
ATOM     28  C   UNL     1      21.551  26.574 -14.914  0.00  0.00    +0.005 A 
ATOM     29  C   UNL     1      20.193  26.827 -14.619  0.00  0.00    +0.013 A 
BRANCH  18  19
ATOM     19  C   UNL     1      24.004  27.259 -15.195  0.00  0.00    +0.119 C 
BRANCH  19  20
ATOM     20  N   UNL     1      25.090  28.081 -14.582  0.00  0.00    -0.302 NA
ATOM     21  C   UNL     1      26.354  28.100 -15.446  0.00  0.00    +0.066 C 
ATOM     22  C   UNL     1      27.471  28.983 -14.801  0.00  0.00    -0.064 C 
ATOM     23  N   UNL     1      27.782  28.462 -13.397  0.00  0.00    +0.379 N 
ATOM     24  C   UNL     1      28.873  29.254 -12.810  0.00  0.00    -0.096 C 
ATOM     25  H   UNL     1      28.143  27.412 -13.499  0.00  0.00    -0.082 HD
ATOM     26  C   UNL     1      26.530  28.437 -12.532  0.00  0.00    -0.064 C 
ATOM     27  C   UNL     1      25.416  27.581 -13.196  0.00  0.00    +0.066 C 
ENDBRANCH  19  20
ENDBRANCH  18  19
ENDBRANCH  14  15
ENDBRANCH  12  13
TORSDOF 6
ENDMDL
MODEL 2
REMARK VINA RESULT:      -9.9      6.801     12.173
REMARK  Name = C:\Users\Docking\Desktop\test protocol\1iep_ligandH.pdb
REMARK  8 active torsions:
REMARK  status: ('A' for Active; 'I' for Inactive)
REMARK    1  A    between atoms: _5  and  _11
REMARK    2  A    between atoms: _19  and  _21
REMARK    3  A    between atoms: _22  and  _66
REMARK    4  A    between atoms: _27  and  _30
REMARK    5  A    between atoms: _32  and  _33
REMARK    6  A    between atoms: _38  and  _43
REMARK    7  A    between atoms: _43  and  _46
REMARK    8  A    between atoms: _53  and  _55
REMARK                            x       y       z     vdW  Elec       q    Type
REMARK                         _______ _______ _______ _____ _____    ______ ____
ROOT
ATOM     10  C   UNL     1      25.936  28.771 -14.738  0.00  0.00    +0.038 A 
ATOM     11  C   UNL     1      26.686  28.366 -15.871  0.00  0.00    +0.047 A 
ATOM     12  C   UNL     1      28.133  28.231 -15.807  0.00  0.00    +0.035 A 
ATOM     32  C   UNL     1      28.783  28.515 -14.571  0.00  0.00    +0.024 A 
ATOM     33  C   UNL     1      28.037  28.929 -13.409  0.00  0.00    +0.007 A 
ATOM     34  C   UNL     1      26.609  29.066 -13.467  0.00  0.00    -0.029 A 
ATOM     35  C   UNL     1      25.861  29.519 -12.192  0.00  0.00    +0.045 C 
ENDROOT
BRANCH  10   9
ATOM      4  C   UNL     1      21.469  27.436 -13.597  0.00  0.00    +0.077 A 
ATOM      5  C   UNL     1      21.938  26.409 -12.712  0.00  0.00    +0.048 A 
ATOM      6  C   UNL     1      23.337  26.252 -12.584  0.00  0.00    +0.116 A 
ATOM      7  N   UNL     1      24.192  27.067 -13.292  0.00  0.00    -0.223 NA
ATOM      8  C   UNL     1      23.706  28.047 -14.139  0.00  0.00    +0.220 A 
ATOM      9  N   UNL     1      24.548  28.883 -14.855  0.00  0.00    -0.283 N 
ATOM     36  H   UNL     1      24.151  29.589 -15.475  0.00  0.00    +0.155 HD
ATOM     37  N   UNL     1      22.375  28.216 -14.280  0.00  0.00    -0.214 NA
BRANCH   4   3
ATOM      1  C   UNL     1      17.562  27.250 -13.521  0.00  0.00    +0.020 A 
ATOM      2  C   UNL     1      18.946  26.927 -13.260  0.00  0.00    +0.013 A 
ATOM      3  C   UNL     1      20.020  27.726 -13.836  0.00  0.00    +0.019 A 
ATOM     38  C   UNL     1      19.657  28.856 -14.678  0.00  0.00    +0.120 A 
ATOM     39  N   UNL     1      18.316  29.142 -14.914  0.00  0.00    -0.263 NA
ATOM     40  C   UNL     1      17.274  28.379 -14.366  0.00  0.00    +0.111 A 
ENDBRANCH   4   3
ENDBRANCH  10   9
BRANCH  12  13
ATOM     13  N   UNL     1      28.948  27.831 -16.927  0.00  0.00    -0.281 N 
ATOM     14  C   UNL     1      30.026  26.962 -16.929  0.00  0.00    +0.248 C 
ATOM     30  O   UNL     1      30.589  26.558 -15.922  0.00  0.00    -0.270 OA
ATOM     31  H   UNL     1      28.700  28.239 -17.829  0.00  0.00    +0.155 HD
BRANCH  14  15
ATOM     15  C   UNL     1      30.565  26.482 -18.238  0.00  0.00    +0.037 A 
ATOM     16  C   UNL     1      31.812  25.716 -18.311  0.00  0.00    +0.013 A 
ATOM     17  C   UNL     1      32.319  25.280 -19.588  0.00  0.00    +0.005 A 
ATOM     18  C   UNL     1      31.577  25.609 -20.803  0.00  0.00    -0.033 A 
ATOM     28  C   UNL     1      30.340  26.366 -20.701  0.00  0.00    +0.005 A 
ATOM     29  C   UNL     1      29.841  26.795 -19.451  0.00  0.00    +0.013 A 
BRANCH  18  19
ATOM     19  C   UNL     1      32.054  25.203 -22.210  0.00  0.00    +0.119 C 
BRANCH  19  20
ATOM     20  N   UNL     1      33.203  24.253 -22.295  0.00  0.00    -0.302 NA
ATOM     21  C   UNL     1      34.501  24.955 -22.703  0.00  0.00    +0.066 C 
ATOM     22  C   UNL     1      35.697  23.950 -22.765  0.00  0.00    -0.064 C 
ATOM     23  N   UNL     1      35.362  22.822 -23.741  0.00  0.00    +0.379 N 
ATOM     24  C   UNL     1      36.507  21.906 -23.845  0.00  0.00    -0.096 C 
ATOM     25  H   UNL     1      35.202  23.280 -24.745  0.00  0.00    -0.082 HD
ATOM     26  C   UNL     1      34.071  22.120 -23.344  0.00  0.00    -0.064 C 
ATOM     27  C   UNL     1      32.895  23.132 -23.257  0.00  0.00    +0.066 C 
ENDBRANCH  19  20
ENDBRANCH  18  19
ENDBRANCH  14  15
ENDBRANCH  12  13
TORSDOF 6
ENDMDL
MODEL 3
REMARK VINA RESULT:      -9.7      6.533     12.113
REMARK  Name = C:\Users\Docking\Desktop\test protocol\1iep_ligandH.pdb
REMARK  8 active torsions:
REMARK  status: ('A' for Active; 'I' for Inactive)
REMARK    1  A    between atoms: _5  and  _11
REMARK    2  A    between atoms: _19  and  _21
REMARK    3  A    between atoms: _22  and  _66
REMARK    4  A    between atoms: _27  and  _30
REMARK    5  A    between atoms: _32  and  _33
REMARK    6  A    between atoms: _38  and  _43
REMARK    7  A    between atoms: _43  and  _46
REMARK    8  A    between atoms: _53  and  _55
REMARK                            x       y       z     vdW  Elec       q    Type
REMARK                         _______ _______ _______ _____ _____    ______ ____
ROOT
ATOM     10  C   UNL     1      25.967  28.772 -14.746  0.00  0.00    +0.038 A 
ATOM     11  C   UNL     1      26.718  28.380 -15.883  0.00  0.00    +0.047 A 
ATOM     12  C   UNL     1      28.165  28.249 -15.821  0.00  0.00    +0.035 A 
ATOM     32  C   UNL     1      28.816  28.522 -14.583  0.00  0.00    +0.024 A 
ATOM     33  C   UNL     1      28.069  28.923 -13.417  0.00  0.00    +0.007 A 
ATOM     34  C   UNL     1      26.641  29.056 -13.473  0.00  0.00    -0.029 A 
ATOM     35  C   UNL     1      25.892  29.496 -12.193  0.00  0.00    +0.045 C 
ENDROOT
BRANCH  10   9
ATOM      4  C   UNL     1      21.504  27.458 -13.569  0.00  0.00    +0.077 A 
ATOM      5  C   UNL     1      21.976  26.447 -12.667  0.00  0.00    +0.048 A 
ATOM      6  C   UNL     1      23.374  26.293 -12.539  0.00  0.00    +0.116 A 
ATOM      7  N   UNL     1      24.228  27.096 -13.265  0.00  0.00    -0.223 NA
ATOM      8  C   UNL     1      23.740  28.059 -14.128  0.00  0.00    +0.220 A 
ATOM      9  N   UNL     1      24.580  28.883 -14.862  0.00  0.00    -0.283 N 
ATOM     36  H   UNL     1      24.180  29.577 -15.493  0.00  0.00    +0.155 HD
ATOM     37  N   UNL     1      22.408  28.225 -14.268  0.00  0.00    -0.214 NA
BRANCH   4   3
ATOM      1  C   UNL     1      18.178  29.124 -14.779  0.00  0.00    +0.020 A 
ATOM      2  C   UNL     1      19.589  28.893 -14.575  0.00  0.00    +0.013 A 
ATOM      3  C   UNL     1      20.054  27.744 -13.809  0.00  0.00    +0.019 A 
ATOM     38  C   UNL     1      19.056  26.839 -13.258  0.00  0.00    +0.120 A 
ATOM     39  N   UNL     1      17.703  27.087 -13.469  0.00  0.00    -0.263 NA
ATOM     40  C   UNL     1      17.245  28.191 -14.203  0.00  0.00    +0.111 A 
ENDBRANCH   4   3
ENDBRANCH  10   9
BRANCH  12  13
ATOM     13  N   UNL     1      28.981  27.862 -16.946  0.00  0.00    -0.281 N 
ATOM     14  C   UNL     1      30.044  26.974 -16.962  0.00  0.00    +0.248 C 
ATOM     30  O   UNL     1      30.594  26.537 -15.962  0.00  0.00    -0.270 OA
ATOM     31  H   UNL     1      28.746  28.296 -17.839  0.00  0.00    +0.155 HD
BRANCH  14  15
ATOM     15  C   UNL     1      30.584  26.517 -18.278  0.00  0.00    +0.037 A 
ATOM     16  C   UNL     1      29.849  26.753 -19.524  0.00  0.00    +0.013 A 
ATOM     17  C   UNL     1      30.384  26.286 -20.778  0.00  0.00    +0.005 A 
ATOM     18  C   UNL     1      31.663  25.580 -20.793  0.00  0.00    -0.033 A 
ATOM     28  C   UNL     1      32.373  25.365 -19.544  0.00  0.00    +0.005 A 
ATOM     29  C   UNL     1      31.851  25.820 -18.312  0.00  0.00    +0.013 A 
BRANCH  18  19
ATOM     19  C   UNL     1      32.299  25.029 -22.083  0.00  0.00    +0.119 C 
BRANCH  19  20
ATOM     20  N   UNL     1      31.477  25.084 -23.328  0.00  0.00    -0.302 NA
ATOM     21  C   UNL     1      31.353  23.711 -23.995  0.00  0.00    +0.066 C 
ATOM     22  C   UNL     1      30.470  23.782 -25.284  0.00  0.00    -0.064 C 
ATOM     23  N   UNL     1      31.069  24.803 -26.253  0.00  0.00    +0.379 N 
ATOM     24  C   UNL     1      30.275  24.830 -27.490  0.00  0.00    -0.096 C 
ATOM     25  H   UNL     1      32.095  24.456 -26.517  0.00  0.00    -0.082 HD
ATOM     26  C   UNL     1      31.199  26.170 -25.597  0.00  0.00    -0.064 C 
ATOM     27  C   UNL     1      32.053  26.083 -24.301  0.00  0.00    +0.066 C 
ENDBRANCH  19  20
ENDBRANCH  18  19
ENDBRANCH  14  15
ENDBRANCH  12  13
TORSDOF 6
ENDMDL
MODEL 4
REMARK VINA RESULT:      -8.9      4.587     11.414
REMARK  Name = C:\Users\Docking\Desktop\test protocol\1iep_ligandH.pdb
REMARK  8 active torsions:
REMARK  status: ('A' for Active; 'I' for Inactive)
REMARK    1  A    between atoms: _5  and  _11
REMARK    2  A    between atoms: _19  and  _21
REMARK    3  A    between atoms: _22  and  _66
REMARK    4  A    between atoms: _27  and  _30
REMARK    5  A    between atoms: _32  and  _33
REMARK    6  A    between atoms: _38  and  _43
REMARK    7  A    between atoms: _43  and  _46
REMARK    8  A    between atoms: _53  and  _55
REMARK                            x       y       z     vdW  Elec       q    Type
REMARK                         _______ _______ _______ _____ _____    ______ ____
ROOT
ATOM     10  C   UNL     1      14.971  26.611 -13.415  0.00  0.00    +0.038 A 
ATOM     11  C   UNL     1      14.655  26.445 -14.788  0.00  0.00    +0.047 A 
ATOM     12  C   UNL     1      13.282  26.534 -15.261  0.00  0.00    +0.035 A 
ATOM     32  C   UNL     1      12.255  26.796 -14.308  0.00  0.00    +0.024 A 
ATOM     33  C   UNL     1      12.558  26.967 -12.909  0.00  0.00    +0.007 A 
ATOM     34  C   UNL     1      13.910  26.878 -12.436  0.00  0.00    -0.029 A 
ATOM     35  C   UNL     1      14.176  27.063 -10.924  0.00  0.00    +0.045 C 
ENDROOT
BRANCH  10   9
ATOM      4  C   UNL     1      19.563  27.991 -13.636  0.00  0.00    +0.077 A 
ATOM      5  C   UNL     1      19.283  28.965 -14.650  0.00  0.00    +0.048 A 
ATOM      6  C   UNL     1      17.946  29.075 -15.093  0.00  0.00    +0.116 A 
ATOM      7  N   UNL     1      16.969  28.266 -14.554  0.00  0.00    -0.223 NA
ATOM      8  C   UNL     1      17.273  27.335 -13.578  0.00  0.00    +0.220 A 
ATOM      9  N   UNL     1      16.306  26.516 -13.017  0.00  0.00    -0.283 N 
ATOM     36  H   UNL     1      16.572  25.837 -12.304  0.00  0.00    +0.155 HD
ATOM     37  N   UNL     1      18.543  27.209 -13.140  0.00  0.00    -0.214 NA
BRANCH   4   3
ATOM      1  C   UNL     1      23.133  28.564 -12.143  0.00  0.00    +0.020 A 
ATOM      2  C   UNL     1      21.826  28.843 -12.693  0.00  0.00    +0.013 A 
ATOM      3  C   UNL     1      20.926  27.758 -13.063  0.00  0.00    +0.019 A 
ATOM     38  C   UNL     1      21.382  26.391 -12.860  0.00  0.00    +0.120 A 
ATOM     39  N   UNL     1      22.646  26.152 -12.330  0.00  0.00    -0.263 NA
ATOM     40  C   UNL     1      23.521  27.188 -11.972  0.00  0.00    +0.111 A 
ENDBRANCH   4   3
ENDBRANCH  10   9
BRANCH  12  13
ATOM     13  N   UNL     1      12.901  26.366 -16.641  0.00  0.00    -0.281 N 
ATOM     14  C   UNL     1      13.148  27.220 -17.703  0.00  0.00    +0.248 C 
ATOM     30  O   UNL     1      13.551  28.368 -17.588  0.00  0.00    -0.270 OA
ATOM     31  H   UNL     1      12.386  25.513 -16.862  0.00  0.00    +0.155 HD
BRANCH  14  15
ATOM     15  C   UNL     1      12.897  26.734 -19.094  0.00  0.00    +0.037 A 
ATOM     16  C   UNL     1      11.540  26.442 -19.564  0.00  0.00    +0.013 A 
ATOM     17  C   UNL     1      11.327  25.958 -20.905  0.00  0.00    +0.005 A 
ATOM     18  C   UNL     1      12.475  25.765 -21.787  0.00  0.00    -0.033 A 
ATOM     28  C   UNL     1      13.810  26.068 -21.297  0.00  0.00    +0.005 A 
ATOM     29  C   UNL     1      14.022  26.541 -19.983  0.00  0.00    +0.013 A 
BRANCH  18  19
ATOM     19  C   UNL     1      12.344  25.233 -23.226  0.00  0.00    +0.119 C 
BRANCH  19  20
ATOM     20  N   UNL     1      13.496  25.463 -24.148  0.00  0.00    -0.302 NA
ATOM     21  C   UNL     1      13.059  25.504 -25.615  0.00  0.00    +0.066 C 
ATOM     22  C   UNL     1      14.273  25.768 -26.564  0.00  0.00    -0.064 C 
ATOM     23  N   UNL     1      15.332  24.687 -26.345  0.00  0.00    +0.379 N 
ATOM     24  C   UNL     1      16.450  24.899 -27.276  0.00  0.00    -0.096 C 
ATOM     25  H   UNL     1      14.868  23.704 -26.591  0.00  0.00    -0.082 HD
ATOM     26  C   UNL     1      15.771  24.638 -24.888  0.00  0.00    -0.064 C 
ATOM     27  C   UNL     1      14.553  24.404 -23.951  0.00  0.00    +0.066 C 
ENDBRANCH  19  20
ENDBRANCH  18  19
ENDBRANCH  14  15
ENDBRANCH  12  13
TORSDOF 6
ENDMDL
MODEL 5
REMARK VINA RESULT:      -8.8     22.398     24.512
REMARK  Name = C:\Users\Docking\Desktop\test protocol\1iep_ligandH.pdb
REMARK  8 active torsions:
REMARK  status: ('A' for Active; 'I' for Inactive)
REMARK    1  A    between atoms: _5  and  _11
REMARK    2  A    between atoms: _19  and  _21
REMARK    3  A    between atoms: _22  and  _66
REMARK    4  A    between atoms: _27  and  _30
REMARK    5  A    between atoms: _32  and  _33
REMARK    6  A    between atoms: _38  and  _43
REMARK    7  A    between atoms: _43  and  _46
REMARK    8  A    between atoms: _53  and  _55
REMARK                            x       y       z     vdW  Elec       q    Type
REMARK                         _______ _______ _______ _____ _____    ______ ____
ROOT
ATOM     10  C   UNL     1      35.567  20.561  -3.332  0.00  0.00    +0.038 A 
ATOM     11  C   UNL     1      35.800  21.510  -4.360  0.00  0.00    +0.047 A 
ATOM     12  C   UNL     1      36.533  21.151  -5.564  0.00  0.00    +0.035 A 
ATOM     32  C   UNL     1      37.012  19.814  -5.690  0.00  0.00    +0.024 A 
ATOM     33  C   UNL     1      36.785  18.837  -4.654  0.00  0.00    +0.007 A 
ATOM     34  C   UNL     1      36.065  19.186  -3.463  0.00  0.00    -0.029 A 
ATOM     35  C   UNL     1      35.857  18.099  -2.383  0.00  0.00    +0.045 C 
ENDROOT
BRANCH  10   9
ATOM      4  C   UNL     1      35.348  22.448   1.076  0.00  0.00    +0.077 A 
ATOM      5  C   UNL     1      36.770  22.629   1.133  0.00  0.00    +0.048 A 
ATOM      6  C   UNL     1      37.522  22.217   0.011  0.00  0.00    +0.116 A 
ATOM      7  N   UNL     1      36.889  21.667  -1.083  0.00  0.00    -0.223 NA
ATOM      8  C   UNL     1      35.516  21.504  -1.105  0.00  0.00    +0.220 A 
ATOM      9  N   UNL     1      34.858  20.960  -2.197  0.00  0.00    -0.283 N 
ATOM     36  H   UNL     1      33.845  20.850  -2.172  0.00  0.00    +0.155 HD
ATOM     37  N   UNL     1      34.775  21.888  -0.045  0.00  0.00    -0.214 NA
BRANCH   4   3
ATOM      1  C   UNL     1      32.720  22.298   3.970  0.00  0.00    +0.020 A 
ATOM      2  C   UNL     1      33.603  21.870   2.909  0.00  0.00    +0.013 A 
ATOM      3  C   UNL     1      34.416  22.837   2.182  0.00  0.00    +0.019 A 
ATOM     38  C   UNL     1      34.312  24.239   2.555  0.00  0.00    +0.120 A 
ATOM     39  N   UNL     1      33.452  24.622   3.580  0.00  0.00    -0.263 NA
ATOM     40  C   UNL     1      32.663  23.701   4.286  0.00  0.00    +0.111 A 
ENDBRANCH   4   3
ENDBRANCH  10   9
BRANCH  12  13
ATOM     13  N   UNL     1      36.807  22.074  -6.637  0.00  0.00    -0.281 N 
ATOM     14  C   UNL     1      37.983  22.762  -6.889  0.00  0.00    +0.248 C 
ATOM     30  O   UNL     1      38.914  22.851  -6.103  0.00  0.00    -0.270 OA
ATOM     31  H   UNL     1      36.041  22.241  -7.290  0.00  0.00    +0.155 HD
BRANCH  14  15
ATOM     15  C   UNL     1      38.142  23.464  -8.199  0.00  0.00    +0.037 A 
ATOM     16  C   UNL     1      39.448  23.955  -8.645  0.00  0.00    +0.013 A 
ATOM     17  C   UNL     1      39.571  24.644  -9.905  0.00  0.00    +0.005 A 
ATOM     18  C   UNL     1      38.381  24.846 -10.729  0.00  0.00    -0.033 A 
ATOM     28  C   UNL     1      37.098  24.344 -10.265  0.00  0.00    +0.005 A 
ATOM     29  C   UNL     1      36.975  23.669  -9.030  0.00  0.00    +0.013 A 
BRANCH  18  19
ATOM     19  C   UNL     1      38.415  25.589 -12.078  0.00  0.00    +0.119 C 
BRANCH  19  20
ATOM     20  N   UNL     1      39.423  26.680 -12.233  0.00  0.00    -0.302 NA
ATOM     21  C   UNL     1      39.012  27.952 -11.487  0.00  0.00    +0.066 C 
ATOM     22  C   UNL     1      40.088  29.076 -11.641  0.00  0.00    -0.064 C 
ATOM     23  N   UNL     1      40.309  29.366 -13.126  0.00  0.00    +0.379 N 
ATOM     24  C   UNL     1      41.279  30.462 -13.273  0.00  0.00    -0.096 C 
ATOM     25  H   UNL     1      39.339  29.713 -13.551  0.00  0.00    -0.082 HD
ATOM     26  C   UNL     1      40.716  28.105 -13.876  0.00  0.00    -0.064 C 
ATOM     27  C   UNL     1      39.654  26.986 -13.692  0.00  0.00    +0.066 C 
ENDBRANCH  19  20
ENDBRANCH  18  19
ENDBRANCH  14  15
ENDBRANCH  12  13
TORSDOF 6
ENDMDL
