MODEL 1
REMARK VINA RESULT:     -11.0      0.000      0.000
REMARK  Name = C:\Users\Docking\Desktop\test protocol\1iep_ligandH.pdb
REMARK  8 active torsions:
REMARK  status: ('A' for Active; 'I' for Inactive)
REMARK    1  A    between atoms: _5  and  _11
REMARK    2  A    between atoms: _19  and  _21
REMARK    3  A    between atoms: _22  and  _66
REMARK    4  A    between atoms: _27  and  _30
REMARK    5  A    between atoms: _32  and  _33
REMARK    6  A    between atoms: _38  and  _43
REMARK    7  A    between atoms: _43  and  _46
REMARK    8  A    between atoms: _53  and  _55
REMARK                            x       y       z     vdW  Elec       q    Type
REMARK                         _______ _______ _______ _____ _____    ______ ____
ROOT
ATOM     10  C   UNL     1      14.264 -28.007  13.930  0.00  0.00    +0.038 A 
ATOM     11  C   UNL     1      15.601 -28.423  14.151  0.00  0.00    +0.047 A 
ATOM     12  C   UNL     1      16.721 -27.698  13.571  0.00  0.00    +0.035 A 
ATOM     32  C   UNL     1      16.442 -26.551  12.773  0.00  0.00    +0.024 A 
ATOM     33  C   UNL     1      15.088 -26.114  12.537  0.00  0.00    +0.007 A 
ATOM     34  C   UNL     1      13.979 -26.827  13.105  0.00  0.00    -0.029 A 
ATOM     35  C   UNL     1      12.549 -26.317  12.813  0.00  0.00    +0.045 C 
ENDROOT
BRANCH  10   9
ATOM      4  C   UNL     1      11.563 -29.266  17.693  0.00  0.00    +0.077 A 
ATOM      5  C   UNL     1      12.296 -28.411  18.581  0.00  0.00    +0.048 A 
ATOM      6  C   UNL     1      13.366 -27.669  18.031  0.00  0.00    +0.116 A 
ATOM      7  N   UNL     1      13.670 -27.782  16.692  0.00  0.00    -0.223 NA
ATOM      8  C   UNL     1      12.944 -28.617  15.863  0.00  0.00    +0.220 A 
ATOM      9  N   UNL     1      13.227 -28.740  14.512  0.00  0.00    -0.283 N 
ATOM     36  H   UNL     1      12.672 -29.373  13.936  0.00  0.00    +0.155 HD
ATOM     37  N   UNL     1      11.918 -29.338  16.364  0.00  0.00    -0.214 NA
BRANCH   4   3
ATOM      1  C   UNL     1       8.742 -31.975  17.767  0.00  0.00    +0.020 A 
ATOM      2  C   UNL     1       9.862 -31.189  17.305  0.00  0.00    +0.013 A 
ATOM      3  C   UNL     1      10.404 -30.111  18.123  0.00  0.00    +0.019 A 
ATOM     38  C   UNL     1       9.785 -29.853  19.414  0.00  0.00    +0.120 A 
ATOM     39  N   UNL     1       8.706 -30.626  19.833  0.00  0.00    -0.263 NA
ATOM     40  C   UNL     1       8.175 -31.665  19.053  0.00  0.00    +0.111 A 
ENDBRANCH   4   3
ENDBRANCH  10   9
BRANCH  12  13
ATOM     13  N   UNL     1      18.099 -28.079  13.753  0.00  0.00    -0.281 N 
ATOM     14  C   UNL     1      19.225 -27.278  13.649  0.00  0.00    +0.248 C 
ATOM     30  O   UNL     1      19.231 -26.154  13.170  0.00  0.00    -0.270 OA
ATOM     31  H   UNL     1      18.266 -29.058  13.989  0.00  0.00    +0.155 HD
BRANCH  14  15
ATOM     15  C   UNL     1      20.536 -27.808  14.133  0.00  0.00    +0.037 A 
ATOM     16  C   UNL     1      21.056 -29.094  13.662  0.00  0.00    +0.013 A 
ATOM     17  C   UNL     1      22.316 -29.590  14.158  0.00  0.00    +0.005 A 
ATOM     18  C   UNL     1      23.064 -28.799  15.131  0.00  0.00    -0.033 A 
ATOM     28  C   UNL     1      22.527 -27.524  15.578  0.00  0.00    +0.005 A 
ATOM     29  C   UNL     1      21.292 -27.035  15.094  0.00  0.00    +0.013 A 
BRANCH  18  19
ATOM     19  C   UNL     1      24.406 -29.260  15.731  0.00  0.00    +0.119 C 
BRANCH  19  20
ATOM     20  N   UNL     1      25.539 -29.478  14.783  0.00  0.00    -0.302 NA
ATOM     21  C   UNL     1      26.878 -29.033  15.377  0.00  0.00    +0.066 C 
ATOM     22  C   UNL     1      28.056 -29.289  14.381  0.00  0.00    -0.064 C 
ATOM     23  N   UNL     1      27.777 -28.557  13.067  0.00  0.00    +0.379 N 
ATOM     24  C   UNL     1      28.909 -28.748  12.149  0.00  0.00    -0.096 C 
ATOM     25  H   UNL     1      27.706 -27.468  13.295  0.00  0.00    -0.082 HD
ATOM     26  C   UNL     1      26.445 -28.991  12.471  0.00  0.00    -0.064 C 
ATOM     27  C   UNL     1      25.286 -28.760  13.480  0.00  0.00    +0.066 C 
ENDBRANCH  19  20
ENDBRANCH  18  19
ENDBRANCH  14  15
ENDBRANCH  12  13
TORSDOF 6
ENDMDL
MODEL 2
REMARK VINA RESULT:     -10.3      4.286      8.587
REMARK  Name = C:\Users\Docking\Desktop\test protocol\1iep_ligandH.pdb
REMARK  8 active torsions:
REMARK  status: ('A' for Active; 'I' for Inactive)
REMARK    1  A    between atoms: _5  and  _11
REMARK    2  A    between atoms: _19  and  _21
REMARK    3  A    between atoms: _22  and  _66
REMARK    4  A    between atoms: _27  and  _30
REMARK    5  A    between atoms: _32  and  _33
REMARK    6  A    between atoms: _38  and  _43
REMARK    7  A    between atoms: _43  and  _46
REMARK    8  A    between atoms: _53  and  _55
REMARK                            x       y       z     vdW  Elec       q    Type
REMARK                         _______ _______ _______ _____ _____    ______ ____
ROOT
ATOM     10  C   UNL     1      22.420 -29.912  12.276  0.00  0.00    +0.038 A 
ATOM     11  C   UNL     1      23.331 -29.380  13.224  0.00  0.00    +0.047 A 
ATOM     12  C   UNL     1      24.768 -29.470  13.019  0.00  0.00    +0.035 A 
ATOM     32  C   UNL     1      25.243 -30.108  11.836  0.00  0.00    +0.024 A 
ATOM     33  C   UNL     1      24.331 -30.656  10.863  0.00  0.00    +0.007 A 
ATOM     34  C   UNL     1      22.912 -30.572  11.061  0.00  0.00    -0.029 A 
ATOM     35  C   UNL     1      21.981 -31.182   9.987  0.00  0.00    +0.045 C 
ENDROOT
BRANCH  10   9
ATOM      4  C   UNL     1      18.528 -27.353  13.432  0.00  0.00    +0.077 A 
ATOM      5  C   UNL     1      19.292 -26.148  13.582  0.00  0.00    +0.048 A 
ATOM      6  C   UNL     1      20.685 -26.231  13.360  0.00  0.00    +0.116 A 
ATOM      7  N   UNL     1      21.260 -27.435  13.014  0.00  0.00    -0.223 NA
ATOM      8  C   UNL     1      20.494 -28.578  12.879  0.00  0.00    +0.220 A 
ATOM      9  N   UNL     1      21.050 -29.797  12.523  0.00  0.00    -0.283 N 
ATOM     36  H   UNL     1      20.452 -30.619  12.442  0.00  0.00    +0.155 HD
ATOM     37  N   UNL     1      19.162 -28.525  13.087  0.00  0.00    -0.214 NA
BRANCH   4   3
ATOM      1  C   UNL     1      14.994 -28.104  14.932  0.00  0.00    +0.020 A 
ATOM      2  C   UNL     1      16.431 -28.062  14.788  0.00  0.00    +0.013 A 
ATOM      3  C   UNL     1      17.045 -27.425  13.630  0.00  0.00    +0.019 A 
ATOM     38  C   UNL     1      16.170 -26.836  12.628  0.00  0.00    +0.120 A 
ATOM     39  N   UNL     1      14.790 -26.893  12.792  0.00  0.00    -0.263 NA
ATOM     40  C   UNL     1      14.187 -27.504  13.902  0.00  0.00    +0.111 A 
ENDBRANCH   4   3
ENDBRANCH  10   9
BRANCH  12  13
ATOM     13  N   UNL     1      25.742 -28.955  13.950  0.00  0.00    -0.281 N 
ATOM     14  C   UNL     1      26.172 -29.527  15.135  0.00  0.00    +0.248 C 
ATOM     30  O   UNL     1      25.625 -30.472  15.685  0.00  0.00    -0.270 OA
ATOM     31  H   UNL     1      26.165 -28.060  13.704  0.00  0.00    +0.155 HD
BRANCH  14  15
ATOM     15  C   UNL     1      27.375 -28.959  15.816  0.00  0.00    +0.037 A 
ATOM     16  C   UNL     1      27.288 -27.733  16.615  0.00  0.00    +0.013 A 
ATOM     17  C   UNL     1      28.467 -27.197  17.247  0.00  0.00    +0.005 A 
ATOM     18  C   UNL     1      29.744 -27.888  17.084  0.00  0.00    -0.033 A 
ATOM     28  C   UNL     1      29.801 -29.105  16.292  0.00  0.00    +0.005 A 
ATOM     29  C   UNL     1      28.647 -29.633  15.669  0.00  0.00    +0.013 A 
BRANCH  18  19
ATOM     19  C   UNL     1      31.057 -27.376  17.706  0.00  0.00    +0.119 C 
BRANCH  19  20
ATOM     20  N   UNL     1      30.946 -26.407  18.837  0.00  0.00    -0.302 NA
ATOM     21  C   UNL     1      32.221 -25.576  19.008  0.00  0.00    +0.066 C 
ATOM     22  C   UNL     1      32.079 -24.552  20.181  0.00  0.00    -0.064 C 
ATOM     23  N   UNL     1      31.745 -25.302  21.471  0.00  0.00    +0.379 N 
ATOM     24  C   UNL     1      31.668 -24.348  22.587  0.00  0.00    -0.096 C 
ATOM     25  H   UNL     1      32.585 -26.003  21.682  0.00  0.00    -0.082 HD
ATOM     26  C   UNL     1      30.480 -26.133  21.309  0.00  0.00    -0.064 C 
ATOM     27  C   UNL     1      30.620 -27.127  20.122  0.00  0.00    +0.066 C 
ENDBRANCH  19  20
ENDBRANCH  18  19
ENDBRANCH  14  15
ENDBRANCH  12  13
TORSDOF 6
ENDMDL
MODEL 3
REMARK VINA RESULT:     -10.3      6.622     11.657
REMARK  Name = C:\Users\Docking\Desktop\test protocol\1iep_ligandH.pdb
REMARK  8 active torsions:
REMARK  status: ('A' for Active; 'I' for Inactive)
REMARK    1  A    between atoms: _5  and  _11
REMARK    2  A    between atoms: _19  and  _21
REMARK    3  A    between atoms: _22  and  _66
REMARK    4  A    between atoms: _27  and  _30
REMARK    5  A    between atoms: _32  and  _33
REMARK    6  A    between atoms: _38  and  _43
REMARK    7  A    between atoms: _43  and  _46
REMARK    8  A    between atoms: _53  and  _55
REMARK                            x       y       z     vdW  Elec       q    Type
REMARK                         _______ _______ _______ _____ _____    ______ ____
ROOT
ATOM     10  C   UNL     1      25.800 -28.903  14.760  0.00  0.00    +0.038 A 
ATOM     11  C   UNL     1      26.541 -28.509  15.903  0.00  0.00    +0.047 A 
ATOM     12  C   UNL     1      27.991 -28.400  15.859  0.00  0.00    +0.035 A 
ATOM     32  C   UNL     1      28.654 -28.698  14.633  0.00  0.00    +0.024 A 
ATOM     33  C   UNL     1      27.916 -29.101  13.461  0.00  0.00    +0.007 A 
ATOM     34  C   UNL     1      26.486 -29.213  13.499  0.00  0.00    -0.029 A 
ATOM     35  C   UNL     1      25.747 -29.656  12.215  0.00  0.00    +0.045 C 
ENDROOT
BRANCH  10   9
ATOM      4  C   UNL     1      21.374 -27.468  13.580  0.00  0.00    +0.077 A 
ATOM      5  C   UNL     1      21.875 -26.439  12.715  0.00  0.00    +0.048 A 
ATOM      6  C   UNL     1      23.277 -26.307  12.607  0.00  0.00    +0.116 A 
ATOM      7  N   UNL     1      24.108 -27.148  13.315  0.00  0.00    -0.223 NA
ATOM      8  C   UNL     1      23.593 -28.129  14.142  0.00  0.00    +0.220 A 
ATOM      9  N   UNL     1      24.409 -28.991  14.858  0.00  0.00    -0.283 N 
ATOM     36  H   UNL     1      23.990 -29.697  15.463  0.00  0.00    +0.155 HD
ATOM     37  N   UNL     1      22.257 -28.274  14.264  0.00  0.00    -0.214 NA
BRANCH   4   3
ATOM      1  C   UNL     1      18.006 -29.093  14.726  0.00  0.00    +0.020 A 
ATOM      2  C   UNL     1      19.424 -28.883  14.546  0.00  0.00    +0.013 A 
ATOM      3  C   UNL     1      19.917 -27.734  13.796  0.00  0.00    +0.019 A 
ATOM     38  C   UNL     1      18.941 -26.809  13.239  0.00  0.00    +0.120 A 
ATOM     39  N   UNL     1      17.582 -27.039  13.428  0.00  0.00    -0.263 NA
ATOM     40  C   UNL     1      17.096 -28.142  14.146  0.00  0.00    +0.111 A 
ENDBRANCH   4   3
ENDBRANCH  10   9
BRANCH  12  13
ATOM     13  N   UNL     1      28.797 -28.012  16.990  0.00  0.00    -0.281 N 
ATOM     14  C   UNL     1      29.878 -27.145  17.008  0.00  0.00    +0.248 C 
ATOM     30  O   UNL     1      30.451 -26.734  16.010  0.00  0.00    -0.270 OA
ATOM     31  H   UNL     1      28.540 -28.428  17.885  0.00  0.00    +0.155 HD
BRANCH  14  15
ATOM     15  C   UNL     1      30.407 -26.679  18.326  0.00  0.00    +0.037 A 
ATOM     16  C   UNL     1      29.612 -26.802  19.550  0.00  0.00    +0.013 A 
ATOM     17  C   UNL     1      30.139 -26.328  20.806  0.00  0.00    +0.005 A 
ATOM     18  C   UNL     1      31.471 -25.729  20.842  0.00  0.00    -0.033 A 
ATOM     28  C   UNL     1      32.240 -25.624  19.613  0.00  0.00    +0.005 A 
ATOM     29  C   UNL     1      31.726 -26.086  18.381  0.00  0.00    +0.013 A 
BRANCH  18  19
ATOM     19  C   UNL     1      32.105 -25.178  22.133  0.00  0.00    +0.119 C 
BRANCH  19  20
ATOM     20  N   UNL     1      31.899 -23.729  22.431  0.00  0.00    -0.302 NA
ATOM     21  C   UNL     1      33.208 -23.028  22.807  0.00  0.00    +0.066 C 
ATOM     22  C   UNL     1      32.978 -21.509  23.094  0.00  0.00    -0.064 C 
ATOM     23  N   UNL     1      31.942 -21.354  24.208  0.00  0.00    +0.379 N 
ATOM     24  C   UNL     1      31.766 -19.928  24.520  0.00  0.00    -0.096 C 
ATOM     25  H   UNL     1      32.348 -21.852  25.119  0.00  0.00    -0.082 HD
ATOM     26  C   UNL     1      30.638 -22.050  23.844  0.00  0.00    -0.064 C 
ATOM     27  C   UNL     1      30.882 -23.553  23.532  0.00  0.00    +0.066 C 
ENDBRANCH  19  20
ENDBRANCH  18  19
ENDBRANCH  14  15
ENDBRANCH  12  13
TORSDOF 6
ENDMDL
MODEL 4
REMARK VINA RESULT:     -10.1      2.151     12.959
REMARK  Name = C:\Users\Docking\Desktop\test protocol\1iep_ligandH.pdb
REMARK  8 active torsions:
REMARK  status: ('A' for Active; 'I' for Inactive)
REMARK    1  A    between atoms: _5  and  _11
REMARK    2  A    between atoms: _19  and  _21
REMARK    3  A    between atoms: _22  and  _66
REMARK    4  A    between atoms: _27  and  _30
REMARK    5  A    between atoms: _32  and  _33
REMARK    6  A    between atoms: _38  and  _43
REMARK    7  A    between atoms: _43  and  _46
REMARK    8  A    between atoms: _53  and  _55
REMARK                            x       y       z     vdW  Elec       q    Type
REMARK                         _______ _______ _______ _____ _____    ______ ____
ROOT
ATOM     10  C   UNL     1      23.761 -30.047  11.940  0.00  0.00    +0.038 A 
ATOM     11  C   UNL     1      22.560 -29.628  12.568  0.00  0.00    +0.047 A 
ATOM     12  C   UNL     1      21.261 -29.972  12.013  0.00  0.00    +0.035 A 
ATOM     32  C   UNL     1      21.221 -30.746  10.817  0.00  0.00    +0.024 A 
ATOM     33  C   UNL     1      22.432 -31.179  10.164  0.00  0.00    +0.007 A 
ATOM     34  C   UNL     1      23.716 -30.841  10.707  0.00  0.00    -0.029 A 
ATOM     35  C   UNL     1      24.982 -31.327   9.962  0.00  0.00    +0.045 C 
ENDROOT
BRANCH  10   9
ATOM      4  C   UNL     1      26.486 -28.938  15.733  0.00  0.00    +0.077 A 
ATOM      5  C   UNL     1      25.379 -29.057  16.638  0.00  0.00    +0.048 A 
ATOM      6  C   UNL     1      24.124 -29.398  16.086  0.00  0.00    +0.116 A 
ATOM      7  N   UNL     1      23.997 -29.603  14.729  0.00  0.00    -0.223 NA
ATOM      8  C   UNL     1      25.084 -29.479  13.884  0.00  0.00    +0.220 A 
ATOM      9  N   UNL     1      24.981 -29.688  12.517  0.00  0.00    -0.283 N 
ATOM     36  H   UNL     1      25.805 -29.579  11.927  0.00  0.00    +0.155 HD
ATOM     37  N   UNL     1      26.293 -29.152  14.386  0.00  0.00    -0.214 NA
BRANCH   4   3
ATOM      1  C   UNL     1      29.564 -27.046  17.233  0.00  0.00    +0.020 A 
ATOM      2  C   UNL     1      28.205 -27.337  16.836  0.00  0.00    +0.013 A 
ATOM      3  C   UNL     1      27.876 -28.587  16.164  0.00  0.00    +0.019 A 
ATOM     38  C   UNL     1      28.954 -29.531  15.906  0.00  0.00    +0.120 A 
ATOM     39  N   UNL     1      30.253 -29.223  16.298  0.00  0.00    -0.263 NA
ATOM     40  C   UNL     1      30.582 -28.022  16.944  0.00  0.00    +0.111 A 
ENDBRANCH   4   3
ENDBRANCH  10   9
BRANCH  12  13
ATOM     13  N   UNL     1      20.008 -29.568  12.601  0.00  0.00    -0.281 N 
ATOM     14  C   UNL     1      19.673 -28.330  13.125  0.00  0.00    +0.248 C 
ATOM     30  O   UNL     1      20.476 -27.439  13.362  0.00  0.00    -0.270 OA
ATOM     31  H   UNL     1      19.280 -30.281  12.636  0.00  0.00    +0.155 HD
BRANCH  14  15
ATOM     15  C   UNL     1      18.241 -28.045  13.447  0.00  0.00    +0.037 A 
ATOM     16  C   UNL     1      17.460 -27.092  12.655  0.00  0.00    +0.013 A 
ATOM     17  C   UNL     1      16.086 -26.822  12.997  0.00  0.00    +0.005 A 
ATOM     18  C   UNL     1      15.484 -27.510  14.136  0.00  0.00    -0.033 A 
ATOM     28  C   UNL     1      16.280 -28.455  14.901  0.00  0.00    +0.005 A 
ATOM     29  C   UNL     1      17.627 -28.721  14.570  0.00  0.00    +0.013 A 
BRANCH  18  19
ATOM     19  C   UNL     1      14.030 -27.269  14.586  0.00  0.00    +0.119 C 
BRANCH  19  20
ATOM     20  N   UNL     1      13.634 -27.790  15.928  0.00  0.00    -0.302 NA
ATOM     21  C   UNL     1      12.416 -28.715  15.848  0.00  0.00    +0.066 C 
ATOM     22  C   UNL     1      12.029 -29.270  17.258  0.00  0.00    -0.064 C 
ATOM     23  N   UNL     1      11.761 -28.100  18.207  0.00  0.00    +0.379 N 
ATOM     24  C   UNL     1      11.340 -28.618  19.517  0.00  0.00    -0.096 C 
ATOM     25  H   UNL     1      10.911 -27.513  17.787  0.00  0.00    -0.082 HD
ATOM     26  C   UNL     1      12.966 -27.174  18.290  0.00  0.00    -0.064 C 
ATOM     27  C   UNL     1      13.360 -26.652  16.880  0.00  0.00    +0.066 C 
ENDBRANCH  19  20
ENDBRANCH  18  19
ENDBRANCH  14  15
ENDBRANCH  12  13
TORSDOF 6
ENDMDL
MODEL 5
REMARK VINA RESULT:      -9.7      7.183     14.085
REMARK  Name = C:\Users\Docking\Desktop\test protocol\1iep_ligandH.pdb
REMARK  8 active torsions:
REMARK  status: ('A' for Active; 'I' for Inactive)
REMARK    1  A    between atoms: _5  and  _11
REMARK    2  A    between atoms: _19  and  _21
REMARK    3  A    between atoms: _22  and  _66
REMARK    4  A    between atoms: _27  and  _30
REMARK    5  A    between atoms: _32  and  _33
REMARK    6  A    between atoms: _38  and  _43
REMARK    7  A    between atoms: _43  and  _46
REMARK    8  A    between atoms: _53  and  _55
REMARK                            x       y       z     vdW  Elec       q    Type
REMARK                         _______ _______ _______ _____ _____    ______ ____
ROOT
ATOM     10  C   UNL     1      30.488 -25.969  20.657  0.00  0.00    +0.038 A 
ATOM     11  C   UNL     1      29.577 -26.350  19.639  0.00  0.00    +0.047 A 
ATOM     12  C   UNL     1      30.040 -26.683  18.300  0.00  0.00    +0.035 A 
ATOM     32  C   UNL     1      31.438 -26.620  18.034  0.00  0.00    +0.024 A 
ATOM     33  C   UNL     1      32.379 -26.234  19.057  0.00  0.00    +0.007 A 
ATOM     34  C   UNL     1      31.928 -25.902  20.378  0.00  0.00    -0.029 A 
ATOM     35  C   UNL     1      32.980 -25.489  21.434  0.00  0.00    +0.045 C 
ENDROOT
BRANCH  10   9
ATOM      4  C   UNL     1      27.106 -26.230  24.053  0.00  0.00    +0.077 A 
ATOM      5  C   UNL     1      26.250 -27.027  23.222  0.00  0.00    +0.048 A 
ATOM      6  C   UNL     1      26.714 -27.342  21.925  0.00  0.00    +0.116 A 
ATOM      7  N   UNL     1      27.944 -26.888  21.501  0.00  0.00    -0.223 NA
ATOM      8  C   UNL     1      28.744 -26.120  22.327  0.00  0.00    +0.220 A 
ATOM      9  N   UNL     1      29.989 -25.660  21.924  0.00  0.00    -0.283 N 
ATOM     36  H   UNL     1      30.545 -25.090  22.560  0.00  0.00    +0.155 HD
ATOM     37  N   UNL     1      28.323 -25.805  23.569  0.00  0.00    -0.214 NA
BRANCH   4   3
ATOM      1  C   UNL     1      25.148 -25.593  27.378  0.00  0.00    +0.020 A 
ATOM      2  C   UNL     1      25.432 -26.009  26.024  0.00  0.00    +0.013 A 
ATOM      3  C   UNL     1      26.757 -25.817  25.449  0.00  0.00    +0.019 A 
ATOM     38  C   UNL     1      27.781 -25.196  26.277  0.00  0.00    +0.120 A 
ATOM     39  N   UNL     1      27.477 -24.804  27.577  0.00  0.00    -0.263 NA
ATOM     40  C   UNL     1      26.205 -24.982  28.141  0.00  0.00    +0.111 A 
ENDBRANCH   4   3
ENDBRANCH  10   9
BRANCH  12  13
ATOM     13  N   UNL     1      29.161 -27.068  17.224  0.00  0.00    -0.281 N 
ATOM     14  C   UNL     1      29.110 -28.282  16.560  0.00  0.00    +0.248 C 
ATOM     30  O   UNL     1      29.961 -29.154  16.647  0.00  0.00    -0.270 OA
ATOM     31  H   UNL     1      28.495 -26.359  16.915  0.00  0.00    +0.155 HD
BRANCH  14  15
ATOM     15  C   UNL     1      27.953 -28.563  15.656  0.00  0.00    +0.037 A 
ATOM     16  C   UNL     1      28.155 -28.902  14.245  0.00  0.00    +0.013 A 
ATOM     17  C   UNL     1      27.021 -29.151  13.391  0.00  0.00    +0.005 A 
ATOM     18  C   UNL     1      25.673 -29.063  13.947  0.00  0.00    -0.033 A 
ATOM     28  C   UNL     1      25.501 -28.730  15.351  0.00  0.00    +0.005 A 
ATOM     29  C   UNL     1      26.610 -28.484  16.191  0.00  0.00    +0.013 A 
BRANCH  18  19
ATOM     19  C   UNL     1      24.404 -29.293  13.104  0.00  0.00    +0.119 C 
BRANCH  19  20
ATOM     20  N   UNL     1      23.163 -28.578  13.529  0.00  0.00    -0.302 NA
ATOM     21  C   UNL     1      21.899 -29.370  13.185  0.00  0.00    +0.066 C 
ATOM     22  C   UNL     1      20.611 -28.619  13.656  0.00  0.00    -0.064 C 
ATOM     23  N   UNL     1      20.571 -27.231  13.016  0.00  0.00    +0.379 N 
ATOM     24  C   UNL     1      19.333 -26.544  13.411  0.00  0.00    -0.096 C 
ATOM     25  H   UNL     1      20.543 -27.369  11.910  0.00  0.00    -0.082 HD
ATOM     26  C   UNL     1      21.826 -26.437  13.350  0.00  0.00    -0.064 C 
ATOM     27  C   UNL     1      23.101 -27.206  12.904  0.00  0.00    +0.066 C 
ENDBRANCH  19  20
ENDBRANCH  18  19
ENDBRANCH  14  15
ENDBRANCH  12  13
TORSDOF 6
ENDMDL
