MODEL 1
REMARK VINA RESULT:      -9.4      0.000      0.000
REMARK  Name = C:\Users\Docking\Desktop\test protocol\1iep_ligandH.pdb
REMARK  8 active torsions:
REMARK  status: ('A' for Active; 'I' for Inactive)
REMARK    1  A    between atoms: _5  and  _11
REMARK    2  A    between atoms: _19  and  _21
REMARK    3  A    between atoms: _22  and  _66
REMARK    4  A    between atoms: _27  and  _30
REMARK    5  A    between atoms: _32  and  _33
REMARK    6  A    between atoms: _38  and  _43
REMARK    7  A    between atoms: _43  and  _46
REMARK    8  A    between atoms: _53  and  _55
REMARK                            x       y       z     vdW  Elec       q    Type
REMARK                         _______ _______ _______ _____ _____    ______ ____
ROOT
ATOM     10  C   UNL     1       9.899  27.977 -12.388  0.00  0.00    +0.038 A 
ATOM     11  C   UNL     1      11.255  27.654 -12.650  0.00  0.00    +0.047 A 
ATOM     12  C   UNL     1      11.830  27.835 -13.973  0.00  0.00    +0.035 A 
ATOM     32  C   UNL     1      10.996  28.349 -15.008  0.00  0.00    +0.024 A 
ATOM     33  C   UNL     1       9.615  28.682 -14.761  0.00  0.00    +0.007 A 
ATOM     34  C   UNL     1       9.041  28.503 -13.457  0.00  0.00    -0.029 A 
ATOM     35  C   UNL     1       7.553  28.871 -13.251  0.00  0.00    +0.045 C 
ENDROOT
BRANCH  10   9
ATOM      4  C   UNL     1       9.103  29.456  -7.892  0.00  0.00    +0.077 A 
ATOM      5  C   UNL     1       9.762  30.708  -8.124  0.00  0.00    +0.048 A 
ATOM      6  C   UNL     1      10.299  30.930  -9.412  0.00  0.00    +0.116 A 
ATOM      7  N   UNL     1      10.179  29.964 -10.388  0.00  0.00    -0.223 NA
ATOM      8  C   UNL     1       9.538  28.766 -10.130  0.00  0.00    +0.220 A 
ATOM      9  N   UNL     1       9.399  27.784 -11.099  0.00  0.00    -0.283 N 
ATOM     36  H   UNL     1       8.926  26.911 -10.867  0.00  0.00    +0.155 HD
ATOM     37  N   UNL     1       9.018  28.530  -8.908  0.00  0.00    -0.214 NA
BRANCH   4   3
ATOM      1  C   UNL     1       8.592  28.136  -4.246  0.00  0.00    +0.020 A 
ATOM      2  C   UNL     1       9.240  28.485  -5.489  0.00  0.00    +0.013 A 
ATOM      3  C   UNL     1       8.481  29.075  -6.584  0.00  0.00    +0.019 A 
ATOM     38  C   UNL     1       7.058  29.303  -6.387  0.00  0.00    +0.120 A 
ATOM     39  N   UNL     1       6.460  28.955  -5.180  0.00  0.00    -0.263 NA
ATOM     40  C   UNL     1       7.180  28.384  -4.119  0.00  0.00    +0.111 A 
ENDBRANCH   4   3
ENDBRANCH  10   9
BRANCH  12  13
ATOM     13  N   UNL     1      13.198  27.516 -14.300  0.00  0.00    -0.281 N 
ATOM     14  C   UNL     1      14.197  28.381 -14.718  0.00  0.00    +0.248 C 
ATOM     30  O   UNL     1      14.007  29.532 -15.081  0.00  0.00    -0.270 OA
ATOM     31  H   UNL     1      13.462  26.535 -14.212  0.00  0.00    +0.155 HD
BRANCH  14  15
ATOM     15  C   UNL     1      15.609  27.891 -14.750  0.00  0.00    +0.037 A 
ATOM     16  C   UNL     1      16.060  26.815 -13.863  0.00  0.00    +0.013 A 
ATOM     17  C   UNL     1      17.432  26.373 -13.903  0.00  0.00    +0.005 A 
ATOM     18  C   UNL     1      18.362  27.007 -14.835  0.00  0.00    -0.033 A 
ATOM     28  C   UNL     1      17.886  28.068 -15.707  0.00  0.00    +0.005 A 
ATOM     29  C   UNL     1      16.542  28.504 -15.670  0.00  0.00    +0.013 A 
BRANCH  18  19
ATOM     19  C   UNL     1      19.848  26.613 -14.931  0.00  0.00    +0.119 C 
BRANCH  19  20
ATOM     20  N   UNL     1      20.850  27.599 -14.426  0.00  0.00    -0.302 NA
ATOM     21  C   UNL     1      21.968  27.852 -15.441  0.00  0.00    +0.066 C 
ATOM     22  C   UNL     1      22.995  28.902 -14.906  0.00  0.00    -0.064 C 
ATOM     23  N   UNL     1      23.571  28.416 -13.575  0.00  0.00    +0.379 N 
ATOM     24  C   UNL     1      24.580  29.374 -13.098  0.00  0.00    -0.096 C 
ATOM     25  H   UNL     1      24.088  27.447 -13.764  0.00  0.00    -0.082 HD
ATOM     26  C   UNL     1      22.466  28.160 -12.561  0.00  0.00    -0.064 C 
ATOM     27  C   UNL     1      21.434  27.137 -13.114  0.00  0.00    +0.066 C 
ENDBRANCH  19  20
ENDBRANCH  18  19
ENDBRANCH  14  15
ENDBRANCH  12  13
TORSDOF 6
ENDMDL
MODEL 2
REMARK VINA RESULT:      -9.0     10.677     12.939
REMARK  Name = C:\Users\Docking\Desktop\test protocol\1iep_ligandH.pdb
REMARK  8 active torsions:
REMARK  status: ('A' for Active; 'I' for Inactive)
REMARK    1  A    between atoms: _5  and  _11
REMARK    2  A    between atoms: _19  and  _21
REMARK    3  A    between atoms: _22  and  _66
REMARK    4  A    between atoms: _27  and  _30
REMARK    5  A    between atoms: _32  and  _33
REMARK    6  A    between atoms: _38  and  _43
REMARK    7  A    between atoms: _43  and  _46
REMARK    8  A    between atoms: _53  and  _55
REMARK                            x       y       z     vdW  Elec       q    Type
REMARK                         _______ _______ _______ _____ _____    ______ ____
ROOT
ATOM     10  C   UNL     1      19.467  38.506  -6.156  0.00  0.00    +0.038 A 
ATOM     11  C   UNL     1      19.953  37.388  -6.882  0.00  0.00    +0.047 A 
ATOM     12  C   UNL     1      20.286  36.142  -6.210  0.00  0.00    +0.035 A 
ATOM     32  C   UNL     1      20.109  36.067  -4.798  0.00  0.00    +0.024 A 
ATOM     33  C   UNL     1      19.617  37.193  -4.044  0.00  0.00    +0.007 A 
ATOM     34  C   UNL     1      19.289  38.426  -4.701  0.00  0.00    -0.029 A 
ATOM     35  C   UNL     1      18.772  39.604  -3.842  0.00  0.00    +0.045 C 
ENDROOT
BRANCH  10   9
ATOM      4  C   UNL     1      16.350  41.765  -7.798  0.00  0.00    +0.077 A 
ATOM      5  C   UNL     1      15.230  41.059  -7.246  0.00  0.00    +0.048 A 
ATOM      6  C   UNL     1      15.498  39.857  -6.553  0.00  0.00    +0.116 A 
ATOM      7  N   UNL     1      16.794  39.405  -6.427  0.00  0.00    -0.223 NA
ATOM      8  C   UNL     1      17.851  40.110  -6.973  0.00  0.00    +0.220 A 
ATOM      9  N   UNL     1      19.163  39.678  -6.851  0.00  0.00    -0.283 N 
ATOM     36  H   UNL     1      19.914  40.222  -7.274  0.00  0.00    +0.155 HD
ATOM     37  N   UNL     1      17.621  41.259  -7.641  0.00  0.00    -0.214 NA
BRANCH   4   3
ATOM      1  C   UNL     1      17.106  45.294  -9.308  0.00  0.00    +0.020 A 
ATOM      2  C   UNL     1      17.273  44.069  -8.560  0.00  0.00    +0.013 A 
ATOM      3  C   UNL     1      16.229  43.052  -8.555  0.00  0.00    +0.019 A 
ATOM     38  C   UNL     1      15.019  43.307  -9.322  0.00  0.00    +0.120 A 
ATOM     39  N   UNL     1      14.886  44.496 -10.032  0.00  0.00    -0.263 NA
ATOM     40  C   UNL     1      15.883  45.483 -10.043  0.00  0.00    +0.111 A 
ENDBRANCH   4   3
ENDBRANCH  10   9
BRANCH  12  13
ATOM     13  N   UNL     1      20.791  34.977  -6.893  0.00  0.00    -0.281 N 
ATOM     14  C   UNL     1      20.944  34.789  -8.257  0.00  0.00    +0.248 C 
ATOM     30  O   UNL     1      20.468  35.520  -9.113  0.00  0.00    -0.270 OA
ATOM     31  H   UNL     1      21.069  34.195  -6.299  0.00  0.00    +0.155 HD
BRANCH  14  15
ATOM     15  C   UNL     1      21.728  33.612  -8.741  0.00  0.00    +0.037 A 
ATOM     16  C   UNL     1      21.185  32.253  -8.662  0.00  0.00    +0.013 A 
ATOM     17  C   UNL     1      21.969  31.134  -9.120  0.00  0.00    +0.005 A 
ATOM     18  C   UNL     1      23.305  31.369  -9.662  0.00  0.00    -0.033 A 
ATOM     28  C   UNL     1      23.817  32.727  -9.733  0.00  0.00    +0.005 A 
ATOM     29  C   UNL     1      23.052  33.827  -9.284  0.00  0.00    +0.013 A 
BRANCH  18  19
ATOM     19  C   UNL     1      24.220  30.232 -10.154  0.00  0.00    +0.119 C 
BRANCH  19  20
ATOM     20  N   UNL     1      24.827  30.381 -11.510  0.00  0.00    -0.302 NA
ATOM     21  C   UNL     1      24.099  29.539 -12.561  0.00  0.00    +0.066 C 
ATOM     22  C   UNL     1      24.733  29.725 -13.978  0.00  0.00    -0.064 C 
ATOM     23  N   UNL     1      26.217  29.356 -13.922  0.00  0.00    +0.379 N 
ATOM     24  C   UNL     1      26.803  29.474 -15.265  0.00  0.00    -0.096 C 
ATOM     25  H   UNL     1      26.288  28.287 -13.614  0.00  0.00    -0.082 HD
ATOM     26  C   UNL     1      26.948  30.187 -12.877  0.00  0.00    -0.064 C 
ATOM     27  C   UNL     1      26.292  30.018 -11.478  0.00  0.00    +0.066 C 
ENDBRANCH  19  20
ENDBRANCH  18  19
ENDBRANCH  14  15
ENDBRANCH  12  13
TORSDOF 6
ENDMDL
MODEL 3
REMARK VINA RESULT:      -8.8      4.232      8.636
REMARK  Name = C:\Users\Docking\Desktop\test protocol\1iep_ligandH.pdb
REMARK  8 active torsions:
REMARK  status: ('A' for Active; 'I' for Inactive)
REMARK    1  A    between atoms: _5  and  _11
REMARK    2  A    between atoms: _19  and  _21
REMARK    3  A    between atoms: _22  and  _66
REMARK    4  A    between atoms: _27  and  _30
REMARK    5  A    between atoms: _32  and  _33
REMARK    6  A    between atoms: _38  and  _43
REMARK    7  A    between atoms: _43  and  _46
REMARK    8  A    between atoms: _53  and  _55
REMARK                            x       y       z     vdW  Elec       q    Type
REMARK                         _______ _______ _______ _____ _____    ______ ____
ROOT
ATOM     10  C   UNL     1       8.224  28.576  -3.836  0.00  0.00    +0.038 A 
ATOM     11  C   UNL     1       9.000  28.169  -4.952  0.00  0.00    +0.047 A 
ATOM     12  C   UNL     1       8.638  28.564  -6.304  0.00  0.00    +0.035 A 
ATOM     32  C   UNL     1       7.480  29.376  -6.484  0.00  0.00    +0.024 A 
ATOM     33  C   UNL     1       6.680  29.798  -5.361  0.00  0.00    +0.007 A 
ATOM     34  C   UNL     1       7.031  29.409  -4.025  0.00  0.00    -0.029 A 
ATOM     35  C   UNL     1       6.132  29.885  -2.860  0.00  0.00    +0.045 C 
ENDROOT
BRANCH  10   9
ATOM      4  C   UNL     1       7.848  25.710  -0.005  0.00  0.00    +0.077 A 
ATOM      5  C   UNL     1       6.757  24.980  -0.584  0.00  0.00    +0.048 A 
ATOM      6  C   UNL     1       6.318  25.379  -1.867  0.00  0.00    +0.116 A 
ATOM      7  N   UNL     1       6.932  26.430  -2.513  0.00  0.00    -0.223 NA
ATOM      8  C   UNL     1       7.981  27.113  -1.925  0.00  0.00    +0.220 A 
ATOM      9  N   UNL     1       8.618  28.168  -2.560  0.00  0.00    -0.283 N 
ATOM     36  H   UNL     1       9.383  28.652  -2.090  0.00  0.00    +0.155 HD
ATOM     37  N   UNL     1       8.417  26.753  -0.700  0.00  0.00    -0.214 NA
BRANCH   4   3
ATOM      1  C   UNL     1      10.233  24.485   2.844  0.00  0.00    +0.020 A 
ATOM      2  C   UNL     1       9.719  24.756   1.521  0.00  0.00    +0.013 A 
ATOM      3  C   UNL     1       8.427  25.406   1.342  0.00  0.00    +0.019 A 
ATOM     38  C   UNL     1       7.674  25.774   2.532  0.00  0.00    +0.120 A 
ATOM     39  N   UNL     1       8.194  25.500   3.793  0.00  0.00    -0.263 NA
ATOM     40  C   UNL     1       9.435  24.873   3.978  0.00  0.00    +0.111 A 
ENDBRANCH   4   3
ENDBRANCH  10   9
BRANCH  12  13
ATOM     13  N   UNL     1       9.383  28.175  -7.476  0.00  0.00    -0.281 N 
ATOM     14  C   UNL     1       9.729  26.896  -7.879  0.00  0.00    +0.248 C 
ATOM     30  O   UNL     1       9.633  25.900  -7.176  0.00  0.00    -0.270 OA
ATOM     31  H   UNL     1       9.692  28.935  -8.082  0.00  0.00    +0.155 HD
BRANCH  14  15
ATOM     15  C   UNL     1      10.273  26.695  -9.256  0.00  0.00    +0.037 A 
ATOM     16  C   UNL     1      10.628  25.360  -9.746  0.00  0.00    +0.013 A 
ATOM     17  C   UNL     1      11.167  25.197 -11.073  0.00  0.00    +0.005 A 
ATOM     18  C   UNL     1      11.353  26.372 -11.920  0.00  0.00    -0.033 A 
ATOM     28  C   UNL     1      10.988  27.684 -11.411  0.00  0.00    +0.005 A 
ATOM     29  C   UNL     1      10.461  27.848 -10.111  0.00  0.00    +0.013 A 
BRANCH  18  19
ATOM     19  C   UNL     1      11.942  26.294 -13.342  0.00  0.00    +0.119 C 
BRANCH  19  20
ATOM     20  N   UNL     1      13.126  27.154 -13.639  0.00  0.00    -0.302 NA
ATOM     21  C   UNL     1      12.936  27.971 -14.920  0.00  0.00    +0.066 C 
ATOM     22  C   UNL     1      14.175  28.881 -15.205  0.00  0.00    -0.064 C 
ATOM     23  N   UNL     1      15.431  28.013 -15.298  0.00  0.00    +0.379 N 
ATOM     24  C   UNL     1      16.589  28.859 -15.622  0.00  0.00    -0.096 C 
ATOM     25  H   UNL     1      15.287  27.299 -16.141  0.00  0.00    -0.082 HD
ATOM     26  C   UNL     1      15.627  27.195 -14.029  0.00  0.00    -0.064 C 
ATOM     27  C   UNL     1      14.378  26.317 -13.739  0.00  0.00    +0.066 C 
ENDBRANCH  19  20
ENDBRANCH  18  19
ENDBRANCH  14  15
ENDBRANCH  12  13
TORSDOF 6
ENDMDL
MODEL 4
REMARK VINA RESULT:      -8.6     22.974     26.578
REMARK  Name = C:\Users\Docking\Desktop\test protocol\1iep_ligandH.pdb
REMARK  8 active torsions:
REMARK  status: ('A' for Active; 'I' for Inactive)
REMARK    1  A    between atoms: _5  and  _11
REMARK    2  A    between atoms: _19  and  _21
REMARK    3  A    between atoms: _22  and  _66
REMARK    4  A    between atoms: _27  and  _30
REMARK    5  A    between atoms: _32  and  _33
REMARK    6  A    between atoms: _38  and  _43
REMARK    7  A    between atoms: _43  and  _46
REMARK    8  A    between atoms: _53  and  _55
REMARK                            x       y       z     vdW  Elec       q    Type
REMARK                         _______ _______ _______ _____ _____    ______ ____
ROOT
ATOM     10  C   UNL     1      39.483  25.329 -10.756  0.00  0.00    +0.038 A 
ATOM     11  C   UNL     1      38.844  25.051  -9.521  0.00  0.00    +0.047 A 
ATOM     12  C   UNL     1      38.396  23.707  -9.190  0.00  0.00    +0.035 A 
ATOM     32  C   UNL     1      38.618  22.669 -10.140  0.00  0.00    +0.024 A 
ATOM     33  C   UNL     1      39.266  22.933 -11.401  0.00  0.00    +0.007 A 
ATOM     34  C   UNL     1      39.707  24.257 -11.734  0.00  0.00    -0.029 A 
ATOM     35  C   UNL     1      40.390  24.484 -13.103  0.00  0.00    +0.045 C 
ENDROOT
BRANCH  10   9
ATOM      4  C   UNL     1      38.649  29.792 -12.310  0.00  0.00    +0.077 A 
ATOM      5  C   UNL     1      37.289  29.484 -12.647  0.00  0.00    +0.048 A 
ATOM      6  C   UNL     1      36.845  28.163 -12.411  0.00  0.00    +0.116 A 
ATOM      7  N   UNL     1      37.706  27.229 -11.878  0.00  0.00    -0.223 NA
ATOM      8  C   UNL     1      39.012  27.559 -11.566  0.00  0.00    +0.220 A 
ATOM      9  N   UNL     1      39.893  26.637 -11.021  0.00  0.00    -0.283 N 
ATOM     36  H   UNL     1      40.851  26.918 -10.812  0.00  0.00    +0.155 HD
ATOM     37  N   UNL     1      39.460  28.813 -11.783  0.00  0.00    -0.214 NA
BRANCH   4   3
ATOM      1  C   UNL     1      40.152  33.338 -11.623  0.00  0.00    +0.020 A 
ATOM      2  C   UNL     1      39.556  32.042 -11.388  0.00  0.00    +0.013 A 
ATOM      3  C   UNL     1      39.264  31.144 -12.498  0.00  0.00    +0.019 A 
ATOM     38  C   UNL     1      39.589  31.590 -13.844  0.00  0.00    +0.120 A 
ATOM     39  N   UNL     1      40.160  32.844 -14.040  0.00  0.00    -0.263 NA
ATOM     40  C   UNL     1      40.445  33.717 -12.980  0.00  0.00    +0.111 A 
ENDBRANCH   4   3
ENDBRANCH  10   9
BRANCH  12  13
ATOM     13  N   UNL     1      37.734  23.368  -7.955  0.00  0.00    -0.281 N 
ATOM     14  C   UNL     1      36.379  23.169  -7.742  0.00  0.00    +0.248 C 
ATOM     30  O   UNL     1      35.503  23.464  -8.541  0.00  0.00    -0.270 OA
ATOM     31  H   UNL     1      38.336  23.261  -7.139  0.00  0.00    +0.155 HD
BRANCH  14  15
ATOM     15  C   UNL     1      35.933  22.568  -6.448  0.00  0.00    +0.037 A 
ATOM     16  C   UNL     1      34.976  21.459  -6.415  0.00  0.00    +0.013 A 
ATOM     17  C   UNL     1      34.549  20.910  -5.153  0.00  0.00    +0.005 A 
ATOM     18  C   UNL     1      35.080  21.468  -3.912  0.00  0.00    -0.033 A 
ATOM     28  C   UNL     1      36.032  22.565  -3.974  0.00  0.00    +0.005 A 
ATOM     29  C   UNL     1      36.452  23.107  -5.209  0.00  0.00    +0.013 A 
BRANCH  18  19
ATOM     19  C   UNL     1      34.664  20.958  -2.519  0.00  0.00    +0.119 C 
BRANCH  19  20
ATOM     20  N   UNL     1      34.376  21.985  -1.473  0.00  0.00    -0.302 NA
ATOM     21  C   UNL     1      34.648  21.458  -0.061  0.00  0.00    +0.066 C 
ATOM     22  C   UNL     1      34.363  22.552   1.019  0.00  0.00    -0.064 C 
ATOM     23  N   UNL     1      32.915  23.029   0.888  0.00  0.00    +0.379 N 
ATOM     24  C   UNL     1      32.627  24.015   1.939  0.00  0.00    -0.096 C 
ATOM     25  H   UNL     1      32.253  22.148   1.059  0.00  0.00    -0.082 HD
ATOM     26  C   UNL     1      32.636  23.552  -0.514  0.00  0.00    -0.064 C 
ATOM     27  C   UNL     1      32.951  22.467  -1.582  0.00  0.00    +0.066 C 
ENDBRANCH  19  20
ENDBRANCH  18  19
ENDBRANCH  14  15
ENDBRANCH  12  13
TORSDOF 6
ENDMDL
MODEL 5
REMARK VINA RESULT:      -8.5      2.406      2.956
REMARK  Name = C:\Users\Docking\Desktop\test protocol\1iep_ligandH.pdb
REMARK  8 active torsions:
REMARK  status: ('A' for Active; 'I' for Inactive)
REMARK    1  A    between atoms: _5  and  _11
REMARK    2  A    between atoms: _19  and  _21
REMARK    3  A    between atoms: _22  and  _66
REMARK    4  A    between atoms: _27  and  _30
REMARK    5  A    between atoms: _32  and  _33
REMARK    6  A    between atoms: _38  and  _43
REMARK    7  A    between atoms: _43  and  _46
REMARK    8  A    between atoms: _53  and  _55
REMARK                            x       y       z     vdW  Elec       q    Type
REMARK                         _______ _______ _______ _____ _____    ______ ____
ROOT
ATOM     10  C   UNL     1      11.126  27.757 -10.307  0.00  0.00    +0.038 A 
ATOM     11  C   UNL     1      12.331  27.767 -11.055  0.00  0.00    +0.047 A 
ATOM     12  C   UNL     1      12.614  26.734 -12.040  0.00  0.00    +0.035 A 
ATOM     32  C   UNL     1      11.645  25.707 -12.240  0.00  0.00    +0.024 A 
ATOM     33  C   UNL     1      10.416  25.682 -11.487  0.00  0.00    +0.007 A 
ATOM     34  C   UNL     1      10.132  26.696 -10.513  0.00  0.00    -0.029 A 
ATOM     35  C   UNL     1       8.801  26.615  -9.731  0.00  0.00    +0.045 C 
ENDROOT
BRANCH  10   9
ATOM      4  C   UNL     1       8.993  31.819  -8.898  0.00  0.00    +0.077 A 
ATOM      5  C   UNL     1       8.276  31.941 -10.135  0.00  0.00    +0.048 A 
ATOM      6  C   UNL     1       8.490  30.942 -11.110  0.00  0.00    +0.116 A 
ATOM      7  N   UNL     1       9.358  29.902 -10.857  0.00  0.00    -0.223 NA
ATOM      8  C   UNL     1      10.034  29.815  -9.654  0.00  0.00    +0.220 A 
ATOM      9  N   UNL     1      10.906  28.773  -9.375  0.00  0.00    -0.283 N 
ATOM     36  H   UNL     1      11.391  28.749  -8.479  0.00  0.00    +0.155 HD
ATOM     37  N   UNL     1       9.848  30.757  -8.707  0.00  0.00    -0.214 NA
BRANCH   4   3
ATOM      1  C   UNL     1       8.364  35.082  -6.834  0.00  0.00    +0.020 A 
ATOM      2  C   UNL     1       8.468  34.181  -7.959  0.00  0.00    +0.013 A 
ATOM      3  C   UNL     1       8.870  32.794  -7.768  0.00  0.00    +0.019 A 
ATOM     38  C   UNL     1       9.163  32.345  -6.415  0.00  0.00    +0.120 A 
ATOM     39  N   UNL     1       9.056  33.235  -5.351  0.00  0.00    -0.263 NA
ATOM     40  C   UNL     1       8.672  34.574  -5.523  0.00  0.00    +0.111 A 
ENDBRANCH   4   3
ENDBRANCH  10   9
BRANCH  12  13
ATOM     13  N   UNL     1      13.823  26.688 -12.824  0.00  0.00    -0.281 N 
ATOM     14  C   UNL     1      14.225  27.559 -13.823  0.00  0.00    +0.248 C 
ATOM     30  O   UNL     1      13.500  28.394 -14.344  0.00  0.00    -0.270 OA
ATOM     31  H   UNL     1      14.461  25.919 -12.616  0.00  0.00    +0.155 HD
BRANCH  14  15
ATOM     15  C   UNL     1      15.630  27.483 -14.325  0.00  0.00    +0.037 A 
ATOM     16  C   UNL     1      16.598  26.553 -13.738  0.00  0.00    +0.013 A 
ATOM     17  C   UNL     1      17.952  26.512 -14.230  0.00  0.00    +0.005 A 
ATOM     18  C   UNL     1      18.346  27.403 -15.319  0.00  0.00    -0.033 A 
ATOM     28  C   UNL     1      17.364  28.312 -15.887  0.00  0.00    +0.005 A 
ATOM     29  C   UNL     1      16.036  28.356 -15.406  0.00  0.00    +0.013 A 
BRANCH  18  19
ATOM     19  C   UNL     1      19.775  27.442 -15.893  0.00  0.00    +0.119 C 
BRANCH  19  20
ATOM     20  N   UNL     1      20.811  28.168 -15.099  0.00  0.00    -0.302 NA
ATOM     21  C   UNL     1      21.894  28.780 -15.992  0.00  0.00    +0.066 C 
ATOM     22  C   UNL     1      22.957  29.555 -15.147  0.00  0.00    -0.064 C 
ATOM     23  N   UNL     1      23.576  28.607 -14.118  0.00  0.00    +0.379 N 
ATOM     24  C   UNL     1      24.617  29.317 -13.361  0.00  0.00    -0.096 C 
ATOM     25  H   UNL     1      24.069  27.778 -14.676  0.00  0.00    -0.082 HD
ATOM     26  C   UNL     1      22.506  27.992 -13.228  0.00  0.00    -0.064 C 
ATOM     27  C   UNL     1      21.438  27.249 -14.079  0.00  0.00    +0.066 C 
ENDBRANCH  19  20
ENDBRANCH  18  19
ENDBRANCH  14  15
ENDBRANCH  12  13
TORSDOF 6
ENDMDL
