MODEL 1
REMARK VINA RESULT:      -7.9      0.000      0.000
REMARK  Name = C:\Users\Docking\Desktop\test protocol\1iep_ligandH.pdb
REMARK  8 active torsions:
REMARK  status: ('A' for Active; 'I' for Inactive)
REMARK    1  A    between atoms: _5  and  _11
REMARK    2  A    between atoms: _19  and  _21
REMARK    3  A    between atoms: _22  and  _66
REMARK    4  A    between atoms: _27  and  _30
REMARK    5  A    between atoms: _32  and  _33
REMARK    6  A    between atoms: _38  and  _43
REMARK    7  A    between atoms: _43  and  _46
REMARK    8  A    between atoms: _53  and  _55
REMARK                            x       y       z     vdW  Elec       q    Type
REMARK                         _______ _______ _______ _____ _____    ______ ____
ROOT
ATOM     10  C   UNL     1      -5.302 -24.826   2.964  0.00  0.00    +0.038 A 
ATOM     11  C   UNL     1      -6.121 -24.241   3.964  0.00  0.00    +0.047 A 
ATOM     12  C   UNL     1      -5.575 -23.862   5.258  0.00  0.00    +0.035 A 
ATOM     32  C   UNL     1      -4.189 -24.090   5.499  0.00  0.00    +0.024 A 
ATOM     33  C   UNL     1      -3.342 -24.684   4.495  0.00  0.00    +0.007 A 
ATOM     34  C   UNL     1      -3.875 -25.063   3.217  0.00  0.00    -0.029 A 
ATOM     35  C   UNL     1      -2.922 -25.701   2.181  0.00  0.00    +0.045 C 
ENDROOT
BRANCH  10   9
ATOM      4  C   UNL     1      -6.199 -23.989  -1.676  0.00  0.00    +0.077 A 
ATOM      5  C   UNL     1      -5.481 -22.748  -1.652  0.00  0.00    +0.048 A 
ATOM      6  C   UNL     1      -4.901 -22.357  -0.424  0.00  0.00    +0.116 A 
ATOM      7  N   UNL     1      -5.036 -23.156   0.690  0.00  0.00    -0.223 NA
ATOM      8  C   UNL     1      -5.737 -24.347   0.633  0.00  0.00    +0.220 A 
ATOM      9  N   UNL     1      -5.878 -25.170   1.740  0.00  0.00    -0.283 N 
ATOM     36  H   UNL     1      -6.409 -26.037   1.659  0.00  0.00    +0.155 HD
ATOM     37  N   UNL     1      -6.301 -24.741  -0.527  0.00  0.00    -0.214 NA
BRANCH   4   3
ATOM      1  C   UNL     1      -7.583 -26.445  -4.388  0.00  0.00    +0.020 A 
ATOM      2  C   UNL     1      -6.928 -25.966  -3.193  0.00  0.00    +0.013 A 
ATOM      3  C   UNL     1      -6.865 -24.539  -2.899  0.00  0.00    +0.019 A 
ATOM     38  C   UNL     1      -7.480 -23.617  -3.842  0.00  0.00    +0.120 A 
ATOM     39  N   UNL     1      -8.102 -24.108  -4.986  0.00  0.00    -0.263 NA
ATOM     40  C   UNL     1      -8.168 -25.478  -5.280  0.00  0.00    +0.111 A 
ENDBRANCH   4   3
ENDBRANCH  10   9
BRANCH  12  13
ATOM     13  N   UNL     1      -6.359 -23.272   6.314  0.00  0.00    -0.281 N 
ATOM     14  C   UNL     1      -7.022 -22.056   6.305  0.00  0.00    +0.248 C 
ATOM     30  O   UNL     1      -6.863 -21.189   5.459  0.00  0.00    -0.270 OA
ATOM     31  H   UNL     1      -6.436 -23.818   7.172  0.00  0.00    +0.155 HD
BRANCH  14  15
ATOM     15  C   UNL     1      -7.991 -21.753   7.402  0.00  0.00    +0.037 A 
ATOM     16  C   UNL     1      -9.355 -22.287   7.380  0.00  0.00    +0.013 A 
ATOM     17  C   UNL     1     -10.275 -21.965   8.443  0.00  0.00    +0.005 A 
ATOM     18  C   UNL     1      -9.831 -21.107   9.538  0.00  0.00    -0.033 A 
ATOM     28  C   UNL     1      -8.471 -20.595   9.538  0.00  0.00    +0.005 A 
ATOM     29  C   UNL     1      -7.567 -20.907   8.498  0.00  0.00    +0.013 A 
BRANCH  18  19
ATOM     19  C   UNL     1     -10.751 -20.695  10.703  0.00  0.00    +0.119 C 
BRANCH  19  20
ATOM     20  N   UNL     1     -11.251 -21.782  11.596  0.00  0.00    -0.302 NA
ATOM     21  C   UNL     1     -12.494 -21.353  12.382  0.00  0.00    +0.066 C 
ATOM     22  C   UNL     1     -13.017 -22.510  13.295  0.00  0.00    -0.064 C 
ATOM     23  N   UNL     1     -11.901 -22.951  14.244  0.00  0.00    +0.379 N 
ATOM     24  C   UNL     1     -12.408 -23.998  15.143  0.00  0.00    -0.096 C 
ATOM     25  H   UNL     1     -11.624 -22.072  14.871  0.00  0.00    -0.082 HD
ATOM     26  C   UNL     1     -10.661 -23.376  13.471  0.00  0.00    -0.064 C 
ATOM     27  C   UNL     1     -10.167 -22.230  12.545  0.00  0.00    +0.066 C 
ENDBRANCH  19  20
ENDBRANCH  18  19
ENDBRANCH  14  15
ENDBRANCH  12  13
TORSDOF 6
ENDMDL
MODEL 2
REMARK VINA RESULT:      -7.8      2.498     12.705
REMARK  Name = C:\Users\Docking\Desktop\test protocol\1iep_ligandH.pdb
REMARK  8 active torsions:
REMARK  status: ('A' for Active; 'I' for Inactive)
REMARK    1  A    between atoms: _5  and  _11
REMARK    2  A    between atoms: _19  and  _21
REMARK    3  A    between atoms: _22  and  _66
REMARK    4  A    between atoms: _27  and  _30
REMARK    5  A    between atoms: _32  and  _33
REMARK    6  A    between atoms: _38  and  _43
REMARK    7  A    between atoms: _43  and  _46
REMARK    8  A    between atoms: _53  and  _55
REMARK                            x       y       z     vdW  Elec       q    Type
REMARK                         _______ _______ _______ _____ _____    ______ ____
ROOT
ATOM     10  C   UNL     1      -5.360 -24.454   4.332  0.00  0.00    +0.038 A 
ATOM     11  C   UNL     1      -5.834 -24.351   2.999  0.00  0.00    +0.047 A 
ATOM     12  C   UNL     1      -4.943 -24.548   1.866  0.00  0.00    +0.035 A 
ATOM     32  C   UNL     1      -3.575 -24.851   2.128  0.00  0.00    +0.024 A 
ATOM     33  C   UNL     1      -3.076 -24.959   3.476  0.00  0.00    +0.007 A 
ATOM     34  C   UNL     1      -3.950 -24.763   4.598  0.00  0.00    -0.029 A 
ATOM     35  C   UNL     1      -3.359 -24.884   6.022  0.00  0.00    +0.045 C 
ENDROOT
BRANCH  10   9
ATOM      4  C   UNL     1      -8.097 -21.629   7.082  0.00  0.00    +0.077 A 
ATOM      5  C   UNL     1      -7.680 -20.446   6.386  0.00  0.00    +0.048 A 
ATOM      6  C   UNL     1      -6.754 -20.607   5.331  0.00  0.00    +0.116 A 
ATOM      7  N   UNL     1      -6.287 -21.862   5.005  0.00  0.00    -0.223 NA
ATOM      8  C   UNL     1      -6.709 -22.982   5.698  0.00  0.00    +0.220 A 
ATOM      9  N   UNL     1      -6.260 -24.255   5.382  0.00  0.00    -0.283 N 
ATOM     36  H   UNL     1      -6.589 -25.055   5.921  0.00  0.00    +0.155 HD
ATOM     37  N   UNL     1      -7.592 -22.855   6.710  0.00  0.00    -0.214 NA
BRANCH   4   3
ATOM      1  C   UNL     1     -11.373 -21.980   9.192  0.00  0.00    +0.020 A 
ATOM      2  C   UNL     1     -10.472 -22.003   8.063  0.00  0.00    +0.013 A 
ATOM      3  C   UNL     1      -9.073 -21.622   8.218  0.00  0.00    +0.019 A 
ATOM     38  C   UNL     1      -8.615 -21.221   9.539  0.00  0.00    +0.120 A 
ATOM     39  N   UNL     1      -9.506 -21.207  10.608  0.00  0.00    -0.263 NA
ATOM     40  C   UNL     1     -10.854 -21.569  10.470  0.00  0.00    +0.111 A 
ENDBRANCH   4   3
ENDBRANCH  10   9
BRANCH  12  13
ATOM     13  N   UNL     1      -5.365 -24.448   0.491  0.00  0.00    -0.281 N 
ATOM     14  C   UNL     1      -5.647 -25.479  -0.390  0.00  0.00    +0.248 C 
ATOM     30  O   UNL     1      -5.372 -26.653  -0.191  0.00  0.00    -0.270 OA
ATOM     31  H   UNL     1      -5.469 -23.502   0.123  0.00  0.00    +0.155 HD
BRANCH  14  15
ATOM     15  C   UNL     1      -6.320 -25.158  -1.686  0.00  0.00    +0.037 A 
ATOM     16  C   UNL     1      -6.721 -23.787  -2.014  0.00  0.00    +0.013 A 
ATOM     17  C   UNL     1      -7.383 -23.507  -3.264  0.00  0.00    +0.005 A 
ATOM     18  C   UNL     1      -7.648 -24.602  -4.195  0.00  0.00    -0.033 A 
ATOM     28  C   UNL     1      -7.235 -25.951  -3.846  0.00  0.00    +0.005 A 
ATOM     29  C   UNL     1      -6.586 -26.229  -2.622  0.00  0.00    +0.013 A 
BRANCH  18  19
ATOM     19  C   UNL     1      -8.368 -24.399  -5.541  0.00  0.00    +0.119 C 
BRANCH  19  20
ATOM     20  N   UNL     1      -8.659 -22.994  -5.955  0.00  0.00    -0.302 NA
ATOM     21  C   UNL     1      -9.875 -22.909  -6.883  0.00  0.00    +0.066 C 
ATOM     22  C   UNL     1     -10.179 -21.430  -7.289  0.00  0.00    -0.064 C 
ATOM     23  N   UNL     1      -8.944 -20.823  -7.957  0.00  0.00    +0.379 N 
ATOM     24  C   UNL     1      -9.246 -19.452  -8.392  0.00  0.00    -0.096 C 
ATOM     25  H   UNL     1      -8.722 -21.426  -8.868  0.00  0.00    -0.082 HD
ATOM     26  C   UNL     1      -7.730 -20.906  -7.043  0.00  0.00    -0.064 C 
ATOM     27  C   UNL     1      -7.454 -22.377  -6.622  0.00  0.00    +0.066 C 
ENDBRANCH  19  20
ENDBRANCH  18  19
ENDBRANCH  14  15
ENDBRANCH  12  13
TORSDOF 6
ENDMDL
MODEL 3
REMARK VINA RESULT:      -7.7      2.106     12.454
REMARK  Name = C:\Users\Docking\Desktop\test protocol\1iep_ligandH.pdb
REMARK  8 active torsions:
REMARK  status: ('A' for Active; 'I' for Inactive)
REMARK    1  A    between atoms: _5  and  _11
REMARK    2  A    between atoms: _19  and  _21
REMARK    3  A    between atoms: _22  and  _66
REMARK    4  A    between atoms: _27  and  _30
REMARK    5  A    between atoms: _32  and  _33
REMARK    6  A    between atoms: _38  and  _43
REMARK    7  A    between atoms: _43  and  _46
REMARK    8  A    between atoms: _53  and  _55
REMARK                            x       y       z     vdW  Elec       q    Type
REMARK                         _______ _______ _______ _____ _____    ______ ____
ROOT
ATOM     10  C   UNL     1      -5.696 -21.559   7.683  0.00  0.00    +0.038 A 
ATOM     11  C   UNL     1      -5.815 -22.258   6.455  0.00  0.00    +0.047 A 
ATOM     12  C   UNL     1      -4.806 -22.129   5.415  0.00  0.00    +0.035 A 
ATOM     32  C   UNL     1      -3.687 -21.281   5.661  0.00  0.00    +0.024 A 
ATOM     33  C   UNL     1      -3.551 -20.562   6.903  0.00  0.00    +0.007 A 
ATOM     34  C   UNL     1      -4.544 -20.683   7.931  0.00  0.00    -0.029 A 
ATOM     35  C   UNL     1      -4.350 -19.884   9.241  0.00  0.00    +0.045 C 
ENDROOT
BRANCH  10   9
ATOM      4  C   UNL     1      -9.857 -20.299   9.718  0.00  0.00    +0.077 A 
ATOM      5  C   UNL     1     -10.045 -19.212   8.800  0.00  0.00    +0.048 A 
ATOM      6  C   UNL     1      -9.044 -19.007   7.824  0.00  0.00    +0.116 A 
ATOM      7  N   UNL     1      -7.942 -19.833   7.778  0.00  0.00    -0.223 NA
ATOM      8  C   UNL     1      -7.790 -20.871   8.679  0.00  0.00    +0.220 A 
ATOM      9  N   UNL     1      -6.694 -21.719   8.647  0.00  0.00    -0.283 N 
ATOM     36  H   UNL     1      -6.616 -22.468   9.334  0.00  0.00    +0.155 HD
ATOM     37  N   UNL     1      -8.731 -21.087   9.622  0.00  0.00    -0.214 NA
BRANCH   4   3
ATOM      1  C   UNL     1     -12.523 -20.029  12.567  0.00  0.00    +0.020 A 
ATOM      2  C   UNL     1     -11.598 -19.641  11.527  0.00  0.00    +0.013 A 
ATOM      3  C   UNL     1     -10.828 -20.645  10.803  0.00  0.00    +0.019 A 
ATOM     38  C   UNL     1     -11.019 -22.043  11.159  0.00  0.00    +0.120 A 
ATOM     39  N   UNL     1     -11.916 -22.386  12.166  0.00  0.00    -0.263 NA
ATOM     40  C   UNL     1     -12.661 -21.429  12.870  0.00  0.00    +0.111 A 
ENDBRANCH   4   3
ENDBRANCH  10   9
BRANCH  12  13
ATOM     13  N   UNL     1      -4.877 -22.808   4.145  0.00  0.00    -0.281 N 
ATOM     14  C   UNL     1      -4.815 -24.171   3.903  0.00  0.00    +0.248 C 
ATOM     30  O   UNL     1      -4.472 -25.004   4.729  0.00  0.00    -0.270 OA
ATOM     31  H   UNL     1      -4.987 -22.212   3.325  0.00  0.00    +0.155 HD
BRANCH  14  15
ATOM     15  C   UNL     1      -5.171 -24.680   2.544  0.00  0.00    +0.037 A 
ATOM     16  C   UNL     1      -6.562 -24.720   2.088  0.00  0.00    +0.013 A 
ATOM     17  C   UNL     1      -6.880 -25.232   0.778  0.00  0.00    +0.005 A 
ATOM     18  C   UNL     1      -5.802 -25.707  -0.086  0.00  0.00    -0.033 A 
ATOM     28  C   UNL     1      -4.429 -25.651   0.390  0.00  0.00    +0.005 A 
ATOM     29  C   UNL     1      -4.115 -25.151   1.673  0.00  0.00    +0.013 A 
BRANCH  18  19
ATOM     19  C   UNL     1      -6.050 -26.288  -1.490  0.00  0.00    +0.119 C 
BRANCH  19  20
ATOM     20  N   UNL     1      -6.910 -25.494  -2.417  0.00  0.00    -0.302 NA
ATOM     21  C   UNL     1      -7.095 -26.191  -3.768  0.00  0.00    +0.066 C 
ATOM     22  C   UNL     1      -8.015 -25.356  -4.718  0.00  0.00    -0.064 C 
ATOM     23  N   UNL     1      -7.418 -23.961  -4.906  0.00  0.00    +0.379 N 
ATOM     24  C   UNL     1      -8.250 -23.193  -5.844  0.00  0.00    -0.096 C 
ATOM     25  H   UNL     1      -6.411 -24.084  -5.369  0.00  0.00    -0.082 HD
ATOM     26  C   UNL     1      -7.228 -23.262  -3.567  0.00  0.00    -0.064 C 
ATOM     27  C   UNL     1      -6.336 -24.113  -2.621  0.00  0.00    +0.066 C 
ENDBRANCH  19  20
ENDBRANCH  18  19
ENDBRANCH  14  15
ENDBRANCH  12  13
TORSDOF 6
ENDMDL
MODEL 4
REMARK VINA RESULT:      -7.4      1.468      2.129
REMARK  Name = C:\Users\Docking\Desktop\test protocol\1iep_ligandH.pdb
REMARK  8 active torsions:
REMARK  status: ('A' for Active; 'I' for Inactive)
REMARK    1  A    between atoms: _5  and  _11
REMARK    2  A    between atoms: _19  and  _21
REMARK    3  A    between atoms: _22  and  _66
REMARK    4  A    between atoms: _27  and  _30
REMARK    5  A    between atoms: _32  and  _33
REMARK    6  A    between atoms: _38  and  _43
REMARK    7  A    between atoms: _43  and  _46
REMARK    8  A    between atoms: _53  and  _55
REMARK                            x       y       z     vdW  Elec       q    Type
REMARK                         _______ _______ _______ _____ _____    ______ ____
ROOT
ATOM     10  C   UNL     1      -4.637 -23.783   1.901  0.00  0.00    +0.038 A 
ATOM     11  C   UNL     1      -5.483 -23.266   2.915  0.00  0.00    +0.047 A 
ATOM     12  C   UNL     1      -5.351 -23.697   4.298  0.00  0.00    +0.035 A 
ATOM     32  C   UNL     1      -4.344 -24.655   4.614  0.00  0.00    +0.024 A 
ATOM     33  C   UNL     1      -3.476 -25.192   3.596  0.00  0.00    +0.007 A 
ATOM     34  C   UNL     1      -3.603 -24.772   2.230  0.00  0.00    -0.029 A 
ATOM     35  C   UNL     1      -2.649 -25.387   1.179  0.00  0.00    +0.045 C 
ENDROOT
BRANCH  10   9
ATOM      4  C   UNL     1      -6.915 -23.824  -2.323  0.00  0.00    +0.077 A 
ATOM      5  C   UNL     1      -7.825 -24.844  -1.890  0.00  0.00    +0.048 A 
ATOM      6  C   UNL     1      -7.668 -25.337  -0.575  0.00  0.00    +0.116 A 
ATOM      7  N   UNL     1      -6.673 -24.839   0.237  0.00  0.00    -0.223 NA
ATOM      8  C   UNL     1      -5.811 -23.856  -0.212  0.00  0.00    +0.220 A 
ATOM      9  N   UNL     1      -4.808 -23.334   0.590  0.00  0.00    -0.283 N 
ATOM     36  H   UNL     1      -4.188 -22.615   0.219  0.00  0.00    +0.155 HD
ATOM     37  N   UNL     1      -5.939 -23.369  -1.464  0.00  0.00    -0.214 NA
BRANCH   4   3
ATOM      1  C   UNL     1      -8.009 -22.835  -5.946  0.00  0.00    +0.020 A 
ATOM      2  C   UNL     1      -8.018 -23.463  -4.645  0.00  0.00    +0.013 A 
ATOM      3  C   UNL     1      -6.955 -23.200  -3.684  0.00  0.00    +0.019 A 
ATOM     38  C   UNL     1      -5.890 -22.287  -4.072  0.00  0.00    +0.120 A 
ATOM     39  N   UNL     1      -5.908 -21.697  -5.332  0.00  0.00    -0.263 NA
ATOM     40  C   UNL     1      -6.924 -21.945  -6.266  0.00  0.00    +0.111 A 
ENDBRANCH   4   3
ENDBRANCH  10   9
BRANCH  12  13
ATOM     13  N   UNL     1      -6.187 -23.213   5.369  0.00  0.00    -0.281 N 
ATOM     14  C   UNL     1      -6.058 -22.033   6.083  0.00  0.00    +0.248 C 
ATOM     30  O   UNL     1      -5.072 -21.311   6.053  0.00  0.00    -0.270 OA
ATOM     31  H   UNL     1      -6.969 -23.813   5.632  0.00  0.00    +0.155 HD
BRANCH  14  15
ATOM     15  C   UNL     1      -7.180 -21.599   6.970  0.00  0.00    +0.037 A 
ATOM     16  C   UNL     1      -8.402 -22.398   7.095  0.00  0.00    +0.013 A 
ATOM     17  C   UNL     1      -9.476 -21.948   7.945  0.00  0.00    +0.005 A 
ATOM     18  C   UNL     1      -9.331 -20.693   8.678  0.00  0.00    -0.033 A 
ATOM     28  C   UNL     1      -8.106 -19.924   8.541  0.00  0.00    +0.005 A 
ATOM     29  C   UNL     1      -7.052 -20.361   7.708  0.00  0.00    +0.013 A 
BRANCH  18  19
ATOM     19  C   UNL     1     -10.435 -20.126   9.592  0.00  0.00    +0.119 C 
BRANCH  19  20
ATOM     20  N   UNL     1     -10.622 -20.777  10.923  0.00  0.00    -0.302 NA
ATOM     21  C   UNL     1      -9.291 -21.213  11.541  0.00  0.00    +0.066 C 
ATOM     22  C   UNL     1      -9.503 -21.871  12.943  0.00  0.00    -0.064 C 
ATOM     23  N   UNL     1     -10.453 -23.062  12.806  0.00  0.00    +0.379 N 
ATOM     24  C   UNL     1     -10.609 -23.719  14.112  0.00  0.00    -0.096 C 
ATOM     25  H   UNL     1      -9.977 -23.795  12.113  0.00  0.00    -0.082 HD
ATOM     26  C   UNL     1     -11.778 -22.638  12.189  0.00  0.00    -0.064 C 
ATOM     27  C   UNL     1     -11.553 -21.958  10.809  0.00  0.00    +0.066 C 
ENDBRANCH  19  20
ENDBRANCH  18  19
ENDBRANCH  14  15
ENDBRANCH  12  13
TORSDOF 6
ENDMDL
MODEL 5
REMARK VINA RESULT:      -7.3     21.755     25.578
REMARK  Name = C:\Users\Docking\Desktop\test protocol\1iep_ligandH.pdb
REMARK  8 active torsions:
REMARK  status: ('A' for Active; 'I' for Inactive)
REMARK    1  A    between atoms: _5  and  _11
REMARK    2  A    between atoms: _19  and  _21
REMARK    3  A    between atoms: _22  and  _66
REMARK    4  A    between atoms: _27  and  _30
REMARK    5  A    between atoms: _32  and  _33
REMARK    6  A    between atoms: _38  and  _43
REMARK    7  A    between atoms: _43  and  _46
REMARK    8  A    between atoms: _53  and  _55
REMARK                            x       y       z     vdW  Elec       q    Type
REMARK                         _______ _______ _______ _____ _____    ______ ____
ROOT
ATOM     10  C   UNL     1      -9.561 -43.937   6.817  0.00  0.00    +0.038 A 
ATOM     11  C   UNL     1     -10.418 -44.620   5.917  0.00  0.00    +0.047 A 
ATOM     12  C   UNL     1     -10.075 -45.937   5.403  0.00  0.00    +0.035 A 
ATOM     32  C   UNL     1      -8.851 -46.531   5.830  0.00  0.00    +0.024 A 
ATOM     33  C   UNL     1      -7.967 -45.850   6.743  0.00  0.00    +0.007 A 
ATOM     34  C   UNL     1      -8.299 -44.550   7.251  0.00  0.00    -0.029 A 
ATOM     35  C   UNL     1      -7.311 -43.864   8.222  0.00  0.00    +0.045 C 
ENDROOT
BRANCH  10   9
ATOM      4  C   UNL     1     -11.741 -41.069   9.988  0.00  0.00    +0.077 A 
ATOM      5  C   UNL     1     -12.185 -42.182  10.777  0.00  0.00    +0.048 A 
ATOM      6  C   UNL     1     -11.838 -43.476  10.329  0.00  0.00    +0.116 A 
ATOM      7  N   UNL     1     -11.100 -43.634   9.176  0.00  0.00    -0.223 NA
ATOM      8  C   UNL     1     -10.689 -42.540   8.437  0.00  0.00    +0.220 A 
ATOM      9  N   UNL     1      -9.940 -42.675   7.278  0.00  0.00    -0.283 N 
ATOM     36  H   UNL     1      -9.662 -41.843   6.757  0.00  0.00    +0.155 HD
ATOM     37  N   UNL     1     -11.009 -41.294   8.843  0.00  0.00    -0.214 NA
BRANCH   4   3
ATOM      1  C   UNL     1     -11.339 -37.231  10.624  0.00  0.00    +0.020 A 
ATOM      2  C   UNL     1     -11.011 -38.596  10.281  0.00  0.00    +0.013 A 
ATOM      3  C   UNL     1     -12.026 -39.641  10.333  0.00  0.00    +0.019 A 
ATOM     38  C   UNL     1     -13.373 -39.268  10.738  0.00  0.00    +0.120 A 
ATOM     39  N   UNL     1     -13.659 -37.946  11.063  0.00  0.00    -0.263 NA
ATOM     40  C   UNL     1     -12.690 -36.932  11.019  0.00  0.00    +0.111 A 
ENDBRANCH   4   3
ENDBRANCH  10   9
BRANCH  12  13
ATOM     13  N   UNL     1     -10.902 -46.675   4.481  0.00  0.00    -0.281 N 
ATOM     14  C   UNL     1     -10.574 -47.119   3.210  0.00  0.00    +0.248 C 
ATOM     30  O   UNL     1      -9.586 -46.761   2.587  0.00  0.00    -0.270 OA
ATOM     31  H   UNL     1     -11.843 -46.898   4.805  0.00  0.00    +0.155 HD
BRANCH  14  15
ATOM     15  C   UNL     1     -11.483 -48.090   2.528  0.00  0.00    +0.037 A 
ATOM     16  C   UNL     1     -10.953 -49.158   1.678  0.00  0.00    +0.013 A 
ATOM     17  C   UNL     1     -11.852 -50.071   1.017  0.00  0.00    +0.005 A 
ATOM     18  C   UNL     1     -13.293 -49.918   1.206  0.00  0.00    -0.033 A 
ATOM     28  C   UNL     1     -13.792 -48.852   2.059  0.00  0.00    +0.005 A 
ATOM     29  C   UNL     1     -12.913 -47.956   2.707  0.00  0.00    +0.013 A 
BRANCH  18  19
ATOM     19  C   UNL     1     -14.327 -50.833   0.523  0.00  0.00    +0.119 C 
BRANCH  19  20
ATOM     20  N   UNL     1     -14.872 -50.386  -0.794  0.00  0.00    -0.302 NA
ATOM     21  C   UNL     1     -16.394 -50.530  -0.865  0.00  0.00    +0.066 C 
ATOM     22  C   UNL     1     -16.949 -50.037  -2.241  0.00  0.00    -0.064 C 
ATOM     23  N   UNL     1     -16.278 -50.821  -3.369  0.00  0.00    +0.379 N 
ATOM     24  C   UNL     1     -16.840 -50.400  -4.661  0.00  0.00    -0.096 C 
ATOM     25  H   UNL     1     -16.527 -51.898  -3.227  0.00  0.00    -0.082 HD
ATOM     26  C   UNL     1     -14.763 -50.685  -3.305  0.00  0.00    -0.064 C 
ATOM     27  C   UNL     1     -14.225 -51.150  -1.923  0.00  0.00    +0.066 C 
ENDBRANCH  19  20
ENDBRANCH  18  19
ENDBRANCH  14  15
ENDBRANCH  12  13
TORSDOF 6
ENDMDL
