MODEL 1
REMARK VINA RESULT:      -8.3      0.000      0.000
REMARK  Name = C:\Users\Docking\Desktop\test protocol\1iep_ligandH.pdb
REMARK  8 active torsions:
REMARK  status: ('A' for Active; 'I' for Inactive)
REMARK    1  A    between atoms: _5  and  _11
REMARK    2  A    between atoms: _19  and  _21
REMARK    3  A    between atoms: _22  and  _66
REMARK    4  A    between atoms: _27  and  _30
REMARK    5  A    between atoms: _32  and  _33
REMARK    6  A    between atoms: _38  and  _43
REMARK    7  A    between atoms: _43  and  _46
REMARK    8  A    between atoms: _53  and  _55
REMARK                            x       y       z     vdW  Elec       q    Type
REMARK                         _______ _______ _______ _____ _____    ______ ____
ROOT
ATOM     10  C   UNL     1      11.896  22.622  10.309  0.00  0.00    +0.038 A 
ATOM     11  C   UNL     1      12.975  22.501   9.397  0.00  0.00    +0.047 A 
ATOM     12  C   UNL     1      13.345  23.600   8.519  0.00  0.00    +0.035 A 
ATOM     32  C   UNL     1      12.595  24.810   8.597  0.00  0.00    +0.024 A 
ATOM     33  C   UNL     1      11.494  24.950   9.517  0.00  0.00    +0.007 A 
ATOM     34  C   UNL     1      11.123  23.868  10.384  0.00  0.00    -0.029 A 
ATOM     35  C   UNL     1       9.929  24.072  11.347  0.00  0.00    +0.045 C 
ENDROOT
BRANCH  10   9
ATOM      4  C   UNL     1       9.408  18.637  11.292  0.00  0.00    +0.077 A 
ATOM      5  C   UNL     1       8.646  18.743  10.081  0.00  0.00    +0.048 A 
ATOM      6  C   UNL     1       8.920  19.842   9.236  0.00  0.00    +0.116 A 
ATOM      7  N   UNL     1       9.886  20.760   9.586  0.00  0.00    -0.223 NA
ATOM      8  C   UNL     1      10.602  20.629  10.762  0.00  0.00    +0.220 A 
ATOM      9  N   UNL     1      11.584  21.536  11.129  0.00  0.00    -0.283 N 
ATOM     36  H   UNL     1      12.085  21.408  12.008  0.00  0.00    +0.155 HD
ATOM     37  N   UNL     1      10.358  19.589  11.586  0.00  0.00    -0.214 NA
BRANCH   4   3
ATOM      1  C   UNL     1       9.785  16.372  14.458  0.00  0.00    +0.020 A 
ATOM      2  C   UNL     1       9.989  17.462  13.532  0.00  0.00    +0.013 A 
ATOM      3  C   UNL     1       9.237  17.530  12.285  0.00  0.00    +0.019 A 
ATOM     38  C   UNL     1       8.280  16.471  12.003  0.00  0.00    +0.120 A 
ATOM     39  N   UNL     1       8.106  15.433  12.913  0.00  0.00    -0.263 NA
ATOM     40  C   UNL     1       8.825  15.356  14.115  0.00  0.00    +0.111 A 
ENDBRANCH   4   3
ENDBRANCH  10   9
BRANCH  12  13
ATOM     13  N   UNL     1      14.427  23.533   7.567  0.00  0.00    -0.281 N 
ATOM     14  C   UNL     1      14.450  22.872   6.350  0.00  0.00    +0.248 C 
ATOM     30  O   UNL     1      13.614  22.056   5.990  0.00  0.00    -0.270 OA
ATOM     31  H   UNL     1      15.278  24.033   7.822  0.00  0.00    +0.155 HD
BRANCH  14  15
ATOM     15  C   UNL     1      15.572  23.145   5.402  0.00  0.00    +0.037 A 
ATOM     16  C   UNL     1      15.316  23.511   4.006  0.00  0.00    +0.013 A 
ATOM     17  C   UNL     1      16.417  23.753   3.108  0.00  0.00    +0.005 A 
ATOM     18  C   UNL     1      17.785  23.631   3.603  0.00  0.00    -0.033 A 
ATOM     28  C   UNL     1      18.011  23.271   4.993  0.00  0.00    +0.005 A 
ATOM     29  C   UNL     1      16.935  23.033   5.877  0.00  0.00    +0.013 A 
BRANCH  18  19
ATOM     19  C   UNL     1      19.021  23.850   2.710  0.00  0.00    +0.119 C 
BRANCH  19  20
ATOM     20  N   UNL     1      19.313  25.250   2.279  0.00  0.00    -0.302 NA
ATOM     21  C   UNL     1      20.818  25.523   2.196  0.00  0.00    +0.066 C 
ATOM     22  C   UNL     1      21.106  26.984   1.722  0.00  0.00    -0.064 C 
ATOM     23  N   UNL     1      20.428  27.970   2.676  0.00  0.00    +0.379 N 
ATOM     24  C   UNL     1      20.745  29.346   2.266  0.00  0.00    -0.096 C 
ATOM     25  H   UNL     1      20.862  27.810   3.691  0.00  0.00    -0.082 HD
ATOM     26  C   UNL     1      18.932  27.703   2.767  0.00  0.00    -0.064 C 
ATOM     27  C   UNL     1      18.657  26.239   3.210  0.00  0.00    +0.066 C 
ENDBRANCH  19  20
ENDBRANCH  18  19
ENDBRANCH  14  15
ENDBRANCH  12  13
TORSDOF 6
ENDMDL
MODEL 2
REMARK VINA RESULT:      -8.1      3.661      6.397
REMARK  Name = C:\Users\Docking\Desktop\test protocol\1iep_ligandH.pdb
REMARK  8 active torsions:
REMARK  status: ('A' for Active; 'I' for Inactive)
REMARK    1  A    between atoms: _5  and  _11
REMARK    2  A    between atoms: _19  and  _21
REMARK    3  A    between atoms: _22  and  _66
REMARK    4  A    between atoms: _27  and  _30
REMARK    5  A    between atoms: _32  and  _33
REMARK    6  A    between atoms: _38  and  _43
REMARK    7  A    between atoms: _43  and  _46
REMARK    8  A    between atoms: _53  and  _55
REMARK                            x       y       z     vdW  Elec       q    Type
REMARK                         _______ _______ _______ _____ _____    ______ ____
ROOT
ATOM     10  C   UNL     1      11.572  23.394   8.575  0.00  0.00    +0.038 A 
ATOM     11  C   UNL     1      12.759  23.535   7.811  0.00  0.00    +0.047 A 
ATOM     12  C   UNL     1      14.053  23.154   8.354  0.00  0.00    +0.035 A 
ATOM     32  C   UNL     1      14.102  22.630   9.678  0.00  0.00    +0.024 A 
ATOM     33  C   UNL     1      12.906  22.481  10.469  0.00  0.00    +0.007 A 
ATOM     34  C   UNL     1      11.627  22.857   9.940  0.00  0.00    -0.029 A 
ATOM     35  C   UNL     1      10.378  22.681  10.835  0.00  0.00    +0.045 C 
ENDROOT
BRANCH  10   9
ATOM      4  C   UNL     1       8.151  26.638   7.676  0.00  0.00    +0.077 A 
ATOM      5  C   UNL     1       8.831  27.651   8.430  0.00  0.00    +0.048 A 
ATOM      6  C   UNL     1      10.054  27.294   9.040  0.00  0.00    +0.116 A 
ATOM      7  N   UNL     1      10.552  26.017   8.899  0.00  0.00    -0.223 NA
ATOM      8  C   UNL     1       9.870  25.063   8.165  0.00  0.00    +0.220 A 
ATOM      9  N   UNL     1      10.356  23.775   8.003  0.00  0.00    -0.283 N 
ATOM     36  H   UNL     1       9.820  23.099   7.461  0.00  0.00    +0.155 HD
ATOM     37  N   UNL     1       8.699  25.379   7.575  0.00  0.00    -0.214 NA
BRANCH   4   3
ATOM      1  C   UNL     1       4.398  27.457   6.935  0.00  0.00    +0.020 A 
ATOM      2  C   UNL     1       5.629  27.253   7.664  0.00  0.00    +0.013 A 
ATOM      3  C   UNL     1       6.849  26.862   6.970  0.00  0.00    +0.019 A 
ATOM     38  C   UNL     1       6.790  26.684   5.527  0.00  0.00    +0.120 A 
ATOM     39  N   UNL     1       5.591  26.886   4.852  0.00  0.00    -0.263 NA
ATOM     40  C   UNL     1       4.409  27.261   5.509  0.00  0.00    +0.111 A 
ENDBRANCH   4   3
ENDBRANCH  10   9
BRANCH  12  13
ATOM     13  N   UNL     1      15.293  23.282   7.628  0.00  0.00    -0.281 N 
ATOM     14  C   UNL     1      15.953  22.312   6.892  0.00  0.00    +0.248 C 
ATOM     30  O   UNL     1      15.685  21.120   6.922  0.00  0.00    -0.270 OA
ATOM     31  H   UNL     1      15.737  24.200   7.661  0.00  0.00    +0.155 HD
BRANCH  14  15
ATOM     15  C   UNL     1      17.083  22.723   6.005  0.00  0.00    +0.037 A 
ATOM     16  C   UNL     1      18.349  21.984   5.995  0.00  0.00    +0.013 A 
ATOM     17  C   UNL     1      19.429  22.412   5.142  0.00  0.00    +0.005 A 
ATOM     18  C   UNL     1      19.248  23.585   4.290  0.00  0.00    -0.033 A 
ATOM     28  C   UNL     1      17.980  24.296   4.316  0.00  0.00    +0.005 A 
ATOM     29  C   UNL     1      16.919  23.880   5.151  0.00  0.00    +0.013 A 
BRANCH  18  19
ATOM     19  C   UNL     1      20.354  24.126   3.365  0.00  0.00    +0.119 C 
BRANCH  19  20
ATOM     20  N   UNL     1      20.068  25.391   2.624  0.00  0.00    -0.302 NA
ATOM     21  C   UNL     1      19.964  25.161   1.114  0.00  0.00    +0.066 C 
ATOM     22  C   UNL     1      19.643  26.491   0.357  0.00  0.00    -0.064 C 
ATOM     23  N   UNL     1      20.721  27.529   0.675  0.00  0.00    +0.379 N 
ATOM     24  C   UNL     1      20.453  28.761  -0.081  0.00  0.00    -0.096 C 
ATOM     25  H   UNL     1      21.696  27.121   0.322  0.00  0.00    -0.082 HD
ATOM     26  C   UNL     1      20.832  27.761   2.175  0.00  0.00    -0.064 C 
ATOM     27  C   UNL     1      21.123  26.428   2.920  0.00  0.00    +0.066 C 
ENDBRANCH  19  20
ENDBRANCH  18  19
ENDBRANCH  14  15
ENDBRANCH  12  13
TORSDOF 6
ENDMDL
MODEL 3
REMARK VINA RESULT:      -8.1      4.077     11.672
REMARK  Name = C:\Users\Docking\Desktop\test protocol\1iep_ligandH.pdb
REMARK  8 active torsions:
REMARK  status: ('A' for Active; 'I' for Inactive)
REMARK    1  A    between atoms: _5  and  _11
REMARK    2  A    between atoms: _19  and  _21
REMARK    3  A    between atoms: _22  and  _66
REMARK    4  A    between atoms: _27  and  _30
REMARK    5  A    between atoms: _32  and  _33
REMARK    6  A    between atoms: _38  and  _43
REMARK    7  A    between atoms: _43  and  _46
REMARK    8  A    between atoms: _53  and  _55
REMARK                            x       y       z     vdW  Elec       q    Type
REMARK                         _______ _______ _______ _____ _____    ______ ____
ROOT
ATOM     10  C   UNL     1      15.481  22.170   8.080  0.00  0.00    +0.038 A 
ATOM     11  C   UNL     1      14.296  22.949   8.073  0.00  0.00    +0.047 A 
ATOM     12  C   UNL     1      13.085  22.484   8.730  0.00  0.00    +0.035 A 
ATOM     32  C   UNL     1      13.117  21.220   9.389  0.00  0.00    +0.024 A 
ATOM     33  C   UNL     1      14.313  20.414   9.406  0.00  0.00    +0.007 A 
ATOM     34  C   UNL     1      15.510  20.867   8.757  0.00  0.00    -0.029 A 
ATOM     35  C   UNL     1      16.761  19.959   8.801  0.00  0.00    +0.045 C 
ENDROOT
BRANCH  10   9
ATOM      4  C   UNL     1      17.706  23.983   4.233  0.00  0.00    +0.077 A 
ATOM      5  C   UNL     1      16.514  23.912   3.437  0.00  0.00    +0.048 A 
ATOM      6  C   UNL     1      15.352  23.396   4.054  0.00  0.00    +0.116 A 
ATOM      7  N   UNL     1      15.390  22.985   5.368  0.00  0.00    -0.223 NA
ATOM      8  C   UNL     1      16.556  23.065   6.107  0.00  0.00    +0.220 A 
ATOM      9  N   UNL     1      16.615  22.665   7.433  0.00  0.00    -0.283 N 
ATOM     36  H   UNL     1      17.497  22.733   7.941  0.00  0.00    +0.155 HD
ATOM     37  N   UNL     1      17.680  23.553   5.541  0.00  0.00    -0.214 NA
BRANCH   4   3
ATOM      1  C   UNL     1      21.532  24.639   3.753  0.00  0.00    +0.020 A 
ATOM      2  C   UNL     1      20.298  24.103   4.281  0.00  0.00    +0.013 A 
ATOM      3  C   UNL     1      19.013  24.507   3.725  0.00  0.00    +0.019 A 
ATOM     38  C   UNL     1      19.010  25.462   2.626  0.00  0.00    +0.120 A 
ATOM     39  N   UNL     1      20.214  25.962   2.140  0.00  0.00    -0.263 NA
ATOM     40  C   UNL     1      21.457  25.582   2.668  0.00  0.00    +0.111 A 
ENDBRANCH   4   3
ENDBRANCH  10   9
BRANCH  12  13
ATOM     13  N   UNL     1      11.850  23.228   8.749  0.00  0.00    -0.281 N 
ATOM     14  C   UNL     1      11.498  24.272   9.587  0.00  0.00    +0.248 C 
ATOM     30  O   UNL     1      12.113  24.587  10.595  0.00  0.00    -0.270 OA
ATOM     31  H   UNL     1      11.151  22.950   8.060  0.00  0.00    +0.155 HD
BRANCH  14  15
ATOM     15  C   UNL     1      10.278  25.075   9.267  0.00  0.00    +0.037 A 
ATOM     16  C   UNL     1       8.946  24.465   9.268  0.00  0.00    +0.013 A 
ATOM     17  C   UNL     1       7.788  25.258   8.939  0.00  0.00    +0.005 A 
ATOM     18  C   UNL     1       7.957  26.671   8.608  0.00  0.00    -0.033 A 
ATOM     28  C   UNL     1       9.290  27.251   8.621  0.00  0.00    +0.005 A 
ATOM     29  C   UNL     1      10.428  26.477   8.941  0.00  0.00    +0.013 A 
BRANCH  18  19
ATOM     19  C   UNL     1       6.780  27.588   8.225  0.00  0.00    +0.119 C 
BRANCH  19  20
ATOM     20  N   UNL     1       6.030  27.251   6.978  0.00  0.00    -0.302 NA
ATOM     21  C   UNL     1       4.860  26.303   7.250  0.00  0.00    +0.066 C 
ATOM     22  C   UNL     1       4.072  25.980   5.938  0.00  0.00    -0.064 C 
ATOM     23  N   UNL     1       5.029  25.378   4.908  0.00  0.00    +0.379 N 
ATOM     24  C   UNL     1       4.281  25.019   3.694  0.00  0.00    -0.096 C 
ATOM     25  H   UNL     1       5.443  24.437   5.340  0.00  0.00    -0.082 HD
ATOM     26  C   UNL     1       6.198  26.314   4.633  0.00  0.00    -0.064 C 
ATOM     27  C   UNL     1       6.955  26.652   5.948  0.00  0.00    +0.066 C 
ENDBRANCH  19  20
ENDBRANCH  18  19
ENDBRANCH  14  15
ENDBRANCH  12  13
TORSDOF 6
ENDMDL
MODEL 4
REMARK VINA RESULT:      -8.1      4.164     13.922
REMARK  Name = C:\Users\Docking\Desktop\test protocol\1iep_ligandH.pdb
REMARK  8 active torsions:
REMARK  status: ('A' for Active; 'I' for Inactive)
REMARK    1  A    between atoms: _5  and  _11
REMARK    2  A    between atoms: _19  and  _21
REMARK    3  A    between atoms: _22  and  _66
REMARK    4  A    between atoms: _27  and  _30
REMARK    5  A    between atoms: _32  and  _33
REMARK    6  A    between atoms: _38  and  _43
REMARK    7  A    between atoms: _43  and  _46
REMARK    8  A    between atoms: _53  and  _55
REMARK                            x       y       z     vdW  Elec       q    Type
REMARK                         _______ _______ _______ _____ _____    ______ ____
ROOT
ATOM     10  C   UNL     1      20.032  25.335   3.879  0.00  0.00    +0.038 A 
ATOM     11  C   UNL     1      18.775  25.078   4.482  0.00  0.00    +0.047 A 
ATOM     12  C   UNL     1      18.215  23.736   4.514  0.00  0.00    +0.035 A 
ATOM     32  C   UNL     1      18.965  22.677   3.923  0.00  0.00    +0.024 A 
ATOM     33  C   UNL     1      20.245  22.921   3.305  0.00  0.00    +0.007 A 
ATOM     34  C   UNL     1      20.801  24.243   3.268  0.00  0.00    -0.029 A 
ATOM     35  C   UNL     1      22.174  24.447   2.586  0.00  0.00    +0.045 C 
ENDROOT
BRANCH  10   9
ATOM      4  C   UNL     1      20.840  29.549   1.728  0.00  0.00    +0.077 A 
ATOM      5  C   UNL     1      20.262  29.098   0.495  0.00  0.00    +0.048 A 
ATOM      6  C   UNL     1      19.775  27.772   0.454  0.00  0.00    +0.116 A 
ATOM      7  N   UNL     1      19.864  26.967   1.569  0.00  0.00    -0.223 NA
ATOM      8  C   UNL     1      20.429  27.433   2.741  0.00  0.00    +0.220 A 
ATOM      9  N   UNL     1      20.522  26.643   3.877  0.00  0.00    -0.283 N 
ATOM     36  H   UNL     1      20.952  27.021   4.720  0.00  0.00    +0.155 HD
ATOM     37  N   UNL     1      20.903  28.695   2.806  0.00  0.00    -0.214 NA
BRANCH   4   3
ATOM      1  C   UNL     1      22.695  32.946   1.161  0.00  0.00    +0.020 A 
ATOM      2  C   UNL     1      22.182  31.618   0.917  0.00  0.00    +0.013 A 
ATOM      3  C   UNL     1      21.395  30.925   1.929  0.00  0.00    +0.019 A 
ATOM     38  C   UNL     1      21.142  31.610   3.188  0.00  0.00    +0.120 A 
ATOM     39  N   UNL     1      21.650  32.888   3.396  0.00  0.00    -0.263 NA
ATOM     40  C   UNL     1      22.410  33.564   2.429  0.00  0.00    +0.111 A 
ENDBRANCH   4   3
ENDBRANCH  10   9
BRANCH  12  13
ATOM     13  N   UNL     1      16.940  23.416   5.105  0.00  0.00    -0.281 N 
ATOM     14  C   UNL     1      16.696  22.756   6.298  0.00  0.00    +0.248 C 
ATOM     30  O   UNL     1      17.541  22.149   6.937  0.00  0.00    -0.270 OA
ATOM     31  H   UNL     1      16.117  23.712   4.580  0.00  0.00    +0.155 HD
BRANCH  14  15
ATOM     15  C   UNL     1      15.308  22.759   6.854  0.00  0.00    +0.037 A 
ATOM     16  C   UNL     1      14.138  22.838   5.976  0.00  0.00    +0.013 A 
ATOM     17  C   UNL     1      12.811  22.857   6.540  0.00  0.00    +0.005 A 
ATOM     18  C   UNL     1      12.648  22.794   7.990  0.00  0.00    -0.033 A 
ATOM     28  C   UNL     1      13.826  22.711   8.837  0.00  0.00    +0.005 A 
ATOM     29  C   UNL     1      15.128  22.693   8.289  0.00  0.00    +0.013 A 
BRANCH  18  19
ATOM     19  C   UNL     1      11.271  22.830   8.679  0.00  0.00    +0.119 C 
BRANCH  19  20
ATOM     20  N   UNL     1      10.412  24.025   8.429  0.00  0.00    -0.302 NA
ATOM     21  C   UNL     1      11.106  25.327   8.839  0.00  0.00    +0.066 C 
ATOM     22  C   UNL     1      10.202  26.570   8.549  0.00  0.00    -0.064 C 
ATOM     23  N   UNL     1       8.870  26.411   9.285  0.00  0.00    +0.379 N 
ATOM     24  C   UNL     1       8.041  27.604   9.062  0.00  0.00    -0.096 C 
ATOM     25  H   UNL     1       9.092  26.352  10.376  0.00  0.00    -0.082 HD
ATOM     26  C   UNL     1       8.175  25.117   8.886  0.00  0.00    -0.064 C 
ATOM     27  C   UNL     1       9.093  23.891   9.150  0.00  0.00    +0.066 C 
ENDBRANCH  19  20
ENDBRANCH  18  19
ENDBRANCH  14  15
ENDBRANCH  12  13
TORSDOF 6
ENDMDL
MODEL 5
REMARK VINA RESULT:      -8.1      2.368     14.298
REMARK  Name = C:\Users\Docking\Desktop\test protocol\1iep_ligandH.pdb
REMARK  8 active torsions:
REMARK  status: ('A' for Active; 'I' for Inactive)
REMARK    1  A    between atoms: _5  and  _11
REMARK    2  A    between atoms: _19  and  _21
REMARK    3  A    between atoms: _22  and  _66
REMARK    4  A    between atoms: _27  and  _30
REMARK    5  A    between atoms: _32  and  _33
REMARK    6  A    between atoms: _38  and  _43
REMARK    7  A    between atoms: _43  and  _46
REMARK    8  A    between atoms: _53  and  _55
REMARK                            x       y       z     vdW  Elec       q    Type
REMARK                         _______ _______ _______ _____ _____    ______ ____
ROOT
ATOM     10  C   UNL     1      19.913  25.379   3.978  0.00  0.00    +0.038 A 
ATOM     11  C   UNL     1      18.626  25.179   4.540  0.00  0.00    +0.047 A 
ATOM     12  C   UNL     1      18.017  23.859   4.573  0.00  0.00    +0.035 A 
ATOM     32  C   UNL     1      18.748  22.763   4.027  0.00  0.00    +0.024 A 
ATOM     33  C   UNL     1      20.057  22.949   3.451  0.00  0.00    +0.007 A 
ATOM     34  C   UNL     1      20.662  24.250   3.413  0.00  0.00    -0.029 A 
ATOM     35  C   UNL     1      22.064  24.392   2.778  0.00  0.00    +0.045 C 
ENDROOT
BRANCH  10   9
ATOM      4  C   UNL     1      20.852  29.564   1.823  0.00  0.00    +0.077 A 
ATOM      5  C   UNL     1      20.245  29.136   0.596  0.00  0.00    +0.048 A 
ATOM      6  C   UNL     1      19.709  27.830   0.559  0.00  0.00    +0.116 A 
ATOM      7  N   UNL     1      19.780  27.020   1.671  0.00  0.00    -0.223 NA
ATOM      8  C   UNL     1      20.374  27.463   2.839  0.00  0.00    +0.220 A 
ATOM      9  N   UNL     1      20.450  26.669   3.972  0.00  0.00    -0.283 N 
ATOM     36  H   UNL     1      20.903  27.030   4.812  0.00  0.00    +0.155 HD
ATOM     37  N   UNL     1      20.895  28.706   2.900  0.00  0.00    -0.214 NA
BRANCH   4   3
ATOM      1  C   UNL     1      22.853  32.877   1.254  0.00  0.00    +0.020 A 
ATOM      2  C   UNL     1      22.290  31.568   1.014  0.00  0.00    +0.013 A 
ATOM      3  C   UNL     1      21.460  30.918   2.020  0.00  0.00    +0.019 A 
ATOM     38  C   UNL     1      21.215  31.626   3.268  0.00  0.00    +0.120 A 
ATOM     39  N   UNL     1      21.771  32.885   3.472  0.00  0.00    -0.263 NA
ATOM     40  C   UNL     1      22.573  33.520   2.511  0.00  0.00    +0.111 A 
ENDBRANCH   4   3
ENDBRANCH  10   9
BRANCH  12  13
ATOM     13  N   UNL     1      16.710  23.596   5.123  0.00  0.00    -0.281 N 
ATOM     14  C   UNL     1      16.401  22.989   6.330  0.00  0.00    +0.248 C 
ATOM     30  O   UNL     1      17.203  22.386   7.026  0.00  0.00    -0.270 OA
ATOM     31  H   UNL     1      15.918  23.892   4.554  0.00  0.00    +0.155 HD
BRANCH  14  15
ATOM     15  C   UNL     1      14.993  23.051   6.828  0.00  0.00    +0.037 A 
ATOM     16  C   UNL     1      14.695  23.080   8.262  0.00  0.00    +0.013 A 
ATOM     17  C   UNL     1      13.327  23.122   8.716  0.00  0.00    +0.005 A 
ATOM     18  C   UNL     1      12.247  23.136   7.733  0.00  0.00    -0.033 A 
ATOM     28  C   UNL     1      12.571  23.111   6.316  0.00  0.00    +0.005 A 
ATOM     29  C   UNL     1      13.910  23.069   5.868  0.00  0.00    +0.013 A 
BRANCH  18  19
ATOM     19  C   UNL     1      10.758  23.158   8.127  0.00  0.00    +0.119 C 
BRANCH  19  20
ATOM     20  N   UNL     1      10.285  22.106   9.075  0.00  0.00    -0.302 NA
ATOM     21  C   UNL     1      10.508  20.694   8.524  0.00  0.00    +0.066 C 
ATOM     22  C   UNL     1      10.029  19.605   9.538  0.00  0.00    -0.064 C 
ATOM     23  N   UNL     1       8.552  19.832   9.865  0.00  0.00    +0.379 N 
ATOM     24  C   UNL     1       8.083  18.775  10.773  0.00  0.00    -0.096 C 
ATOM     25  H   UNL     1       7.977  19.740   8.914  0.00  0.00    -0.082 HD
ATOM     26  C   UNL     1       8.321  21.233  10.411  0.00  0.00    -0.064 C 
ATOM     27  C   UNL     1       8.828  22.308   9.409  0.00  0.00    +0.066 C 
ENDBRANCH  19  20
ENDBRANCH  18  19
ENDBRANCH  14  15
ENDBRANCH  12  13
TORSDOF 6
ENDMDL
