MODEL 1
REMARK VINA RESULT:      -8.6      0.000      0.000
REMARK  Name = C:\Users\Docking\Desktop\test protocol\1iep_ligandH.pdb
REMARK  8 active torsions:
REMARK  status: ('A' for Active; 'I' for Inactive)
REMARK    1  A    between atoms: _5  and  _11
REMARK    2  A    between atoms: _19  and  _21
REMARK    3  A    between atoms: _22  and  _66
REMARK    4  A    between atoms: _27  and  _30
REMARK    5  A    between atoms: _32  and  _33
REMARK    6  A    between atoms: _38  and  _43
REMARK    7  A    between atoms: _43  and  _46
REMARK    8  A    between atoms: _53  and  _55
REMARK                            x       y       z     vdW  Elec       q    Type
REMARK                         _______ _______ _______ _____ _____    ______ ____
ROOT
ATOM     10  C   UNL     1      14.693  21.578   7.599  0.00  0.00    +0.038 A 
ATOM     11  C   UNL     1      15.852  21.691   8.408  0.00  0.00    +0.047 A 
ATOM     12  C   UNL     1      16.821  20.609   8.491  0.00  0.00    +0.035 A 
ATOM     32  C   UNL     1      16.579  19.427   7.732  0.00  0.00    +0.024 A 
ATOM     33  C   UNL     1      15.406  19.294   6.905  0.00  0.00    +0.007 A 
ATOM     34  C   UNL     1      14.445  20.357   6.822  0.00  0.00    -0.029 A 
ATOM     35  C   UNL     1      13.202  20.158   5.924  0.00  0.00    +0.045 C 
ENDROOT
BRANCH  10   9
ATOM      4  C   UNL     1      11.035  24.107   9.404  0.00  0.00    +0.077 A 
ATOM      5  C   UNL     1      10.880  23.206  10.510  0.00  0.00    +0.048 A 
ATOM      6  C   UNL     1      11.758  22.100  10.573  0.00  0.00    +0.116 A 
ATOM      7  N   UNL     1      12.715  21.919   9.598  0.00  0.00    -0.223 NA
ATOM      8  C   UNL     1      12.835  22.806   8.544  0.00  0.00    +0.220 A 
ATOM      9  N   UNL     1      13.796  22.647   7.557  0.00  0.00    -0.283 N 
ATOM     36  H   UNL     1      13.848  23.319   6.792  0.00  0.00    +0.155 HD
ATOM     37  N   UNL     1      12.009  23.869   8.460  0.00  0.00    -0.214 NA
BRANCH   4   3
ATOM      1  C   UNL     1       7.959  26.472   8.909  0.00  0.00    +0.020 A 
ATOM      2  C   UNL     1       8.732  25.268   9.106  0.00  0.00    +0.013 A 
ATOM      3  C   UNL     1      10.186  25.323   9.200  0.00  0.00    +0.019 A 
ATOM     38  C   UNL     1      10.830  26.623   9.090  0.00  0.00    +0.120 A 
ATOM     39  N   UNL     1      10.060  27.765   8.899  0.00  0.00    -0.263 NA
ATOM     40  C   UNL     1       8.661  27.724   8.806  0.00  0.00    +0.111 A 
ENDBRANCH   4   3
ENDBRANCH  10   9
BRANCH  12  13
ATOM     13  N   UNL     1      18.012  20.664   9.302  0.00  0.00    -0.281 N 
ATOM     14  C   UNL     1      19.281  21.069   8.924  0.00  0.00    +0.248 C 
ATOM     30  O   UNL     1      19.636  21.244   7.768  0.00  0.00    -0.270 OA
ATOM     31  H   UNL     1      17.906  20.368  10.272  0.00  0.00    +0.155 HD
BRANCH  14  15
ATOM     15  C   UNL     1      20.311  21.298   9.983  0.00  0.00    +0.037 A 
ATOM     16  C   UNL     1      20.662  20.247  10.942  0.00  0.00    +0.013 A 
ATOM     17  C   UNL     1      21.646  20.500  11.964  0.00  0.00    +0.005 A 
ATOM     18  C   UNL     1      22.288  21.811  12.032  0.00  0.00    -0.033 A 
ATOM     28  C   UNL     1      21.924  22.834  11.065  0.00  0.00    +0.005 A 
ATOM     29  C   UNL     1      20.959  22.590  10.062  0.00  0.00    +0.013 A 
BRANCH  18  19
ATOM     19  C   UNL     1      23.333  22.177  13.102  0.00  0.00    +0.119 C 
BRANCH  19  20
ATOM     20  N   UNL     1      22.823  22.666  14.418  0.00  0.00    -0.302 NA
ATOM     21  C   UNL     1      22.616  24.183  14.426  0.00  0.00    +0.066 C 
ATOM     22  C   UNL     1      22.060  24.674  15.802  0.00  0.00    -0.064 C 
ATOM     23  N   UNL     1      23.020  24.253  16.916  0.00  0.00    +0.379 N 
ATOM     24  C   UNL     1      22.530  24.764  18.205  0.00  0.00    -0.096 C 
ATOM     25  H   UNL     1      24.005  24.734  16.714  0.00  0.00    -0.082 HD
ATOM     26  C   UNL     1      23.234  22.746  16.914  0.00  0.00    -0.064 C 
ATOM     27  C   UNL     1      23.758  22.264  15.532  0.00  0.00    +0.066 C 
ENDBRANCH  19  20
ENDBRANCH  18  19
ENDBRANCH  14  15
ENDBRANCH  12  13
TORSDOF 6
ENDMDL
MODEL 2
REMARK VINA RESULT:      -8.4      7.340     12.233
REMARK  Name = C:\Users\Docking\Desktop\test protocol\1iep_ligandH.pdb
REMARK  8 active torsions:
REMARK  status: ('A' for Active; 'I' for Inactive)
REMARK    1  A    between atoms: _5  and  _11
REMARK    2  A    between atoms: _19  and  _21
REMARK    3  A    between atoms: _22  and  _66
REMARK    4  A    between atoms: _27  and  _30
REMARK    5  A    between atoms: _32  and  _33
REMARK    6  A    between atoms: _38  and  _43
REMARK    7  A    between atoms: _43  and  _46
REMARK    8  A    between atoms: _53  and  _55
REMARK                            x       y       z     vdW  Elec       q    Type
REMARK                         _______ _______ _______ _____ _____    ______ ____
ROOT
ATOM     10  C   UNL     1      20.106  25.448   4.322  0.00  0.00    +0.038 A 
ATOM     11  C   UNL     1      18.787  25.238   4.801  0.00  0.00    +0.047 A 
ATOM     12  C   UNL     1      18.210  23.904   4.858  0.00  0.00    +0.035 A 
ATOM     32  C   UNL     1      19.006  22.805   4.421  0.00  0.00    +0.024 A 
ATOM     33  C   UNL     1      20.347  23.000   3.930  0.00  0.00    +0.007 A 
ATOM     34  C   UNL     1      20.921  24.314   3.869  0.00  0.00    -0.029 A 
ATOM     35  C   UNL     1      22.361  24.465   3.328  0.00  0.00    +0.045 C 
ENDROOT
BRANCH  10   9
ATOM      4  C   UNL     1      21.120  29.537   2.024  0.00  0.00    +0.077 A 
ATOM      5  C   UNL     1      20.629  29.027   0.776  0.00  0.00    +0.048 A 
ATOM      6  C   UNL     1      20.131  27.705   0.767  0.00  0.00    +0.116 A 
ATOM      7  N   UNL     1      20.128  26.958   1.925  0.00  0.00    -0.223 NA
ATOM      8  C   UNL     1      20.610  27.480   3.111  0.00  0.00    +0.220 A 
ATOM      9  N   UNL     1      20.609  26.750   4.290  0.00  0.00    -0.283 N 
ATOM     36  H   UNL     1      20.981  27.168   5.142  0.00  0.00    +0.155 HD
ATOM     37  N   UNL     1      21.093  28.740   3.146  0.00  0.00    -0.214 NA
BRANCH   4   3
ATOM      1  C   UNL     1      22.299  32.918   3.600  0.00  0.00    +0.020 A 
ATOM      2  C   UNL     1      21.753  31.585   3.489  0.00  0.00    +0.013 A 
ATOM      3  C   UNL     1      21.675  30.917   2.196  0.00  0.00    +0.019 A 
ATOM     38  C   UNL     1      22.162  31.632   1.025  0.00  0.00    +0.120 A 
ATOM     39  N   UNL     1      22.681  32.915   1.162  0.00  0.00    -0.263 NA
ATOM     40  C   UNL     1      22.760  33.568   2.401  0.00  0.00    +0.111 A 
ENDBRANCH   4   3
ENDBRANCH  10   9
BRANCH  12  13
ATOM     13  N   UNL     1      16.875  23.630   5.327  0.00  0.00    -0.281 N 
ATOM     14  C   UNL     1      16.497  22.909   6.448  0.00  0.00    +0.248 C 
ATOM     30  O   UNL     1      17.250  22.204   7.103  0.00  0.00    -0.270 OA
ATOM     31  H   UNL     1      16.116  24.016   4.765  0.00  0.00    +0.155 HD
BRANCH  14  15
ATOM     15  C   UNL     1      15.072  22.967   6.897  0.00  0.00    +0.037 A 
ATOM     16  C   UNL     1      14.034  22.173   6.235  0.00  0.00    +0.013 A 
ATOM     17  C   UNL     1      12.664  22.261   6.678  0.00  0.00    +0.005 A 
ATOM     18  C   UNL     1      12.327  23.145   7.791  0.00  0.00    -0.033 A 
ATOM     28  C   UNL     1      13.378  23.917   8.433  0.00  0.00    +0.005 A 
ATOM     29  C   UNL     1      14.721  23.835   8.001  0.00  0.00    +0.013 A 
BRANCH  18  19
ATOM     19  C   UNL     1      10.889  23.318   8.316  0.00  0.00    +0.119 C 
BRANCH  19  20
ATOM     20  N   UNL     1      10.239  24.646   8.106  0.00  0.00    -0.302 NA
ATOM     21  C   UNL     1       8.956  24.794   8.929  0.00  0.00    +0.066 C 
ATOM     22  C   UNL     1       8.302  26.197   8.716  0.00  0.00    -0.064 C 
ATOM     23  N   UNL     1       8.017  26.403   7.227  0.00  0.00    +0.379 N 
ATOM     24  C   UNL     1       7.349  27.697   7.029  0.00  0.00    -0.096 C 
ATOM     25  H   UNL     1       7.309  25.604   6.905  0.00  0.00    -0.082 HD
ATOM     26  C   UNL     1       9.287  26.255   6.401  0.00  0.00    -0.064 C 
ATOM     27  C   UNL     1       9.945  24.868   6.643  0.00  0.00    +0.066 C 
ENDBRANCH  19  20
ENDBRANCH  18  19
ENDBRANCH  14  15
ENDBRANCH  12  13
TORSDOF 6
ENDMDL
MODEL 3
REMARK VINA RESULT:      -8.1      7.695     11.651
REMARK  Name = C:\Users\Docking\Desktop\test protocol\1iep_ligandH.pdb
REMARK  8 active torsions:
REMARK  status: ('A' for Active; 'I' for Inactive)
REMARK    1  A    between atoms: _5  and  _11
REMARK    2  A    between atoms: _19  and  _21
REMARK    3  A    between atoms: _22  and  _66
REMARK    4  A    between atoms: _27  and  _30
REMARK    5  A    between atoms: _32  and  _33
REMARK    6  A    between atoms: _38  and  _43
REMARK    7  A    between atoms: _43  and  _46
REMARK    8  A    between atoms: _53  and  _55
REMARK                            x       y       z     vdW  Elec       q    Type
REMARK                         _______ _______ _______ _____ _____    ______ ____
ROOT
ATOM     10  C   UNL     1      20.280  25.726   3.867  0.00  0.00    +0.038 A 
ATOM     11  C   UNL     1      19.061  25.484   4.551  0.00  0.00    +0.047 A 
ATOM     12  C   UNL     1      18.434  24.171   4.530  0.00  0.00    +0.035 A 
ATOM     32  C   UNL     1      19.079  23.126   3.805  0.00  0.00    +0.024 A 
ATOM     33  C   UNL     1      20.317  23.355   3.104  0.00  0.00    +0.007 A 
ATOM     34  C   UNL     1      20.939  24.649   3.118  0.00  0.00    -0.029 A 
ATOM     35  C   UNL     1      22.263  24.838   2.343  0.00  0.00    +0.045 C 
ENDROOT
BRANCH  10   9
ATOM      4  C   UNL     1      21.315  29.977   1.895  0.00  0.00    +0.077 A 
ATOM      5  C   UNL     1      20.718  29.609   0.644  0.00  0.00    +0.048 A 
ATOM      6  C   UNL     1      20.162  28.313   0.547  0.00  0.00    +0.116 A 
ATOM      7  N   UNL     1      20.205  27.459   1.627  0.00  0.00    -0.223 NA
ATOM      8  C   UNL     1      20.790  27.845   2.819  0.00  0.00    +0.220 A 
ATOM      9  N   UNL     1      20.837  27.005   3.921  0.00  0.00    -0.283 N 
ATOM     36  H   UNL     1      21.284  27.325   4.780  0.00  0.00    +0.155 HD
ATOM     37  N   UNL     1      21.329  29.077   2.937  0.00  0.00    -0.214 NA
BRANCH   4   3
ATOM      1  C   UNL     1      22.553  33.240   3.663  0.00  0.00    +0.020 A 
ATOM      2  C   UNL     1      21.933  31.950   3.465  0.00  0.00    +0.013 A 
ATOM      3  C   UNL     1      21.941  31.313   2.155  0.00  0.00    +0.019 A 
ATOM     38  C   UNL     1      22.590  32.012   1.056  0.00  0.00    +0.120 A 
ATOM     39  N   UNL     1      23.177  33.255   1.276  0.00  0.00    -0.263 NA
ATOM     40  C   UNL     1      23.174  33.879   2.532  0.00  0.00    +0.111 A 
ENDBRANCH   4   3
ENDBRANCH  10   9
BRANCH  12  13
ATOM     13  N   UNL     1      17.193  23.868   5.199  0.00  0.00    -0.281 N 
ATOM     14  C   UNL     1      16.981  22.975   6.237  0.00  0.00    +0.248 C 
ATOM     30  O   UNL     1      17.793  22.141   6.607  0.00  0.00    -0.270 OA
ATOM     31  H   UNL     1      16.372  24.373   4.866  0.00  0.00    +0.155 HD
BRANCH  14  15
ATOM     15  C   UNL     1      15.672  23.005   6.958  0.00  0.00    +0.037 A 
ATOM     16  C   UNL     1      14.406  23.128   6.230  0.00  0.00    +0.013 A 
ATOM     17  C   UNL     1      13.159  23.171   6.952  0.00  0.00    +0.005 A 
ATOM     18  C   UNL     1      13.172  23.090   8.410  0.00  0.00    -0.033 A 
ATOM     28  C   UNL     1      14.442  22.963   9.106  0.00  0.00    +0.005 A 
ATOM     29  C   UNL     1      15.666  22.921   8.403  0.00  0.00    +0.013 A 
BRANCH  18  19
ATOM     19  C   UNL     1      11.890  23.149   9.263  0.00  0.00    +0.119 C 
BRANCH  19  20
ATOM     20  N   UNL     1      11.631  22.007  10.189  0.00  0.00    -0.302 NA
ATOM     21  C   UNL     1      11.560  20.670   9.445  0.00  0.00    +0.066 C 
ATOM     22  C   UNL     1      11.311  19.483  10.432  0.00  0.00    -0.064 C 
ATOM     23  N   UNL     1      10.022  19.736  11.215  0.00  0.00    +0.379 N 
ATOM     24  C   UNL     1       9.754  18.595  12.102  0.00  0.00    -0.096 C 
ATOM     25  H   UNL     1       9.186  19.797  10.480  0.00  0.00    -0.082 HD
ATOM     26  C   UNL     1      10.083  21.065  11.955  0.00  0.00    -0.064 C 
ATOM     27  C   UNL     1      10.361  22.234  10.970  0.00  0.00    +0.066 C 
ENDBRANCH  19  20
ENDBRANCH  18  19
ENDBRANCH  14  15
ENDBRANCH  12  13
TORSDOF 6
ENDMDL
MODEL 4
REMARK VINA RESULT:      -8.1      5.627      8.031
REMARK  Name = C:\Users\Docking\Desktop\test protocol\1iep_ligandH.pdb
REMARK  8 active torsions:
REMARK  status: ('A' for Active; 'I' for Inactive)
REMARK    1  A    between atoms: _5  and  _11
REMARK    2  A    between atoms: _19  and  _21
REMARK    3  A    between atoms: _22  and  _66
REMARK    4  A    between atoms: _27  and  _30
REMARK    5  A    between atoms: _32  and  _33
REMARK    6  A    between atoms: _38  and  _43
REMARK    7  A    between atoms: _43  and  _46
REMARK    8  A    between atoms: _53  and  _55
REMARK                            x       y       z     vdW  Elec       q    Type
REMARK                         _______ _______ _______ _____ _____    ______ ____
ROOT
ATOM     10  C   UNL     1      12.121  23.281   8.723  0.00  0.00    +0.038 A 
ATOM     11  C   UNL     1      13.302  23.480   7.964  0.00  0.00    +0.047 A 
ATOM     12  C   UNL     1      14.601  23.061   8.469  0.00  0.00    +0.035 A 
ATOM     32  C   UNL     1      14.658  22.439   9.750  0.00  0.00    +0.024 A 
ATOM     33  C   UNL     1      13.468  22.229  10.535  0.00  0.00    +0.007 A 
ATOM     34  C   UNL     1      12.184  22.643  10.043  0.00  0.00    -0.029 A 
ATOM     35  C   UNL     1      10.942  22.399  10.931  0.00  0.00    +0.045 C 
ENDROOT
BRANCH  10   9
ATOM      4  C   UNL     1       8.812  26.653   7.875  0.00  0.00    +0.077 A 
ATOM      5  C   UNL     1       9.565  27.652   8.577  0.00  0.00    +0.048 A 
ATOM      6  C   UNL     1      10.796  27.256   9.148  0.00  0.00    +0.116 A 
ATOM      7  N   UNL     1      11.231  25.954   9.020  0.00  0.00    -0.223 NA
ATOM      8  C   UNL     1      10.479  25.015   8.338  0.00  0.00    +0.220 A 
ATOM      9  N   UNL     1      10.901  23.703   8.190  0.00  0.00    -0.283 N 
ATOM     36  H   UNL     1      10.314  23.038   7.686  0.00  0.00    +0.155 HD
ATOM     37  N   UNL     1       9.300  25.369   7.785  0.00  0.00    -0.214 NA
BRANCH   4   3
ATOM      1  C   UNL     1       4.998  27.271   7.269  0.00  0.00    +0.020 A 
ATOM      2  C   UNL     1       6.243  27.012   7.955  0.00  0.00    +0.013 A 
ATOM      3  C   UNL     1       7.495  26.919   7.215  0.00  0.00    +0.019 A 
ATOM     38  C   UNL     1       7.453  27.094   5.771  0.00  0.00    +0.120 A 
ATOM     39  N   UNL     1       6.239  27.340   5.138  0.00  0.00    -0.263 NA
ATOM     40  C   UNL     1       5.027  27.431   5.839  0.00  0.00    +0.111 A 
ENDBRANCH   4   3
ENDBRANCH  10   9
BRANCH  12  13
ATOM     13  N   UNL     1      15.835  23.245   7.747  0.00  0.00    -0.281 N 
ATOM     14  C   UNL     1      16.473  22.346   6.908  0.00  0.00    +0.248 C 
ATOM     30  O   UNL     1      16.186  21.162   6.817  0.00  0.00    -0.270 OA
ATOM     31  H   UNL     1      16.295  24.147   7.870  0.00  0.00    +0.155 HD
BRANCH  14  15
ATOM     15  C   UNL     1      17.602  22.830   6.056  0.00  0.00    +0.037 A 
ATOM     16  C   UNL     1      18.923  22.200   6.117  0.00  0.00    +0.013 A 
ATOM     17  C   UNL     1      20.000  22.697   5.297  0.00  0.00    +0.005 A 
ATOM     18  C   UNL     1      19.758  23.831   4.407  0.00  0.00    -0.033 A 
ATOM     28  C   UNL     1      18.435  24.433   4.363  0.00  0.00    +0.005 A 
ATOM     29  C   UNL     1      17.378  23.949   5.166  0.00  0.00    +0.013 A 
BRANCH  18  19
ATOM     19  C   UNL     1      20.853  24.440   3.512  0.00  0.00    +0.119 C 
BRANCH  19  20
ATOM     20  N   UNL     1      20.478  25.624   2.683  0.00  0.00    -0.302 NA
ATOM     21  C   UNL     1      21.019  25.520   1.254  0.00  0.00    +0.066 C 
ATOM     22  C   UNL     1      20.598  26.756   0.395  0.00  0.00    -0.064 C 
ATOM     23  N   UNL     1      21.095  28.036   1.069  0.00  0.00    +0.379 N 
ATOM     24  C   UNL     1      20.752  29.196   0.234  0.00  0.00    -0.096 C 
ATOM     25  H   UNL     1      22.207  27.977   1.127  0.00  0.00    -0.082 HD
ATOM     26  C   UNL     1      20.564  28.146   2.492  0.00  0.00    -0.064 C 
ATOM     27  C   UNL     1      20.963  26.899   3.329  0.00  0.00    +0.066 C 
ENDBRANCH  19  20
ENDBRANCH  18  19
ENDBRANCH  14  15
ENDBRANCH  12  13
TORSDOF 6
ENDMDL
MODEL 5
REMARK VINA RESULT:      -7.9      5.365     12.685
REMARK  Name = C:\Users\Docking\Desktop\test protocol\1iep_ligandH.pdb
REMARK  8 active torsions:
REMARK  status: ('A' for Active; 'I' for Inactive)
REMARK    1  A    between atoms: _5  and  _11
REMARK    2  A    between atoms: _19  and  _21
REMARK    3  A    between atoms: _22  and  _66
REMARK    4  A    between atoms: _27  and  _30
REMARK    5  A    between atoms: _32  and  _33
REMARK    6  A    between atoms: _38  and  _43
REMARK    7  A    between atoms: _43  and  _46
REMARK    8  A    between atoms: _53  and  _55
REMARK                            x       y       z     vdW  Elec       q    Type
REMARK                         _______ _______ _______ _____ _____    ______ ____
ROOT
ATOM     10  C   UNL     1      15.998  21.520   8.757  0.00  0.00    +0.038 A 
ATOM     11  C   UNL     1      14.872  22.381   8.695  0.00  0.00    +0.047 A 
ATOM     12  C   UNL     1      13.590  21.985   9.256  0.00  0.00    +0.035 A 
ATOM     32  C   UNL     1      13.490  20.705   9.876  0.00  0.00    +0.024 A 
ATOM     33  C   UNL     1      14.624  19.817   9.946  0.00  0.00    +0.007 A 
ATOM     34  C   UNL     1      15.890  20.201   9.392  0.00  0.00    -0.029 A 
ATOM     35  C   UNL     1      17.070  19.206   9.491  0.00  0.00    +0.045 C 
ENDROOT
BRANCH  10   9
ATOM      4  C   UNL     1      19.048  21.956   5.077  0.00  0.00    +0.077 A 
ATOM      5  C   UNL     1      18.175  21.240   4.191  0.00  0.00    +0.048 A 
ATOM      6  C   UNL     1      16.953  20.771   4.724  0.00  0.00    +0.116 A 
ATOM      7  N   UNL     1      16.639  21.005   6.045  0.00  0.00    -0.223 NA
ATOM      8  C   UNL     1      17.504  21.697   6.872  0.00  0.00    +0.220 A 
ATOM      9  N   UNL     1      17.205  21.951   8.202  0.00  0.00    -0.283 N 
ATOM     36  H   UNL     1      17.873  22.459   8.781  0.00  0.00    +0.155 HD
ATOM     37  N   UNL     1      18.677  22.155   6.388  0.00  0.00    -0.214 NA
BRANCH   4   3
ATOM      1  C   UNL     1      22.081  24.370   4.555  0.00  0.00    +0.020 A 
ATOM      2  C   UNL     1      20.791  23.877   4.980  0.00  0.00    +0.013 A 
ATOM      3  C   UNL     1      20.372  22.518   4.661  0.00  0.00    +0.019 A 
ATOM     38  C   UNL     1      21.289  21.677   3.906  0.00  0.00    +0.120 A 
ATOM     39  N   UNL     1      22.524  22.180   3.509  0.00  0.00    -0.263 NA
ATOM     40  C   UNL     1      22.937  23.486   3.809  0.00  0.00    +0.111 A 
ENDBRANCH   4   3
ENDBRANCH  10   9
BRANCH  12  13
ATOM     13  N   UNL     1      12.411  22.813   9.216  0.00  0.00    -0.281 N 
ATOM     14  C   UNL     1      12.104  23.898  10.022  0.00  0.00    +0.248 C 
ATOM     30  O   UNL     1      12.704  24.189  11.046  0.00  0.00    -0.270 OA
ATOM     31  H   UNL     1      11.718  22.571   8.508  0.00  0.00    +0.155 HD
BRANCH  14  15
ATOM     15  C   UNL     1      10.956  24.776   9.644  0.00  0.00    +0.037 A 
ATOM     16  C   UNL     1      11.159  26.185   9.297  0.00  0.00    +0.013 A 
ATOM     17  C   UNL     1      10.032  27.015   8.952  0.00  0.00    +0.005 A 
ATOM     18  C   UNL     1       8.690  26.437   8.952  0.00  0.00    -0.033 A 
ATOM     28  C   UNL     1       8.518  25.035   9.295  0.00  0.00    +0.005 A 
ATOM     29  C   UNL     1       9.620  24.219   9.634  0.00  0.00    +0.013 A 
BRANCH  18  19
ATOM     19  C   UNL     1       7.428  27.254   8.617  0.00  0.00    +0.119 C 
BRANCH  19  20
ATOM     20  N   UNL     1       6.694  26.896   7.367  0.00  0.00    -0.302 NA
ATOM     21  C   UNL     1       7.279  27.594   6.137  0.00  0.00    +0.066 C 
ATOM     22  C   UNL     1       6.513  27.191   4.835  0.00  0.00    -0.064 C 
ATOM     23  N   UNL     1       5.030  27.529   4.994  0.00  0.00    +0.379 N 
ATOM     24  C   UNL     1       4.317  27.205   3.750  0.00  0.00    -0.096 C 
ATOM     25  H   UNL     1       4.949  28.629   5.154  0.00  0.00    -0.082 HD
ATOM     26  C   UNL     1       4.440  26.840   6.217  0.00  0.00    -0.064 C 
ATOM     27  C   UNL     1       5.227  27.225   7.501  0.00  0.00    +0.066 C 
ENDBRANCH  19  20
ENDBRANCH  18  19
ENDBRANCH  14  15
ENDBRANCH  12  13
TORSDOF 6
ENDMDL
