MODEL 1
REMARK VINA RESULT:      -8.7      0.000      0.000
REMARK  Name = C:\Users\Docking\Desktop\test protocol\1iep_ligandH.pdb
REMARK  8 active torsions:
REMARK  status: ('A' for Active; 'I' for Inactive)
REMARK    1  A    between atoms: _5  and  _11
REMARK    2  A    between atoms: _19  and  _21
REMARK    3  A    between atoms: _22  and  _66
REMARK    4  A    between atoms: _27  and  _30
REMARK    5  A    between atoms: _32  and  _33
REMARK    6  A    between atoms: _38  and  _43
REMARK    7  A    between atoms: _43  and  _46
REMARK    8  A    between atoms: _53  and  _55
REMARK                            x       y       z     vdW  Elec       q    Type
REMARK                         _______ _______ _______ _____ _____    ______ ____
ROOT
ATOM     10  C   UNL     1      15.028  21.455   7.400  0.00  0.00    +0.038 A 
ATOM     11  C   UNL     1      16.143  21.547   8.271  0.00  0.00    +0.047 A 
ATOM     12  C   UNL     1      17.158  20.505   8.307  0.00  0.00    +0.035 A 
ATOM     32  C   UNL     1      17.005  19.384   7.440  0.00  0.00    +0.024 A 
ATOM     33  C   UNL     1      15.877  19.273   6.550  0.00  0.00    +0.007 A 
ATOM     34  C   UNL     1      14.872  20.297   6.511  0.00  0.00    -0.029 A 
ATOM     35  C   UNL     1      13.680  20.123   5.542  0.00  0.00    +0.045 C 
ENDROOT
BRANCH  10   9
ATOM      4  C   UNL     1      11.251  23.723   9.305  0.00  0.00    +0.077 A 
ATOM      5  C   UNL     1      11.131  22.761  10.362  0.00  0.00    +0.048 A 
ATOM      6  C   UNL     1      12.057  21.693  10.375  0.00  0.00    +0.116 A 
ATOM      7  N   UNL     1      13.026  21.605   9.400  0.00  0.00    -0.223 NA
ATOM      8  C   UNL     1      13.112  22.549   8.393  0.00  0.00    +0.220 A 
ATOM      9  N   UNL     1      14.084  22.485   7.406  0.00  0.00    -0.283 N 
ATOM     36  H   UNL     1      14.110  23.197   6.677  0.00  0.00    +0.155 HD
ATOM     37  N   UNL     1      12.240  23.578   8.357  0.00  0.00    -0.214 NA
BRANCH   4   3
ATOM      1  C   UNL     1       8.073  25.974   8.937  0.00  0.00    +0.020 A 
ATOM      2  C   UNL     1       8.899  24.797   9.079  0.00  0.00    +0.013 A 
ATOM      3  C   UNL     1      10.350  24.910   9.157  0.00  0.00    +0.019 A 
ATOM     38  C   UNL     1      10.939  26.238   9.088  0.00  0.00    +0.120 A 
ATOM     39  N   UNL     1      10.119  27.354   8.949  0.00  0.00    -0.263 NA
ATOM     40  C   UNL     1       8.721  27.258   8.871  0.00  0.00    +0.111 A 
ENDBRANCH   4   3
ENDBRANCH  10   9
BRANCH  12  13
ATOM     13  N   UNL     1      18.308  20.540   9.176  0.00  0.00    -0.281 N 
ATOM     14  C   UNL     1      19.563  21.060   8.906  0.00  0.00    +0.248 C 
ATOM     30  O   UNL     1      19.953  21.384   7.794  0.00  0.00    -0.270 OA
ATOM     31  H   UNL     1      18.181  20.133  10.102  0.00  0.00    +0.155 HD
BRANCH  14  15
ATOM     15  C   UNL     1      20.531  21.231  10.032  0.00  0.00    +0.037 A 
ATOM     16  C   UNL     1      20.743  20.170  11.020  0.00  0.00    +0.013 A 
ATOM     17  C   UNL     1      21.670  20.368  12.106  0.00  0.00    +0.005 A 
ATOM     18  C   UNL     1      22.394  21.633  12.208  0.00  0.00    -0.033 A 
ATOM     28  C   UNL     1      22.168  22.666  11.211  0.00  0.00    +0.005 A 
ATOM     29  C   UNL     1      21.260  22.477  10.146  0.00  0.00    +0.013 A 
BRANCH  18  19
ATOM     19  C   UNL     1      23.386  21.939  13.346  0.00  0.00    +0.119 C 
BRANCH  19  20
ATOM     20  N   UNL     1      22.822  22.476  14.620  0.00  0.00    -0.302 NA
ATOM     21  C   UNL     1      22.597  23.990  14.555  0.00  0.00    +0.066 C 
ATOM     22  C   UNL     1      21.985  24.532  15.888  0.00  0.00    -0.064 C 
ATOM     23  N   UNL     1      22.907  24.171  17.053  0.00  0.00    +0.379 N 
ATOM     24  C   UNL     1      22.364  24.729  18.300  0.00  0.00    -0.096 C 
ATOM     25  H   UNL     1      23.893  24.656  16.866  0.00  0.00    -0.082 HD
ATOM     26  C   UNL     1      23.138  22.668  17.123  0.00  0.00    -0.064 C 
ATOM     27  C   UNL     1      23.719  22.135  15.784  0.00  0.00    +0.066 C 
ENDBRANCH  19  20
ENDBRANCH  18  19
ENDBRANCH  14  15
ENDBRANCH  12  13
TORSDOF 6
ENDMDL
MODEL 2
REMARK VINA RESULT:      -8.1      5.868      8.036
REMARK  Name = C:\Users\Docking\Desktop\test protocol\1iep_ligandH.pdb
REMARK  8 active torsions:
REMARK  status: ('A' for Active; 'I' for Inactive)
REMARK    1  A    between atoms: _5  and  _11
REMARK    2  A    between atoms: _19  and  _21
REMARK    3  A    between atoms: _22  and  _66
REMARK    4  A    between atoms: _27  and  _30
REMARK    5  A    between atoms: _32  and  _33
REMARK    6  A    between atoms: _38  and  _43
REMARK    7  A    between atoms: _43  and  _46
REMARK    8  A    between atoms: _53  and  _55
REMARK                            x       y       z     vdW  Elec       q    Type
REMARK                         _______ _______ _______ _____ _____    ______ ____
ROOT
ATOM     10  C   UNL     1      12.415  23.178   8.276  0.00  0.00    +0.038 A 
ATOM     11  C   UNL     1      13.604  23.448   7.552  0.00  0.00    +0.047 A 
ATOM     12  C   UNL     1      14.905  23.040   8.061  0.00  0.00    +0.035 A 
ATOM     32  C   UNL     1      14.957  22.357   9.312  0.00  0.00    +0.024 A 
ATOM     33  C   UNL     1      13.758  22.076  10.062  0.00  0.00    +0.007 A 
ATOM     34  C   UNL     1      12.473  22.478   9.565  0.00  0.00    -0.029 A 
ATOM     35  C   UNL     1      11.221  22.156  10.415  0.00  0.00    +0.045 C 
ENDROOT
BRANCH  10   9
ATOM      4  C   UNL     1       8.892  26.397   7.761  0.00  0.00    +0.077 A 
ATOM      5  C   UNL     1       9.525  27.321   8.657  0.00  0.00    +0.048 A 
ATOM      6  C   UNL     1      10.753  26.927   9.235  0.00  0.00    +0.116 A 
ATOM      7  N   UNL     1      11.298  25.698   8.932  0.00  0.00    -0.223 NA
ATOM      8  C   UNL     1      10.660  24.830   8.065  0.00  0.00    +0.220 A 
ATOM      9  N   UNL     1      11.194  23.592   7.740  0.00  0.00    -0.283 N 
ATOM     36  H   UNL     1      10.689  22.977   7.103  0.00  0.00    +0.155 HD
ATOM     37  N   UNL     1       9.486  25.182   7.501  0.00  0.00    -0.214 NA
BRANCH   4   3
ATOM      1  C   UNL     1       5.113  27.134   7.070  0.00  0.00    +0.020 A 
ATOM      2  C   UNL     1       6.340  26.873   7.786  0.00  0.00    +0.013 A 
ATOM      3  C   UNL     1       7.593  26.670   7.069  0.00  0.00    +0.019 A 
ATOM     38  C   UNL     1       7.569  26.738   5.615  0.00  0.00    +0.120 A 
ATOM     39  N   UNL     1       6.372  26.990   4.953  0.00  0.00    -0.263 NA
ATOM     40  C   UNL     1       5.160  27.185   5.632  0.00  0.00    +0.111 A 
ENDBRANCH   4   3
ENDBRANCH  10   9
BRANCH  12  13
ATOM     13  N   UNL     1      16.147  23.293   7.374  0.00  0.00    -0.281 N 
ATOM     14  C   UNL     1      16.629  22.676   6.232  0.00  0.00    +0.248 C 
ATOM     30  O   UNL     1      16.160  21.658   5.746  0.00  0.00    -0.270 OA
ATOM     31  H   UNL     1      16.743  24.015   7.779  0.00  0.00    +0.155 HD
BRANCH  14  15
ATOM     15  C   UNL     1      17.812  23.268   5.536  0.00  0.00    +0.037 A 
ATOM     16  C   UNL     1      17.704  24.521   4.785  0.00  0.00    +0.013 A 
ATOM     17  C   UNL     1      18.857  25.061   4.109  0.00  0.00    +0.005 A 
ATOM     18  C   UNL     1      20.130  24.347   4.183  0.00  0.00    -0.033 A 
ATOM     28  C   UNL     1      20.210  23.109   4.940  0.00  0.00    +0.005 A 
ATOM     29  C   UNL     1      19.082  22.576   5.603  0.00  0.00    +0.013 A 
BRANCH  18  19
ATOM     19  C   UNL     1      21.407  24.839   3.476  0.00  0.00    +0.119 C 
BRANCH  19  20
ATOM     20  N   UNL     1      22.297  23.802   2.874  0.00  0.00    -0.302 NA
ATOM     21  C   UNL     1      23.748  23.950   3.340  0.00  0.00    +0.066 C 
ATOM     22  C   UNL     1      24.661  22.843   2.718  0.00  0.00    -0.064 C 
ATOM     23  N   UNL     1      24.573  22.911   1.193  0.00  0.00    +0.379 N 
ATOM     24  C   UNL     1      25.475  21.910   0.604  0.00  0.00    -0.096 C 
ATOM     25  H   UNL     1      24.933  23.918   0.878  0.00  0.00    -0.082 HD
ATOM     26  C   UNL     1      23.133  22.768   0.720  0.00  0.00    -0.064 C 
ATOM     27  C   UNL     1      22.229  23.854   1.367  0.00  0.00    +0.066 C 
ENDBRANCH  19  20
ENDBRANCH  18  19
ENDBRANCH  14  15
ENDBRANCH  12  13
TORSDOF 6
ENDMDL
MODEL 3
REMARK VINA RESULT:      -8.1      5.694      8.194
REMARK  Name = C:\Users\Docking\Desktop\test protocol\1iep_ligandH.pdb
REMARK  8 active torsions:
REMARK  status: ('A' for Active; 'I' for Inactive)
REMARK    1  A    between atoms: _5  and  _11
REMARK    2  A    between atoms: _19  and  _21
REMARK    3  A    between atoms: _22  and  _66
REMARK    4  A    between atoms: _27  and  _30
REMARK    5  A    between atoms: _32  and  _33
REMARK    6  A    between atoms: _38  and  _43
REMARK    7  A    between atoms: _43  and  _46
REMARK    8  A    between atoms: _53  and  _55
REMARK                            x       y       z     vdW  Elec       q    Type
REMARK                         _______ _______ _______ _____ _____    ______ ____
ROOT
ATOM     10  C   UNL     1      12.103  23.050   8.689  0.00  0.00    +0.038 A 
ATOM     11  C   UNL     1      13.292  23.279   7.951  0.00  0.00    +0.047 A 
ATOM     12  C   UNL     1      14.588  22.863   8.464  0.00  0.00    +0.035 A 
ATOM     32  C   UNL     1      14.636  22.213   9.732  0.00  0.00    +0.024 A 
ATOM     33  C   UNL     1      13.437  21.972  10.495  0.00  0.00    +0.007 A 
ATOM     34  C   UNL     1      12.156  22.383   9.996  0.00  0.00    -0.029 A 
ATOM     35  C   UNL     1      10.905  22.105  10.860  0.00  0.00    +0.045 C 
ENDROOT
BRANCH  10   9
ATOM      4  C   UNL     1       8.753  26.395   7.898  0.00  0.00    +0.077 A 
ATOM      5  C   UNL     1       9.477  27.381   8.647  0.00  0.00    +0.048 A 
ATOM      6  C   UNL     1      10.703  26.985   9.225  0.00  0.00    +0.116 A 
ATOM      7  N   UNL     1      11.163  25.696   9.061  0.00  0.00    -0.223 NA
ATOM      8  C   UNL     1      10.439  24.769   8.334  0.00  0.00    +0.220 A 
ATOM      9  N   UNL     1      10.886  23.470   8.149  0.00  0.00    -0.283 N 
ATOM     36  H   UNL     1      10.319  22.814   7.612  0.00  0.00    +0.155 HD
ATOM     37  N   UNL     1       9.264  25.122   7.772  0.00  0.00    -0.214 NA
BRANCH   4   3
ATOM      1  C   UNL     1       4.964  27.123   7.258  0.00  0.00    +0.020 A 
ATOM      2  C   UNL     1       6.202  26.869   7.958  0.00  0.00    +0.013 A 
ATOM      3  C   UNL     1       7.443  26.661   7.223  0.00  0.00    +0.019 A 
ATOM     38  C   UNL     1       7.397  26.718   5.770  0.00  0.00    +0.120 A 
ATOM     39  N   UNL     1       6.190  26.964   5.123  0.00  0.00    -0.263 NA
ATOM     40  C   UNL     1       4.989  27.163   5.820  0.00  0.00    +0.111 A 
ENDBRANCH   4   3
ENDBRANCH  10   9
BRANCH  12  13
ATOM     13  N   UNL     1      15.830  23.077   7.764  0.00  0.00    -0.281 N 
ATOM     14  C   UNL     1      16.456  22.232   6.862  0.00  0.00    +0.248 C 
ATOM     30  O   UNL     1      16.148  21.063   6.682  0.00  0.00    -0.270 OA
ATOM     31  H   UNL     1      16.306  23.959   7.956  0.00  0.00    +0.155 HD
BRANCH  14  15
ATOM     15  C   UNL     1      17.599  22.756   6.054  0.00  0.00    +0.037 A 
ATOM     16  C   UNL     1      18.917  22.117   6.097  0.00  0.00    +0.013 A 
ATOM     17  C   UNL     1      20.006  22.654   5.321  0.00  0.00    +0.005 A 
ATOM     18  C   UNL     1      19.782  23.836   4.493  0.00  0.00    -0.033 A 
ATOM     28  C   UNL     1      18.463  24.447   4.464  0.00  0.00    +0.005 A 
ATOM     29  C   UNL     1      17.393  23.925   5.225  0.00  0.00    +0.013 A 
BRANCH  18  19
ATOM     19  C   UNL     1      20.892  24.489   3.648  0.00  0.00    +0.119 C 
BRANCH  19  20
ATOM     20  N   UNL     1      20.481  25.548   2.679  0.00  0.00    -0.302 NA
ATOM     21  C   UNL     1      21.362  25.554   1.427  0.00  0.00    +0.066 C 
ATOM     22  C   UNL     1      20.903  26.653   0.413  0.00  0.00    -0.064 C 
ATOM     23  N   UNL     1      20.929  28.019   1.101  0.00  0.00    +0.379 N 
ATOM     24  C   UNL     1      20.555  29.062   0.134  0.00  0.00    -0.096 C 
ATOM     25  H   UNL     1      21.979  28.216   1.421  0.00  0.00    -0.082 HD
ATOM     26  C   UNL     1      20.058  28.021   2.348  0.00  0.00    -0.064 C 
ATOM     27  C   UNL     1      20.503  26.906   3.336  0.00  0.00    +0.066 C 
ENDBRANCH  19  20
ENDBRANCH  18  19
ENDBRANCH  14  15
ENDBRANCH  12  13
TORSDOF 6
ENDMDL
MODEL 4
REMARK VINA RESULT:      -8.1      7.517     11.681
REMARK  Name = C:\Users\Docking\Desktop\test protocol\1iep_ligandH.pdb
REMARK  8 active torsions:
REMARK  status: ('A' for Active; 'I' for Inactive)
REMARK    1  A    between atoms: _5  and  _11
REMARK    2  A    between atoms: _19  and  _21
REMARK    3  A    between atoms: _22  and  _66
REMARK    4  A    between atoms: _27  and  _30
REMARK    5  A    between atoms: _32  and  _33
REMARK    6  A    between atoms: _38  and  _43
REMARK    7  A    between atoms: _43  and  _46
REMARK    8  A    between atoms: _53  and  _55
REMARK                            x       y       z     vdW  Elec       q    Type
REMARK                         _______ _______ _______ _____ _____    ______ ____
ROOT
ATOM     10  C   UNL     1      19.972  25.535   4.039  0.00  0.00    +0.038 A 
ATOM     11  C   UNL     1      18.758  25.322   4.740  0.00  0.00    +0.047 A 
ATOM     12  C   UNL     1      18.129  24.011   4.774  0.00  0.00    +0.035 A 
ATOM     32  C   UNL     1      18.766  22.938   4.086  0.00  0.00    +0.024 A 
ATOM     33  C   UNL     1      20.000  23.137   3.367  0.00  0.00    +0.007 A 
ATOM     34  C   UNL     1      20.624  24.429   3.328  0.00  0.00    -0.029 A 
ATOM     35  C   UNL     1      21.943  24.586   2.536  0.00  0.00    +0.045 C 
ENDROOT
BRANCH  10   9
ATOM      4  C   UNL     1      20.970  29.718   1.907  0.00  0.00    +0.077 A 
ATOM      5  C   UNL     1      20.348  29.310   0.681  0.00  0.00    +0.048 A 
ATOM      6  C   UNL     1      19.789  28.013   0.638  0.00  0.00    +0.116 A 
ATOM      7  N   UNL     1      19.853  27.194   1.745  0.00  0.00    -0.223 NA
ATOM      8  C   UNL     1      20.462  27.619   2.911  0.00  0.00    +0.220 A 
ATOM      9  N   UNL     1      20.532  26.815   4.039  0.00  0.00    -0.283 N 
ATOM     36  H   UNL     1      20.996  27.162   4.877  0.00  0.00    +0.155 HD
ATOM     37  N   UNL     1      21.005  28.852   2.977  0.00  0.00    -0.214 NA
BRANCH   4   3
ATOM      1  C   UNL     1      22.995  33.016   1.334  0.00  0.00    +0.020 A 
ATOM      2  C   UNL     1      22.407  31.719   1.088  0.00  0.00    +0.013 A 
ATOM      3  C   UNL     1      21.603  31.060   2.109  0.00  0.00    +0.019 A 
ATOM     38  C   UNL     1      21.412  31.746   3.379  0.00  0.00    +0.120 A 
ATOM     39  N   UNL     1      21.992  32.993   3.587  0.00  0.00    -0.263 NA
ATOM     40  C   UNL     1      22.769  33.636   2.612  0.00  0.00    +0.111 A 
ENDBRANCH   4   3
ENDBRANCH  10   9
BRANCH  12  13
ATOM     13  N   UNL     1      16.892  23.736   5.463  0.00  0.00    -0.281 N 
ATOM     14  C   UNL     1      16.691  22.906   6.553  0.00  0.00    +0.248 C 
ATOM     30  O   UNL     1      17.512  22.103   6.972  0.00  0.00    -0.270 OA
ATOM     31  H   UNL     1      16.065  24.212   5.103  0.00  0.00    +0.155 HD
BRANCH  14  15
ATOM     15  C   UNL     1      15.383  22.965   7.275  0.00  0.00    +0.037 A 
ATOM     16  C   UNL     1      14.130  23.213   6.557  0.00  0.00    +0.013 A 
ATOM     17  C   UNL     1      12.884  23.282   7.279  0.00  0.00    +0.005 A 
ATOM     18  C   UNL     1      12.886  23.103   8.729  0.00  0.00    -0.033 A 
ATOM     28  C   UNL     1      14.143  22.854   9.415  0.00  0.00    +0.005 A 
ATOM     29  C   UNL     1      15.366  22.786   8.711  0.00  0.00    +0.013 A 
BRANCH  18  19
ATOM     19  C   UNL     1      11.607  23.182   9.583  0.00  0.00    +0.119 C 
BRANCH  19  20
ATOM     20  N   UNL     1      10.729  21.975   9.612  0.00  0.00    -0.302 NA
ATOM     21  C   UNL     1       9.315  22.305  10.099  0.00  0.00    +0.066 C 
ATOM     22  C   UNL     1       8.403  21.035  10.102  0.00  0.00    -0.064 C 
ATOM     23  N   UNL     1       9.039  19.955  10.979  0.00  0.00    +0.379 N 
ATOM     24  C   UNL     1       8.156  18.781  11.030  0.00  0.00    -0.096 C 
ATOM     25  H   UNL     1       9.120  20.364  12.013  0.00  0.00    -0.082 HD
ATOM     26  C   UNL     1      10.447  19.623  10.503  0.00  0.00    -0.064 C 
ATOM     27  C   UNL     1      11.336  20.897  10.476  0.00  0.00    +0.066 C 
ENDBRANCH  19  20
ENDBRANCH  18  19
ENDBRANCH  14  15
ENDBRANCH  12  13
TORSDOF 6
ENDMDL
MODEL 5
REMARK VINA RESULT:      -8.0      6.832      9.737
REMARK  Name = C:\Users\Docking\Desktop\test protocol\1iep_ligandH.pdb
REMARK  8 active torsions:
REMARK  status: ('A' for Active; 'I' for Inactive)
REMARK    1  A    between atoms: _5  and  _11
REMARK    2  A    between atoms: _19  and  _21
REMARK    3  A    between atoms: _22  and  _66
REMARK    4  A    between atoms: _27  and  _30
REMARK    5  A    between atoms: _32  and  _33
REMARK    6  A    between atoms: _38  and  _43
REMARK    7  A    between atoms: _43  and  _46
REMARK    8  A    between atoms: _53  and  _55
REMARK                            x       y       z     vdW  Elec       q    Type
REMARK                         _______ _______ _______ _____ _____    ______ ____
ROOT
ATOM     10  C   UNL     1      11.987  22.680  10.361  0.00  0.00    +0.038 A 
ATOM     11  C   UNL     1      13.021  22.556   9.399  0.00  0.00    +0.047 A 
ATOM     12  C   UNL     1      13.364  23.659   8.515  0.00  0.00    +0.035 A 
ATOM     32  C   UNL     1      12.634  24.877   8.641  0.00  0.00    +0.024 A 
ATOM     33  C   UNL     1      11.579  25.021   9.613  0.00  0.00    +0.007 A 
ATOM     34  C   UNL     1      11.235  23.935  10.486  0.00  0.00    -0.029 A 
ATOM     35  C   UNL     1      10.091  24.143  11.505  0.00  0.00    +0.045 C 
ENDROOT
BRANCH  10   9
ATOM      4  C   UNL     1       9.466  18.742  11.442  0.00  0.00    +0.077 A 
ATOM      5  C   UNL     1       8.633  18.885  10.283  0.00  0.00    +0.048 A 
ATOM      6  C   UNL     1       8.881  19.990   9.439  0.00  0.00    +0.116 A 
ATOM      7  N   UNL     1       9.890  20.879   9.740  0.00  0.00    -0.223 NA
ATOM      8  C   UNL     1      10.675  20.712  10.866  0.00  0.00    +0.220 A 
ATOM      9  N   UNL     1      11.700  21.589  11.184  0.00  0.00    -0.283 N 
ATOM     36  H   UNL     1      12.251  21.436  12.028  0.00  0.00    +0.155 HD
ATOM     37  N   UNL     1      10.457  19.666  11.690  0.00  0.00    -0.214 NA
BRANCH   4   3
ATOM      1  C   UNL     1       9.928  16.460  14.586  0.00  0.00    +0.020 A 
ATOM      2  C   UNL     1      10.098  17.561  13.666  0.00  0.00    +0.013 A 
ATOM      3  C   UNL     1       9.330  17.624  12.429  0.00  0.00    +0.019 A 
ATOM     38  C   UNL     1       8.390  16.548  12.150  0.00  0.00    +0.120 A 
ATOM     39  N   UNL     1       8.249  15.500  13.054  0.00  0.00    -0.263 NA
ATOM     40  C   UNL     1       8.984  15.428  14.247  0.00  0.00    +0.111 A 
ENDBRANCH   4   3
ENDBRANCH  10   9
BRANCH  12  13
ATOM     13  N   UNL     1      14.399  23.588   7.513  0.00  0.00    -0.281 N 
ATOM     14  C   UNL     1      14.323  23.028   6.249  0.00  0.00    +0.248 C 
ATOM     30  O   UNL     1      13.413  22.309   5.865  0.00  0.00    -0.270 OA
ATOM     31  H   UNL     1      15.296  24.002   7.767  0.00  0.00    +0.155 HD
BRANCH  14  15
ATOM     15  C   UNL     1      15.425  23.293   5.274  0.00  0.00    +0.037 A 
ATOM     16  C   UNL     1      16.802  23.508   5.725  0.00  0.00    +0.013 A 
ATOM     17  C   UNL     1      17.843  23.778   4.765  0.00  0.00    +0.005 A 
ATOM     18  C   UNL     1      17.510  23.833   3.344  0.00  0.00    -0.033 A 
ATOM     28  C   UNL     1      16.137  23.611   2.924  0.00  0.00    +0.005 A 
ATOM     29  C   UNL     1      15.113  23.347   3.862  0.00  0.00    +0.013 A 
BRANCH  18  19
ATOM     19  C   UNL     1      18.553  24.137   2.252  0.00  0.00    +0.119 C 
BRANCH  19  20
ATOM     20  N   UNL     1      19.260  25.450   2.328  0.00  0.00    -0.302 NA
ATOM     21  C   UNL     1      18.289  26.615   2.536  0.00  0.00    +0.066 C 
ATOM     22  C   UNL     1      19.047  27.978   2.635  0.00  0.00    -0.064 C 
ATOM     23  N   UNL     1      19.881  28.188   1.370  0.00  0.00    +0.379 N 
ATOM     24  C   UNL     1      20.550  29.496   1.435  0.00  0.00    -0.096 C 
ATOM     25  H   UNL     1      19.181  28.209   0.504  0.00  0.00    -0.082 HD
ATOM     26  C   UNL     1      20.849  27.033   1.154  0.00  0.00    -0.064 C 
ATOM     27  C   UNL     1      20.087  25.680   1.086  0.00  0.00    +0.066 C 
ENDBRANCH  19  20
ENDBRANCH  18  19
ENDBRANCH  14  15
ENDBRANCH  12  13
TORSDOF 6
ENDMDL
