MODEL 1
REMARK VINA RESULT:      -8.2      0.000      0.000
REMARK  Name = C:\Users\Docking\Desktop\test protocol\1iep_ligandH.pdb
REMARK  8 active torsions:
REMARK  status: ('A' for Active; 'I' for Inactive)
REMARK    1  A    between atoms: _5  and  _11
REMARK    2  A    between atoms: _19  and  _21
REMARK    3  A    between atoms: _22  and  _66
REMARK    4  A    between atoms: _27  and  _30
REMARK    5  A    between atoms: _32  and  _33
REMARK    6  A    between atoms: _38  and  _43
REMARK    7  A    between atoms: _43  and  _46
REMARK    8  A    between atoms: _53  and  _55
REMARK                            x       y       z     vdW  Elec       q    Type
REMARK                         _______ _______ _______ _____ _____    ______ ____
ROOT
ATOM     10  C   UNL     1      15.786  22.121   6.880  0.00  0.00    +0.038 A 
ATOM     11  C   UNL     1      16.759  22.158   7.911  0.00  0.00    +0.047 A 
ATOM     12  C   UNL     1      17.760  21.111   8.040  0.00  0.00    +0.035 A 
ATOM     32  C   UNL     1      17.743  20.041   7.099  0.00  0.00    +0.024 A 
ATOM     33  C   UNL     1      16.761  19.986   6.045  0.00  0.00    +0.007 A 
ATOM     34  C   UNL     1      15.769  21.015   5.914  0.00  0.00    -0.029 A 
ATOM     35  C   UNL     1      14.736  20.902   4.769  0.00  0.00    +0.045 C 
ENDROOT
BRANCH  10   9
ATOM      4  C   UNL     1      11.697  24.234   8.240  0.00  0.00    +0.077 A 
ATOM      5  C   UNL     1      11.390  23.180   9.163  0.00  0.00    +0.048 A 
ATOM      6  C   UNL     1      12.306  22.108   9.252  0.00  0.00    +0.116 A 
ATOM      7  N   UNL     1      13.442  22.102   8.472  0.00  0.00    -0.223 NA
ATOM      8  C   UNL     1      13.708  23.134   7.591  0.00  0.00    +0.220 A 
ATOM      9  N   UNL     1      14.848  23.153   6.803  0.00  0.00    -0.283 N 
ATOM     36  H   UNL     1      15.004  23.929   6.160  0.00  0.00    +0.155 HD
ATOM     37  N   UNL     1      12.847  24.168   7.486  0.00  0.00    -0.214 NA
BRANCH   4   3
ATOM      1  C   UNL     1       9.737  27.568   8.828  0.00  0.00    +0.020 A 
ATOM      2  C   UNL     1      10.584  26.425   9.078  0.00  0.00    +0.013 A 
ATOM      3  C   UNL     1      10.828  25.436   8.035  0.00  0.00    +0.019 A 
ATOM     38  C   UNL     1      10.197  25.636   6.739  0.00  0.00    +0.120 A 
ATOM     39  N   UNL     1       9.385  26.746   6.528  0.00  0.00    -0.263 NA
ATOM     40  C   UNL     1       9.141  27.703   7.525  0.00  0.00    +0.111 A 
ENDBRANCH   4   3
ENDBRANCH  10   9
BRANCH  12  13
ATOM     13  N   UNL     1      18.767  21.092   9.071  0.00  0.00    -0.281 N 
ATOM     14  C   UNL     1      20.108  21.422   8.959  0.00  0.00    +0.248 C 
ATOM     30  O   UNL     1      20.694  21.580   7.898  0.00  0.00    -0.270 OA
ATOM     31  H   UNL     1      18.454  20.799   9.997  0.00  0.00    +0.155 HD
BRANCH  14  15
ATOM     15  C   UNL     1      20.918  21.586  10.204  0.00  0.00    +0.037 A 
ATOM     16  C   UNL     1      21.066  20.489  11.164  0.00  0.00    +0.013 A 
ATOM     17  C   UNL     1      21.840  20.679  12.366  0.00  0.00    +0.005 A 
ATOM     18  C   UNL     1      22.472  21.972  12.613  0.00  0.00    -0.033 A 
ATOM     28  C   UNL     1      22.313  23.042  11.641  0.00  0.00    +0.005 A 
ATOM     29  C   UNL     1      21.555  22.859  10.463  0.00  0.00    +0.013 A 
BRANCH  18  19
ATOM     19  C   UNL     1      23.298  22.271  13.878  0.00  0.00    +0.119 C 
BRANCH  19  20
ATOM     20  N   UNL     1      22.544  22.559  15.135  0.00  0.00    -0.302 NA
ATOM     21  C   UNL     1      22.139  24.032  15.237  0.00  0.00    +0.066 C 
ATOM     22  C   UNL     1      21.332  24.311  16.546  0.00  0.00    -0.064 C 
ATOM     23  N   UNL     1      22.168  23.894  17.757  0.00  0.00    +0.379 N 
ATOM     24  C   UNL     1      21.435  24.209  18.992  0.00  0.00    -0.096 C 
ATOM     25  H   UNL     1      23.100  24.506  17.751  0.00  0.00    -0.082 HD
ATOM     26  C   UNL     1      22.577  22.431  17.662  0.00  0.00    -0.064 C 
ATOM     27  C   UNL     1      23.353  22.158  16.343  0.00  0.00    +0.066 C 
ENDBRANCH  19  20
ENDBRANCH  18  19
ENDBRANCH  14  15
ENDBRANCH  12  13
TORSDOF 6
ENDMDL
MODEL 2
REMARK VINA RESULT:      -7.9      5.813      8.352
REMARK  Name = C:\Users\Docking\Desktop\test protocol\1iep_ligandH.pdb
REMARK  8 active torsions:
REMARK  status: ('A' for Active; 'I' for Inactive)
REMARK    1  A    between atoms: _5  and  _11
REMARK    2  A    between atoms: _19  and  _21
REMARK    3  A    between atoms: _22  and  _66
REMARK    4  A    between atoms: _27  and  _30
REMARK    5  A    between atoms: _32  and  _33
REMARK    6  A    between atoms: _38  and  _43
REMARK    7  A    between atoms: _43  and  _46
REMARK    8  A    between atoms: _53  and  _55
REMARK                            x       y       z     vdW  Elec       q    Type
REMARK                         _______ _______ _______ _____ _____    ______ ____
ROOT
ATOM     10  C   UNL     1      12.772  23.305   8.096  0.00  0.00    +0.038 A 
ATOM     11  C   UNL     1      13.948  23.612   7.364  0.00  0.00    +0.047 A 
ATOM     12  C   UNL     1      15.260  23.205   7.842  0.00  0.00    +0.035 A 
ATOM     32  C   UNL     1      15.338  22.483   9.069  0.00  0.00    +0.024 A 
ATOM     33  C   UNL     1      14.153  22.164   9.827  0.00  0.00    +0.007 A 
ATOM     34  C   UNL     1      12.856  22.565   9.361  0.00  0.00    -0.029 A 
ATOM     35  C   UNL     1      11.621  22.200  10.217  0.00  0.00    +0.045 C 
ENDROOT
BRANCH  10   9
ATOM      4  C   UNL     1       9.202  26.493   7.734  0.00  0.00    +0.077 A 
ATOM      5  C   UNL     1       9.837  27.396   8.651  0.00  0.00    +0.048 A 
ATOM      6  C   UNL     1      11.077  26.999   9.199  0.00  0.00    +0.116 A 
ATOM      7  N   UNL     1      11.633  25.787   8.849  0.00  0.00    -0.223 NA
ATOM      8  C   UNL     1      10.994  24.940   7.963  0.00  0.00    +0.220 A 
ATOM      9  N   UNL     1      11.538  23.720   7.590  0.00  0.00    -0.283 N 
ATOM     36  H   UNL     1      11.032  23.120   6.940  0.00  0.00    +0.155 HD
ATOM     37  N   UNL     1       9.808  25.295   7.427  0.00  0.00    -0.214 NA
BRANCH   4   3
ATOM      1  C   UNL     1       5.409  27.226   7.120  0.00  0.00    +0.020 A 
ATOM      2  C   UNL     1       6.650  26.958   7.811  0.00  0.00    +0.013 A 
ATOM      3  C   UNL     1       7.890  26.772   7.069  0.00  0.00    +0.019 A 
ATOM     38  C   UNL     1       7.841  26.864   5.618  0.00  0.00    +0.120 A 
ATOM     39  N   UNL     1       6.632  27.121   4.980  0.00  0.00    -0.263 NA
ATOM     40  C   UNL     1       5.431  27.301   5.683  0.00  0.00    +0.111 A 
ENDBRANCH   4   3
ENDBRANCH  10   9
BRANCH  12  13
ATOM     13  N   UNL     1      16.489  23.495   7.146  0.00  0.00    -0.281 N 
ATOM     14  C   UNL     1      17.157  22.699   6.231  0.00  0.00    +0.248 C 
ATOM     30  O   UNL     1      16.910  21.519   6.031  0.00  0.00    -0.270 OA
ATOM     31  H   UNL     1      16.918  24.397   7.354  0.00  0.00    +0.155 HD
BRANCH  14  15
ATOM     15  C   UNL     1      18.271  23.296   5.433  0.00  0.00    +0.037 A 
ATOM     16  C   UNL     1      18.019  24.350   4.446  0.00  0.00    +0.013 A 
ATOM     17  C   UNL     1      19.109  24.897   3.678  0.00  0.00    +0.005 A 
ATOM     18  C   UNL     1      20.462  24.391   3.894  0.00  0.00    -0.033 A 
ATOM     28  C   UNL     1      20.685  23.349   4.882  0.00  0.00    +0.005 A 
ATOM     29  C   UNL     1      19.619  22.810   5.637  0.00  0.00    +0.013 A 
BRANCH  18  19
ATOM     19  C   UNL     1      21.682  24.901   3.104  0.00  0.00    +0.119 C 
BRANCH  19  20
ATOM     20  N   UNL     1      22.611  23.876   2.543  0.00  0.00    -0.302 NA
ATOM     21  C   UNL     1      24.003  23.955   3.176  0.00  0.00    +0.066 C 
ATOM     22  C   UNL     1      24.956  22.860   2.594  0.00  0.00    -0.064 C 
ATOM     23  N   UNL     1      25.042  23.018   1.075  0.00  0.00    +0.379 N 
ATOM     24  C   UNL     1      25.982  22.027   0.531  0.00  0.00    -0.096 C 
ATOM     25  H   UNL     1      25.457  24.031   0.863  0.00  0.00    -0.082 HD
ATOM     26  C   UNL     1      23.661  22.943   0.438  0.00  0.00    -0.064 C 
ATOM     27  C   UNL     1      22.714  24.016   1.044  0.00  0.00    +0.066 C 
ENDBRANCH  19  20
ENDBRANCH  18  19
ENDBRANCH  14  15
ENDBRANCH  12  13
TORSDOF 6
ENDMDL
MODEL 3
REMARK VINA RESULT:      -7.9      5.613      8.530
REMARK  Name = C:\Users\Docking\Desktop\test protocol\1iep_ligandH.pdb
REMARK  8 active torsions:
REMARK  status: ('A' for Active; 'I' for Inactive)
REMARK    1  A    between atoms: _5  and  _11
REMARK    2  A    between atoms: _19  and  _21
REMARK    3  A    between atoms: _22  and  _66
REMARK    4  A    between atoms: _27  and  _30
REMARK    5  A    between atoms: _32  and  _33
REMARK    6  A    between atoms: _38  and  _43
REMARK    7  A    between atoms: _43  and  _46
REMARK    8  A    between atoms: _53  and  _55
REMARK                            x       y       z     vdW  Elec       q    Type
REMARK                         _______ _______ _______ _____ _____    ______ ____
ROOT
ATOM     10  C   UNL     1      12.408  23.105   8.660  0.00  0.00    +0.038 A 
ATOM     11  C   UNL     1      13.622  23.303   7.953  0.00  0.00    +0.047 A 
ATOM     12  C   UNL     1      14.894  22.862   8.503  0.00  0.00    +0.035 A 
ATOM     32  C   UNL     1      14.893  22.218   9.775  0.00  0.00    +0.024 A 
ATOM     33  C   UNL     1      13.669  22.009  10.508  0.00  0.00    +0.007 A 
ATOM     34  C   UNL     1      12.412  22.445   9.971  0.00  0.00    -0.029 A 
ATOM     35  C   UNL     1      11.132  22.200  10.804  0.00  0.00    +0.045 C 
ENDROOT
BRANCH  10   9
ATOM      4  C   UNL     1       9.116  26.497   7.828  0.00  0.00    +0.077 A 
ATOM      5  C   UNL     1       9.819  27.458   8.628  0.00  0.00    +0.048 A 
ATOM      6  C   UNL     1      11.020  27.038   9.243  0.00  0.00    +0.116 A 
ATOM      7  N   UNL     1      11.475  25.749   9.063  0.00  0.00    -0.223 NA
ATOM      8  C   UNL     1      10.772  24.847   8.286  0.00  0.00    +0.220 A 
ATOM      9  N   UNL     1      11.216  23.549   8.085  0.00  0.00    -0.283 N 
ATOM     36  H   UNL     1      10.665  22.911   7.511  0.00  0.00    +0.155 HD
ATOM     37  N   UNL     1       9.622  25.224   7.689  0.00  0.00    -0.214 NA
BRANCH   4   3
ATOM      1  C   UNL     1       5.360  27.279   7.065  0.00  0.00    +0.020 A 
ATOM      2  C   UNL     1       6.569  26.997   7.804  0.00  0.00    +0.013 A 
ATOM      3  C   UNL     1       7.835  26.791   7.111  0.00  0.00    +0.019 A 
ATOM     38  C   UNL     1       7.844  26.880   5.659  0.00  0.00    +0.120 A 
ATOM     39  N   UNL     1       6.664  27.151   4.974  0.00  0.00    -0.263 NA
ATOM     40  C   UNL     1       5.439  27.349   5.629  0.00  0.00    +0.111 A 
ENDBRANCH   4   3
ENDBRANCH  10   9
BRANCH  12  13
ATOM     13  N   UNL     1      16.159  23.044   7.835  0.00  0.00    -0.281 N 
ATOM     14  C   UNL     1      16.730  22.242   6.860  0.00  0.00    +0.248 C 
ATOM     30  O   UNL     1      16.335  21.123   6.567  0.00  0.00    -0.270 OA
ATOM     31  H   UNL     1      16.698  23.863   8.114  0.00  0.00    +0.155 HD
BRANCH  14  15
ATOM     15  C   UNL     1      17.922  22.750   6.114  0.00  0.00    +0.037 A 
ATOM     16  C   UNL     1      19.205  22.044   6.160  0.00  0.00    +0.013 A 
ATOM     17  C   UNL     1      20.343  22.565   5.445  0.00  0.00    +0.005 A 
ATOM     18  C   UNL     1      20.202  23.799   4.676  0.00  0.00    -0.033 A 
ATOM     28  C   UNL     1      18.916  24.476   4.644  0.00  0.00    +0.005 A 
ATOM     29  C   UNL     1      17.798  23.969   5.344  0.00  0.00    +0.013 A 
BRANCH  18  19
ATOM     19  C   UNL     1      21.368  24.439   3.900  0.00  0.00    +0.119 C 
BRANCH  19  20
ATOM     20  N   UNL     1      21.043  25.101   2.602  0.00  0.00    -0.302 NA
ATOM     21  C   UNL     1      21.620  24.337   1.406  0.00  0.00    +0.066 C 
ATOM     22  C   UNL     1      21.252  25.032   0.055  0.00  0.00    -0.064 C 
ATOM     23  N   UNL     1      21.760  26.475   0.072  0.00  0.00    +0.379 N 
ATOM     24  C   UNL     1      21.466  27.113  -1.220  0.00  0.00    -0.096 C 
ATOM     25  H   UNL     1      22.868  26.441   0.189  0.00  0.00    -0.082 HD
ATOM     26  C   UNL     1      21.193  27.241   1.259  0.00  0.00    -0.064 C 
ATOM     27  C   UNL     1      21.540  26.526   2.594  0.00  0.00    +0.066 C 
ENDBRANCH  19  20
ENDBRANCH  18  19
ENDBRANCH  14  15
ENDBRANCH  12  13
TORSDOF 6
ENDMDL
MODEL 4
REMARK VINA RESULT:      -7.7      8.108     13.015
REMARK  Name = C:\Users\Docking\Desktop\test protocol\1iep_ligandH.pdb
REMARK  8 active torsions:
REMARK  status: ('A' for Active; 'I' for Inactive)
REMARK    1  A    between atoms: _5  and  _11
REMARK    2  A    between atoms: _19  and  _21
REMARK    3  A    between atoms: _22  and  _66
REMARK    4  A    between atoms: _27  and  _30
REMARK    5  A    between atoms: _32  and  _33
REMARK    6  A    between atoms: _38  and  _43
REMARK    7  A    between atoms: _43  and  _46
REMARK    8  A    between atoms: _53  and  _55
REMARK                            x       y       z     vdW  Elec       q    Type
REMARK                         _______ _______ _______ _____ _____    ______ ____
ROOT
ATOM     10  C   UNL     1      10.855  17.684  11.413  0.00  0.00    +0.038 A 
ATOM     11  C   UNL     1      10.521  19.057  11.286  0.00  0.00    +0.047 A 
ATOM     12  C   UNL     1      11.084  19.873  10.223  0.00  0.00    +0.035 A 
ATOM     32  C   UNL     1      11.984  19.259   9.303  0.00  0.00    +0.024 A 
ATOM     33  C   UNL     1      12.336  17.865   9.418  0.00  0.00    +0.007 A 
ATOM     34  C   UNL     1      11.785  17.055  10.467  0.00  0.00    -0.029 A 
ATOM     35  C   UNL     1      12.203  15.569  10.546  0.00  0.00    +0.045 C 
ENDROOT
BRANCH  10   9
ATOM      4  C   UNL     1       7.172  15.360  13.429  0.00  0.00    +0.077 A 
ATOM      5  C   UNL     1       6.302  15.662  12.329  0.00  0.00    +0.048 A 
ATOM      6  C   UNL     1       6.839  16.424  11.267  0.00  0.00    +0.116 A 
ATOM      7  N   UNL     1       8.150  16.847  11.313  0.00  0.00    -0.223 NA
ATOM      8  C   UNL     1       8.961  16.539  12.390  0.00  0.00    +0.220 A 
ATOM      9  N   UNL     1      10.285  16.947  12.453  0.00  0.00    -0.283 N 
ATOM     36  H   UNL     1      10.848  16.706  13.268  0.00  0.00    +0.155 HD
ATOM     37  N   UNL     1       8.471  15.814  13.417  0.00  0.00    -0.214 NA
BRANCH   4   3
ATOM      1  C   UNL     1       7.076  13.725  16.981  0.00  0.00    +0.020 A 
ATOM      2  C   UNL     1       7.527  14.512  15.856  0.00  0.00    +0.013 A 
ATOM      3  C   UNL     1       6.751  14.561  14.623  0.00  0.00    +0.019 A 
ATOM     38  C   UNL     1       5.514  13.797  14.561  0.00  0.00    +0.120 A 
ATOM     39  N   UNL     1       5.106  13.047  15.660  0.00  0.00    -0.263 NA
ATOM     40  C   UNL     1       5.845  12.991  16.851  0.00  0.00    +0.111 A 
ENDBRANCH   4   3
ENDBRANCH  10   9
BRANCH  12  13
ATOM     13  N   UNL     1      10.788  21.274  10.049  0.00  0.00    -0.281 N 
ATOM     14  C   UNL     1      11.658  22.347  10.145  0.00  0.00    +0.248 C 
ATOM     30  O   UNL     1      12.787  22.282  10.608  0.00  0.00    -0.270 OA
ATOM     31  H   UNL     1       9.818  21.501   9.828  0.00  0.00    +0.155 HD
BRANCH  14  15
ATOM     15  C   UNL     1      11.204  23.690   9.672  0.00  0.00    +0.037 A 
ATOM     16  C   UNL     1      12.114  24.594   8.963  0.00  0.00    +0.013 A 
ATOM     17  C   UNL     1      11.655  25.890   8.532  0.00  0.00    +0.005 A 
ATOM     18  C   UNL     1      10.277  26.290   8.808  0.00  0.00    -0.033 A 
ATOM     28  C   UNL     1       9.394  25.372   9.508  0.00  0.00    +0.005 A 
ATOM     29  C   UNL     1       9.841  24.101   9.933  0.00  0.00    +0.013 A 
BRANCH  18  19
ATOM     19  C   UNL     1       9.708  27.663   8.404  0.00  0.00    +0.119 C 
BRANCH  19  20
ATOM     20  N   UNL     1       8.658  27.683   7.341  0.00  0.00    -0.302 NA
ATOM     21  C   UNL     1       7.274  27.335   7.895  0.00  0.00    +0.066 C 
ATOM     22  C   UNL     1       6.184  27.381   6.775  0.00  0.00    -0.064 C 
ATOM     23  N   UNL     1       6.573  26.423   5.649  0.00  0.00    +0.379 N 
ATOM     24  C   UNL     1       5.522  26.421   4.621  0.00  0.00    -0.096 C 
ATOM     25  H   UNL     1       6.625  25.396   6.081  0.00  0.00    -0.082 HD
ATOM     26  C   UNL     1       7.950  26.760   5.094  0.00  0.00    -0.064 C 
ATOM     27  C   UNL     1       9.020  26.739   6.221  0.00  0.00    +0.066 C 
ENDBRANCH  19  20
ENDBRANCH  18  19
ENDBRANCH  14  15
ENDBRANCH  12  13
TORSDOF 6
ENDMDL
MODEL 5
REMARK VINA RESULT:      -7.7      8.211      9.628
REMARK  Name = C:\Users\Docking\Desktop\test protocol\1iep_ligandH.pdb
REMARK  8 active torsions:
REMARK  status: ('A' for Active; 'I' for Inactive)
REMARK    1  A    between atoms: _5  and  _11
REMARK    2  A    between atoms: _19  and  _21
REMARK    3  A    between atoms: _22  and  _66
REMARK    4  A    between atoms: _27  and  _30
REMARK    5  A    between atoms: _32  and  _33
REMARK    6  A    between atoms: _38  and  _43
REMARK    7  A    between atoms: _43  and  _46
REMARK    8  A    between atoms: _53  and  _55
REMARK                            x       y       z     vdW  Elec       q    Type
REMARK                         _______ _______ _______ _____ _____    ______ ____
ROOT
ATOM     10  C   UNL     1       9.805  24.718   8.627  0.00  0.00    +0.038 A 
ATOM     11  C   UNL     1       9.647  23.369   9.035  0.00  0.00    +0.047 A 
ATOM     12  C   UNL     1      10.333  22.853  10.210  0.00  0.00    +0.035 A 
ATOM     32  C   UNL     1      11.169  23.741  10.948  0.00  0.00    +0.024 A 
ATOM     33  C   UNL     1      11.341  25.115  10.546  0.00  0.00    +0.007 A 
ATOM     34  C   UNL     1      10.670  25.628   9.387  0.00  0.00    -0.029 A 
ATOM     35  C   UNL     1      10.897  27.108   8.999  0.00  0.00    +0.045 C 
ENDROOT
BRANCH  10   9
ATOM      4  C   UNL     1       9.530  25.528   3.904  0.00  0.00    +0.077 A 
ATOM      5  C   UNL     1      10.867  25.056   3.685  0.00  0.00    +0.048 A 
ATOM      6  C   UNL     1      11.594  24.621   4.815  0.00  0.00    +0.116 A 
ATOM      7  N   UNL     1      11.017  24.658   6.066  0.00  0.00    -0.223 NA
ATOM      8  C   UNL     1       9.726  25.120   6.243  0.00  0.00    +0.220 A 
ATOM      9  N   UNL     1       9.123  25.159   7.490  0.00  0.00    -0.283 N 
ATOM     36  H   UNL     1       8.171  25.514   7.580  0.00  0.00    +0.155 HD
ATOM     37  N   UNL     1       9.011  25.543   5.179  0.00  0.00    -0.214 NA
BRANCH   4   3
ATOM      1  C   UNL     1       7.888  26.107   0.401  0.00  0.00    +0.020 A 
ATOM      2  C   UNL     1       8.780  25.604   1.420  0.00  0.00    +0.013 A 
ATOM      3  C   UNL     1       8.633  26.018   2.809  0.00  0.00    +0.019 A 
ATOM     38  C   UNL     1       7.564  26.949   3.138  0.00  0.00    +0.120 A 
ATOM     39  N   UNL     1       6.720  27.417   2.135  0.00  0.00    -0.263 NA
ATOM     40  C   UNL     1       6.853  27.027   0.794  0.00  0.00    +0.111 A 
ENDBRANCH   4   3
ENDBRANCH  10   9
BRANCH  12  13
ATOM     13  N   UNL     1      10.217  21.491  10.669  0.00  0.00    -0.281 N 
ATOM     14  C   UNL     1      10.742  20.349  10.086  0.00  0.00    +0.248 C 
ATOM     30  O   UNL     1      11.212  20.302   8.959  0.00  0.00    -0.270 OA
ATOM     31  H   UNL     1       9.685  21.352  11.527  0.00  0.00    +0.155 HD
BRANCH  14  15
ATOM     15  C   UNL     1      10.729  19.071  10.861  0.00  0.00    +0.037 A 
ATOM     16  C   UNL     1      11.587  17.945  10.484  0.00  0.00    +0.013 A 
ATOM     17  C   UNL     1      11.542  16.718  11.239  0.00  0.00    +0.005 A 
ATOM     18  C   UNL     1      10.636  16.611  12.380  0.00  0.00    -0.033 A 
ATOM     28  C   UNL     1       9.799  17.746  12.735  0.00  0.00    +0.005 A 
ATOM     29  C   UNL     1       9.840  18.950  11.997  0.00  0.00    +0.013 A 
BRANCH  18  19
ATOM     19  C   UNL     1      10.507  15.333  13.229  0.00  0.00    +0.119 C 
BRANCH  19  20
ATOM     20  N   UNL     1      10.913  15.420  14.663  0.00  0.00    -0.302 NA
ATOM     21  C   UNL     1       9.733  15.771  15.574  0.00  0.00    +0.066 C 
ATOM     22  C   UNL     1      10.172  15.836  17.074  0.00  0.00    -0.064 C 
ATOM     23  N   UNL     1      11.298  16.860  17.228  0.00  0.00    +0.379 N 
ATOM     24  C   UNL     1      11.673  16.966  18.646  0.00  0.00    -0.096 C 
ATOM     25  H   UNL     1      10.901  17.851  16.908  0.00  0.00    -0.082 HD
ATOM     26  C   UNL     1      12.474  16.520  16.324  0.00  0.00    -0.064 C 
ATOM     27  C   UNL     1      12.022  16.429  14.840  0.00  0.00    +0.066 C 
ENDBRANCH  19  20
ENDBRANCH  18  19
ENDBRANCH  14  15
ENDBRANCH  12  13
TORSDOF 6
ENDMDL
