MODEL 1
REMARK VINA RESULT:      -8.4      0.000      0.000
REMARK  Name = C:\Users\Docking\Desktop\test protocol\1iep_ligandH.pdb
REMARK  8 active torsions:
REMARK  status: ('A' for Active; 'I' for Inactive)
REMARK    1  A    between atoms: _5  and  _11
REMARK    2  A    between atoms: _19  and  _21
REMARK    3  A    between atoms: _22  and  _66
REMARK    4  A    between atoms: _27  and  _30
REMARK    5  A    between atoms: _32  and  _33
REMARK    6  A    between atoms: _38  and  _43
REMARK    7  A    between atoms: _43  and  _46
REMARK    8  A    between atoms: _53  and  _55
REMARK                            x       y       z     vdW  Elec       q    Type
REMARK                         _______ _______ _______ _____ _____    ______ ____
ROOT
ATOM     10  C   UNL     1     -30.726  -7.515 -11.333  0.00  0.00    +0.038 A 
ATOM     11  C   UNL     1     -30.997  -6.541 -12.327  0.00  0.00    +0.047 A 
ATOM     12  C   UNL     1     -31.957  -6.797 -13.390  0.00  0.00    +0.035 A 
ATOM     32  C   UNL     1     -32.624  -8.057 -13.409  0.00  0.00    +0.024 A 
ATOM     33  C   UNL     1     -32.360  -9.059 -12.407  0.00  0.00    +0.007 A 
ATOM     34  C   UNL     1     -31.413  -8.813 -11.357  0.00  0.00    -0.029 A 
ATOM     35  C   UNL     1     -31.164  -9.926 -10.313  0.00  0.00    +0.045 C 
ENDROOT
BRANCH  10   9
ATOM      4  C   UNL     1     -29.528  -5.590  -7.103  0.00  0.00    +0.077 A 
ATOM      5  C   UNL     1     -30.862  -5.116  -6.873  0.00  0.00    +0.048 A 
ATOM      6  C   UNL     1     -31.826  -5.383  -7.872  0.00  0.00    +0.116 A 
ATOM      7  N   UNL     1     -31.470  -6.073  -9.010  0.00  0.00    -0.223 NA
ATOM      8  C   UNL     1     -30.174  -6.514  -9.201  0.00  0.00    +0.220 A 
ATOM      9  N   UNL     1     -29.796  -7.216 -10.335  0.00  0.00    -0.283 N 
ATOM     36  H   UNL     1     -28.827  -7.518 -10.442  0.00  0.00    +0.155 HD
ATOM     37  N   UNL     1     -29.235  -6.270  -8.264  0.00  0.00    -0.214 NA
BRANCH   4   3
ATOM      1  C   UNL     1     -26.706  -6.234  -4.472  0.00  0.00    +0.020 A 
ATOM      2  C   UNL     1     -27.795  -6.482  -5.389  0.00  0.00    +0.013 A 
ATOM      3  C   UNL     1     -28.399  -5.389  -6.140  0.00  0.00    +0.019 A 
ATOM     38  C   UNL     1     -27.874  -4.047  -5.939  0.00  0.00    +0.120 A 
ATOM     39  N   UNL     1     -26.826  -3.838  -5.047  0.00  0.00    -0.263 NA
ATOM     40  C   UNL     1     -26.238  -4.882  -4.318  0.00  0.00    +0.111 A 
ENDBRANCH   4   3
ENDBRANCH  10   9
BRANCH  12  13
ATOM     13  N   UNL     1     -32.267  -5.849 -14.431  0.00  0.00    -0.281 N 
ATOM     14  C   UNL     1     -31.667  -5.722 -15.673  0.00  0.00    +0.248 C 
ATOM     30  O   UNL     1     -30.623  -6.269 -15.996  0.00  0.00    -0.270 OA
ATOM     31  H   UNL     1     -33.021  -5.193 -14.228  0.00  0.00    +0.155 HD
BRANCH  14  15
ATOM     15  C   UNL     1     -32.312  -4.849 -16.701  0.00  0.00    +0.037 A 
ATOM     16  C   UNL     1     -32.567  -3.430 -16.440  0.00  0.00    +0.013 A 
ATOM     17  C   UNL     1     -33.207  -2.614 -17.442  0.00  0.00    +0.005 A 
ATOM     18  C   UNL     1     -33.594  -3.216 -18.716  0.00  0.00    -0.033 A 
ATOM     28  C   UNL     1     -33.324  -4.625 -18.950  0.00  0.00    +0.005 A 
ATOM     29  C   UNL     1     -32.699  -5.428 -17.970  0.00  0.00    +0.013 A 
BRANCH  18  19
ATOM     19  C   UNL     1     -34.300  -2.427 -19.834  0.00  0.00    +0.119 C 
BRANCH  19  20
ATOM     20  N   UNL     1     -35.170  -3.198 -20.771  0.00  0.00    -0.302 NA
ATOM     21  C   UNL     1     -35.281  -2.521 -22.140  0.00  0.00    +0.066 C 
ATOM     22  C   UNL     1     -36.176  -3.353 -23.116  0.00  0.00    -0.064 C 
ATOM     23  N   UNL     1     -37.560  -3.547 -22.493  0.00  0.00    +0.379 N 
ATOM     24  C   UNL     1     -38.422  -4.279 -23.433  0.00  0.00    -0.096 C 
ATOM     25  H   UNL     1     -38.006  -2.537 -22.341  0.00  0.00    -0.082 HD
ATOM     26  C   UNL     1     -37.458  -4.217 -21.130  0.00  0.00    -0.064 C 
ATOM     27  C   UNL     1     -36.543  -3.398 -20.178  0.00  0.00    +0.066 C 
ENDBRANCH  19  20
ENDBRANCH  18  19
ENDBRANCH  14  15
ENDBRANCH  12  13
TORSDOF 6
ENDMDL
MODEL 2
REMARK VINA RESULT:      -8.3     31.064     33.212
REMARK  Name = C:\Users\Docking\Desktop\test protocol\1iep_ligandH.pdb
REMARK  8 active torsions:
REMARK  status: ('A' for Active; 'I' for Inactive)
REMARK    1  A    between atoms: _5  and  _11
REMARK    2  A    between atoms: _19  and  _21
REMARK    3  A    between atoms: _22  and  _66
REMARK    4  A    between atoms: _27  and  _30
REMARK    5  A    between atoms: _32  and  _33
REMARK    6  A    between atoms: _38  and  _43
REMARK    7  A    between atoms: _43  and  _46
REMARK    8  A    between atoms: _53  and  _55
REMARK                            x       y       z     vdW  Elec       q    Type
REMARK                         _______ _______ _______ _____ _____    ______ ____
ROOT
ATOM     10  C   UNL     1     -58.725 -17.018  -6.229  0.00  0.00    +0.038 A 
ATOM     11  C   UNL     1     -59.752 -17.718  -6.912  0.00  0.00    +0.047 A 
ATOM     12  C   UNL     1     -61.154 -17.391  -6.701  0.00  0.00    +0.035 A 
ATOM     32  C   UNL     1     -61.474 -16.344  -5.789  0.00  0.00    +0.024 A 
ATOM     33  C   UNL     1     -60.443 -15.623  -5.085  0.00  0.00    +0.007 A 
ATOM     34  C   UNL     1     -59.058 -15.942  -5.287  0.00  0.00    -0.029 A 
ATOM     35  C   UNL     1     -57.995 -15.140  -4.501  0.00  0.00    +0.045 C 
ENDROOT
BRANCH  10   9
ATOM      4  C   UNL     1     -55.023 -20.052  -5.873  0.00  0.00    +0.077 A 
ATOM      5  C   UNL     1     -55.796 -21.000  -5.122  0.00  0.00    +0.048 A 
ATOM      6  C   UNL     1     -57.139 -20.665  -4.842  0.00  0.00    +0.116 A 
ATOM      7  N   UNL     1     -57.662 -19.469  -5.286  0.00  0.00    -0.223 NA
ATOM      8  C   UNL     1     -56.889 -18.577  -6.006  0.00  0.00    +0.220 A 
ATOM      9  N   UNL     1     -57.395 -17.372  -6.469  0.00  0.00    -0.283 N 
ATOM     36  H   UNL     1     -56.791 -16.738  -6.991  0.00  0.00    +0.155 HD
ATOM     37  N   UNL     1     -55.602 -18.873  -6.286  0.00  0.00    -0.214 NA
BRANCH   4   3
ATOM      1  C   UNL     1     -51.765 -20.720  -7.932  0.00  0.00    +0.020 A 
ATOM      2  C   UNL     1     -53.162 -20.523  -7.620  0.00  0.00    +0.013 A 
ATOM      3  C   UNL     1     -53.590 -20.264  -6.251  0.00  0.00    +0.019 A 
ATOM     38  C   UNL     1     -52.572 -20.209  -5.213  0.00  0.00    +0.120 A 
ATOM     39  N   UNL     1     -51.234 -20.404  -5.543  0.00  0.00    -0.263 NA
ATOM     40  C   UNL     1     -50.810 -20.656  -6.857  0.00  0.00    +0.111 A 
ENDBRANCH   4   3
ENDBRANCH  10   9
BRANCH  12  13
ATOM     13  N   UNL     1     -62.240 -18.073  -7.361  0.00  0.00    -0.281 N 
ATOM     14  C   UNL     1     -63.147 -18.963  -6.809  0.00  0.00    +0.248 C 
ATOM     30  O   UNL     1     -63.029 -19.475  -5.706  0.00  0.00    -0.270 OA
ATOM     31  H   UNL     1     -62.354 -17.875  -8.355  0.00  0.00    +0.155 HD
BRANCH  14  15
ATOM     15  C   UNL     1     -64.351 -19.352  -7.604  0.00  0.00    +0.037 A 
ATOM     16  C   UNL     1     -65.634 -19.629  -6.953  0.00  0.00    +0.013 A 
ATOM     17  C   UNL     1     -66.776 -20.018  -7.741  0.00  0.00    +0.005 A 
ATOM     18  C   UNL     1     -66.640 -20.132  -9.191  0.00  0.00    -0.033 A 
ATOM     28  C   UNL     1     -65.357 -19.846  -9.812  0.00  0.00    +0.005 A 
ATOM     29  C   UNL     1     -64.235 -19.465  -9.042  0.00  0.00    +0.013 A 
BRANCH  18  19
ATOM     19  C   UNL     1     -67.800 -20.562 -10.109  0.00  0.00    +0.119 C 
BRANCH  19  20
ATOM     20  N   UNL     1     -67.461 -20.915 -11.520  0.00  0.00    -0.302 NA
ATOM     21  C   UNL     1     -68.225 -20.052 -12.528  0.00  0.00    +0.066 C 
ATOM     22  C   UNL     1     -67.842 -20.419 -13.998  0.00  0.00    -0.064 C 
ATOM     23  N   UNL     1     -68.117 -21.904 -14.239  0.00  0.00    +0.379 N 
ATOM     24  C   UNL     1     -67.812 -22.239 -15.637  0.00  0.00    -0.096 C 
ATOM     25  H   UNL     1     -69.207 -22.075 -14.079  0.00  0.00    -0.082 HD
ATOM     26  C   UNL     1     -67.363 -22.769 -13.239  0.00  0.00    -0.064 C 
ATOM     27  C   UNL     1     -67.729 -22.377 -11.781  0.00  0.00    +0.066 C 
ENDBRANCH  19  20
ENDBRANCH  18  19
ENDBRANCH  14  15
ENDBRANCH  12  13
TORSDOF 6
ENDMDL
MODEL 3
REMARK VINA RESULT:      -8.3      1.027      1.381
REMARK  Name = C:\Users\Docking\Desktop\test protocol\1iep_ligandH.pdb
REMARK  8 active torsions:
REMARK  status: ('A' for Active; 'I' for Inactive)
REMARK    1  A    between atoms: _5  and  _11
REMARK    2  A    between atoms: _19  and  _21
REMARK    3  A    between atoms: _22  and  _66
REMARK    4  A    between atoms: _27  and  _30
REMARK    5  A    between atoms: _32  and  _33
REMARK    6  A    between atoms: _38  and  _43
REMARK    7  A    between atoms: _43  and  _46
REMARK    8  A    between atoms: _53  and  _55
REMARK                            x       y       z     vdW  Elec       q    Type
REMARK                         _______ _______ _______ _____ _____    ______ ____
ROOT
ATOM     10  C   UNL     1     -30.644  -7.668 -11.266  0.00  0.00    +0.038 A 
ATOM     11  C   UNL     1     -30.867  -6.766 -12.337  0.00  0.00    +0.047 A 
ATOM     12  C   UNL     1     -31.802  -7.083 -13.405  0.00  0.00    +0.035 A 
ATOM     32  C   UNL     1     -32.494  -8.327 -13.350  0.00  0.00    +0.024 A 
ATOM     33  C   UNL     1     -32.278  -9.257 -12.269  0.00  0.00    +0.007 A 
ATOM     34  C   UNL     1     -31.356  -8.951 -11.214  0.00  0.00    -0.029 A 
ATOM     35  C   UNL     1     -31.159  -9.987 -10.083  0.00  0.00    +0.045 C 
ENDROOT
BRANCH  10   9
ATOM      4  C   UNL     1     -29.535  -5.498  -7.131  0.00  0.00    +0.077 A 
ATOM      5  C   UNL     1     -30.873  -5.008  -6.961  0.00  0.00    +0.048 A 
ATOM      6  C   UNL     1     -31.814  -5.331  -7.964  0.00  0.00    +0.116 A 
ATOM      7  N   UNL     1     -31.435  -6.088  -9.051  0.00  0.00    -0.223 NA
ATOM      8  C   UNL     1     -30.136  -6.543  -9.185  0.00  0.00    +0.220 A 
ATOM      9  N   UNL     1     -29.735  -7.312 -10.266  0.00  0.00    -0.283 N 
ATOM     36  H   UNL     1     -28.766  -7.622 -10.333  0.00  0.00    +0.155 HD
ATOM     37  N   UNL     1     -29.218  -6.247  -8.242  0.00  0.00    -0.214 NA
BRANCH   4   3
ATOM      1  C   UNL     1     -26.909  -3.712  -4.847  0.00  0.00    +0.020 A 
ATOM      2  C   UNL     1     -27.983  -3.903  -5.794  0.00  0.00    +0.013 A 
ATOM      3  C   UNL     1     -28.428  -5.243  -6.155  0.00  0.00    +0.019 A 
ATOM     38  C   UNL     1     -27.761  -6.377  -5.534  0.00  0.00    +0.120 A 
ATOM     39  N   UNL     1     -26.730  -6.163  -4.625  0.00  0.00    -0.263 NA
ATOM     40  C   UNL     1     -26.291  -4.878  -4.272  0.00  0.00    +0.111 A 
ENDBRANCH   4   3
ENDBRANCH  10   9
BRANCH  12  13
ATOM     13  N   UNL     1     -32.063  -6.210 -14.523  0.00  0.00    -0.281 N 
ATOM     14  C   UNL     1     -31.654  -6.362 -15.837  0.00  0.00    +0.248 C 
ATOM     30  O   UNL     1     -30.815  -7.169 -16.210  0.00  0.00    -0.270 OA
ATOM     31  H   UNL     1     -32.618  -5.378 -14.320  0.00  0.00    +0.155 HD
BRANCH  14  15
ATOM     15  C   UNL     1     -32.252  -5.483 -16.887  0.00  0.00    +0.037 A 
ATOM     16  C   UNL     1     -32.130  -4.024 -16.816  0.00  0.00    +0.013 A 
ATOM     17  C   UNL     1     -32.731  -3.198 -17.833  0.00  0.00    +0.005 A 
ATOM     18  C   UNL     1     -33.460  -3.829 -18.931  0.00  0.00    -0.033 A 
ATOM     28  C   UNL     1     -33.561  -5.278 -18.979  0.00  0.00    +0.005 A 
ATOM     29  C   UNL     1     -32.974  -6.091 -17.984  0.00  0.00    +0.013 A 
BRANCH  18  19
ATOM     19  C   UNL     1     -34.151  -3.025 -20.047  0.00  0.00    +0.119 C 
BRANCH  19  20
ATOM     20  N   UNL     1     -35.642  -2.951 -20.015  0.00  0.00    -0.302 NA
ATOM     21  C   UNL     1     -36.281  -3.713 -21.179  0.00  0.00    +0.066 C 
ATOM     22  C   UNL     1     -37.841  -3.645 -21.117  0.00  0.00    -0.064 C 
ATOM     23  N   UNL     1     -38.285  -2.181 -21.119  0.00  0.00    +0.379 N 
ATOM     24  C   UNL     1     -39.754  -2.114 -21.118  0.00  0.00    -0.096 C 
ATOM     25  H   UNL     1     -37.926  -1.720 -22.068  0.00  0.00    -0.082 HD
ATOM     26  C   UNL     1     -37.653  -1.415 -19.965  0.00  0.00    -0.064 C 
ATOM     27  C   UNL     1     -36.103  -1.514 -20.020  0.00  0.00    +0.066 C 
ENDBRANCH  19  20
ENDBRANCH  18  19
ENDBRANCH  14  15
ENDBRANCH  12  13
TORSDOF 6
ENDMDL
MODEL 4
REMARK VINA RESULT:      -8.0     13.091     18.012
REMARK  Name = C:\Users\Docking\Desktop\test protocol\1iep_ligandH.pdb
REMARK  8 active torsions:
REMARK  status: ('A' for Active; 'I' for Inactive)
REMARK    1  A    between atoms: _5  and  _11
REMARK    2  A    between atoms: _19  and  _21
REMARK    3  A    between atoms: _22  and  _66
REMARK    4  A    between atoms: _27  and  _30
REMARK    5  A    between atoms: _32  and  _33
REMARK    6  A    between atoms: _38  and  _43
REMARK    7  A    between atoms: _43  and  _46
REMARK    8  A    between atoms: _53  and  _55
REMARK                            x       y       z     vdW  Elec       q    Type
REMARK                         _______ _______ _______ _____ _____    ______ ____
ROOT
ATOM     10  C   UNL     1     -22.423 -19.555  -6.685  0.00  0.00    +0.038 A 
ATOM     11  C   UNL     1     -23.078 -18.379  -6.238  0.00  0.00    +0.047 A 
ATOM     12  C   UNL     1     -24.358 -18.446  -5.551  0.00  0.00    +0.035 A 
ATOM     32  C   UNL     1     -24.941 -19.728  -5.332  0.00  0.00    +0.024 A 
ATOM     33  C   UNL     1     -24.290 -20.933  -5.780  0.00  0.00    +0.007 A 
ATOM     34  C   UNL     1     -23.028 -20.873  -6.461  0.00  0.00    -0.029 A 
ATOM     35  C   UNL     1     -22.378 -22.198  -6.925  0.00  0.00    +0.045 C 
ENDROOT
BRANCH  10   9
ATOM      4  C   UNL     1     -19.780 -18.925 -10.642  0.00  0.00    +0.077 A 
ATOM      5  C   UNL     1     -20.943 -18.861 -11.479  0.00  0.00    +0.048 A 
ATOM      6  C   UNL     1     -22.202 -19.001 -10.854  0.00  0.00    +0.116 A 
ATOM      7  N   UNL     1     -22.280 -19.191  -9.491  0.00  0.00    -0.223 NA
ATOM      8  C   UNL     1     -21.139 -19.250  -8.713  0.00  0.00    +0.220 A 
ATOM      9  N   UNL     1     -21.195 -19.433  -7.339  0.00  0.00    -0.283 N 
ATOM     36  H   UNL     1     -20.330 -19.478  -6.801  0.00  0.00    +0.155 HD
ATOM     37  N   UNL     1     -19.925 -19.120  -9.286  0.00  0.00    -0.214 NA
BRANCH   4   3
ATOM      1  C   UNL     1     -16.262 -17.479 -11.555  0.00  0.00    +0.020 A 
ATOM      2  C   UNL     1     -17.611 -17.557 -11.044  0.00  0.00    +0.013 A 
ATOM      3  C   UNL     1     -18.380 -18.790 -11.154  0.00  0.00    +0.019 A 
ATOM     38  C   UNL     1     -17.749 -19.936 -11.791  0.00  0.00    +0.120 A 
ATOM     39  N   UNL     1     -16.449 -19.832 -12.276  0.00  0.00    -0.263 NA
ATOM     40  C   UNL     1     -15.700 -18.650 -12.176  0.00  0.00    +0.111 A 
ENDBRANCH   4   3
ENDBRANCH  10   9
BRANCH  12  13
ATOM     13  N   UNL     1     -25.074 -17.285  -5.082  0.00  0.00    -0.281 N 
ATOM     14  C   UNL     1     -26.118 -16.620  -5.704  0.00  0.00    +0.248 C 
ATOM     30  O   UNL     1     -26.455 -16.795  -6.865  0.00  0.00    -0.270 OA
ATOM     31  H   UNL     1     -24.774 -16.908  -4.183  0.00  0.00    +0.155 HD
BRANCH  14  15
ATOM     15  C   UNL     1     -26.889 -15.602  -4.927  0.00  0.00    +0.037 A 
ATOM     16  C   UNL     1     -27.841 -14.704  -5.587  0.00  0.00    +0.013 A 
ATOM     17  C   UNL     1     -28.560 -13.720  -4.818  0.00  0.00    +0.005 A 
ATOM     18  C   UNL     1     -28.330 -13.630  -3.378  0.00  0.00    -0.033 A 
ATOM     28  C   UNL     1     -27.385 -14.536  -2.748  0.00  0.00    +0.005 A 
ATOM     29  C   UNL     1     -26.678 -15.502  -3.499  0.00  0.00    +0.013 A 
BRANCH  18  19
ATOM     19  C   UNL     1     -29.037 -12.596  -2.481  0.00  0.00    +0.119 C 
BRANCH  19  20
ATOM     20  N   UNL     1     -28.954 -11.163  -2.893  0.00  0.00    -0.302 NA
ATOM     21  C   UNL     1     -27.898 -10.395  -2.091  0.00  0.00    +0.066 C 
ATOM     22  C   UNL     1     -27.808  -8.904  -2.551  0.00  0.00    -0.064 C 
ATOM     23  N   UNL     1     -29.182  -8.245  -2.408  0.00  0.00    +0.379 N 
ATOM     24  C   UNL     1     -29.087  -6.827  -2.784  0.00  0.00    -0.096 C 
ATOM     25  H   UNL     1     -29.468  -8.292  -1.332  0.00  0.00    -0.082 HD
ATOM     26  C   UNL     1     -30.237  -9.004  -3.200  0.00  0.00    -0.064 C 
ATOM     27  C   UNL     1     -30.298 -10.492  -2.756  0.00  0.00    +0.066 C 
ENDBRANCH  19  20
ENDBRANCH  18  19
ENDBRANCH  14  15
ENDBRANCH  12  13
TORSDOF 6
ENDMDL
MODEL 5
REMARK VINA RESULT:      -7.9      2.698     13.587
REMARK  Name = C:\Users\Docking\Desktop\test protocol\1iep_ligandH.pdb
REMARK  8 active torsions:
REMARK  status: ('A' for Active; 'I' for Inactive)
REMARK    1  A    between atoms: _5  and  _11
REMARK    2  A    between atoms: _19  and  _21
REMARK    3  A    between atoms: _22  and  _66
REMARK    4  A    between atoms: _27  and  _30
REMARK    5  A    between atoms: _32  and  _33
REMARK    6  A    between atoms: _38  and  _43
REMARK    7  A    between atoms: _43  and  _46
REMARK    8  A    between atoms: _53  and  _55
REMARK                            x       y       z     vdW  Elec       q    Type
REMARK                         _______ _______ _______ _____ _____    ______ ____
ROOT
ATOM     10  C   UNL     1     -31.822  -7.165 -12.143  0.00  0.00    +0.038 A 
ATOM     11  C   UNL     1     -31.057  -6.617 -11.082  0.00  0.00    +0.047 A 
ATOM     12  C   UNL     1     -30.548  -7.457 -10.010  0.00  0.00    +0.035 A 
ATOM     32  C   UNL     1     -30.835  -8.853 -10.050  0.00  0.00    +0.024 A 
ATOM     33  C   UNL     1     -31.612  -9.427 -11.121  0.00  0.00    +0.007 A 
ATOM     34  C   UNL     1     -32.119  -8.603 -12.180  0.00  0.00    -0.029 A 
ATOM     35  C   UNL     1     -32.952  -9.271 -13.299  0.00  0.00    +0.045 C 
ENDROOT
BRANCH  10   9
ATOM      4  C   UNL     1     -31.512  -5.217 -16.519  0.00  0.00    +0.077 A 
ATOM      5  C   UNL     1     -30.309  -5.939 -16.820  0.00  0.00    +0.048 A 
ATOM      6  C   UNL     1     -29.799  -6.796 -15.819  0.00  0.00    +0.116 A 
ATOM      7  N   UNL     1     -30.452  -6.915 -14.611  0.00  0.00    -0.223 NA
ATOM      8  C   UNL     1     -31.609  -6.203 -14.352  0.00  0.00    +0.220 A 
ATOM      9  N   UNL     1     -32.286  -6.312 -13.148  0.00  0.00    -0.283 N 
ATOM     36  H   UNL     1     -33.132  -5.765 -12.993  0.00  0.00    +0.155 HD
ATOM     37  N   UNL     1     -32.115  -5.376 -15.291  0.00  0.00    -0.214 NA
BRANCH   4   3
ATOM      1  C   UNL     1     -33.745  -3.763 -19.382  0.00  0.00    +0.020 A 
ATOM      2  C   UNL     1     -33.133  -4.713 -18.483  0.00  0.00    +0.013 A 
ATOM      3  C   UNL     1     -32.175  -4.275 -17.475  0.00  0.00    +0.019 A 
ATOM     38  C   UNL     1     -31.858  -2.857 -17.402  0.00  0.00    +0.120 A 
ATOM     39  N   UNL     1     -32.463  -1.965 -18.282  0.00  0.00    -0.263 NA
ATOM     40  C   UNL     1     -33.384  -2.375 -19.257  0.00  0.00    +0.111 A 
ENDBRANCH   4   3
ENDBRANCH  10   9
BRANCH  12  13
ATOM     13  N   UNL     1     -29.772  -6.956  -8.902  0.00  0.00    -0.281 N 
ATOM     14  C   UNL     1     -30.144  -6.009  -7.962  0.00  0.00    +0.248 C 
ATOM     30  O   UNL     1     -31.127  -5.289  -8.057  0.00  0.00    -0.270 OA
ATOM     31  H   UNL     1     -28.836  -7.347  -8.799  0.00  0.00    +0.155 HD
BRANCH  14  15
ATOM     15  C   UNL     1     -29.293  -5.825  -6.747  0.00  0.00    +0.037 A 
ATOM     16  C   UNL     1     -29.671  -6.410  -5.458  0.00  0.00    +0.013 A 
ATOM     17  C   UNL     1     -28.841  -6.203  -4.298  0.00  0.00    +0.005 A 
ATOM     18  C   UNL     1     -27.622  -5.407  -4.423  0.00  0.00    -0.033 A 
ATOM     28  C   UNL     1     -27.268  -4.842  -5.714  0.00  0.00    +0.005 A 
ATOM     29  C   UNL     1     -28.080  -5.042  -6.853  0.00  0.00    +0.013 A 
BRANCH  18  19
ATOM     19  C   UNL     1     -26.688  -5.117  -3.233  0.00  0.00    +0.119 C 
BRANCH  19  20
ATOM     20  N   UNL     1     -25.454  -5.950  -3.114  0.00  0.00    -0.302 NA
ATOM     21  C   UNL     1     -24.224  -5.240  -3.686  0.00  0.00    +0.066 C 
ATOM     22  C   UNL     1     -22.939  -6.116  -3.532  0.00  0.00    -0.064 C 
ATOM     23  N   UNL     1     -23.157  -7.463  -4.224  0.00  0.00    +0.379 N 
ATOM     24  C   UNL     1     -21.930  -8.267  -4.131  0.00  0.00    -0.096 C 
ATOM     25  H   UNL     1     -23.349  -7.261  -5.303  0.00  0.00    -0.082 HD
ATOM     26  C   UNL     1     -24.380  -8.175  -3.663  0.00  0.00    -0.064 C 
ATOM     27  C   UNL     1     -25.647  -7.283  -3.794  0.00  0.00    +0.066 C 
ENDBRANCH  19  20
ENDBRANCH  18  19
ENDBRANCH  14  15
ENDBRANCH  12  13
TORSDOF 6
ENDMDL
