MODEL 1
REMARK VINA RESULT:      -8.2      0.000      0.000
REMARK  Name = C:\Users\Docking\Desktop\test protocol\1iep_ligandH.pdb
REMARK  8 active torsions:
REMARK  status: ('A' for Active; 'I' for Inactive)
REMARK    1  A    between atoms: _5  and  _11
REMARK    2  A    between atoms: _19  and  _21
REMARK    3  A    between atoms: _22  and  _66
REMARK    4  A    between atoms: _27  and  _30
REMARK    5  A    between atoms: _32  and  _33
REMARK    6  A    between atoms: _38  and  _43
REMARK    7  A    between atoms: _43  and  _46
REMARK    8  A    between atoms: _53  and  _55
REMARK                            x       y       z     vdW  Elec       q    Type
REMARK                         _______ _______ _______ _____ _____    ______ ____
ROOT
ATOM     10  C   UNL     1     -16.949   0.992  -9.583  0.00  0.00    +0.038 A 
ATOM     11  C   UNL     1     -17.761   1.557  -8.566  0.00  0.00    +0.047 A 
ATOM     12  C   UNL     1     -17.740   2.986  -8.295  0.00  0.00    +0.035 A 
ATOM     32  C   UNL     1     -16.884   3.811  -9.081  0.00  0.00    +0.024 A 
ATOM     33  C   UNL     1     -16.052   3.253 -10.118  0.00  0.00    +0.007 A 
ATOM     34  C   UNL     1     -16.066   1.844 -10.388  0.00  0.00    -0.029 A 
ATOM     35  C   UNL     1     -15.148   1.300 -11.507  0.00  0.00    +0.045 C 
ENDROOT
BRANCH  10   9
ATOM      4  C   UNL     1     -19.021  -2.912 -11.455  0.00  0.00    +0.077 A 
ATOM      5  C   UNL     1     -20.090  -2.144 -12.024  0.00  0.00    +0.048 A 
ATOM      6  C   UNL     1     -20.074  -0.748 -11.807  0.00  0.00    +0.116 A 
ATOM      7  N   UNL     1     -19.059  -0.174 -11.073  0.00  0.00    -0.223 NA
ATOM      8  C   UNL     1     -18.044  -0.944 -10.535  0.00  0.00    +0.220 A 
ATOM      9  N   UNL     1     -17.009  -0.386  -9.801  0.00  0.00    -0.283 N 
ATOM     36  H   UNL     1     -16.282  -0.989  -9.415  0.00  0.00    +0.155 HD
ATOM     37  N   UNL     1     -18.037  -2.279 -10.728  0.00  0.00    -0.214 NA
BRANCH   4   3
ATOM      1  C   UNL     1     -17.684  -6.476 -12.356  0.00  0.00    +0.020 A 
ATOM      2  C   UNL     1     -17.756  -5.038 -12.242  0.00  0.00    +0.013 A 
ATOM      3  C   UNL     1     -18.897  -4.397 -11.600  0.00  0.00    +0.019 A 
ATOM     38  C   UNL     1     -19.956  -5.248 -11.079  0.00  0.00    +0.120 A 
ATOM     39  N   UNL     1     -19.861  -6.630 -11.205  0.00  0.00    -0.263 NA
ATOM     40  C   UNL     1     -18.769  -7.258 -11.822  0.00  0.00    +0.111 A 
ENDBRANCH   4   3
ENDBRANCH  10   9
BRANCH  12  13
ATOM     13  N   UNL     1     -18.536   3.616  -7.270  0.00  0.00    -0.281 N 
ATOM     14  C   UNL     1     -18.094   4.299  -6.149  0.00  0.00    +0.248 C 
ATOM     30  O   UNL     1     -16.941   4.289  -5.742  0.00  0.00    -0.270 OA
ATOM     31  H   UNL     1     -19.547   3.550  -7.385  0.00  0.00    +0.155 HD
BRANCH  14  15
ATOM     15  C   UNL     1     -19.077   5.098  -5.356  0.00  0.00    +0.037 A 
ATOM     16  C   UNL     1     -19.994   4.454  -4.411  0.00  0.00    +0.013 A 
ATOM     17  C   UNL     1     -20.945   5.246  -3.672  0.00  0.00    +0.005 A 
ATOM     18  C   UNL     1     -20.982   6.693  -3.873  0.00  0.00    -0.033 A 
ATOM     28  C   UNL     1     -20.058   7.306  -4.812  0.00  0.00    +0.005 A 
ATOM     29  C   UNL     1     -19.125   6.533  -5.540  0.00  0.00    +0.013 A 
BRANCH  18  19
ATOM     19  C   UNL     1     -21.977   7.613  -3.143  0.00  0.00    +0.119 C 
BRANCH  19  20
ATOM     20  N   UNL     1     -23.236   7.968  -3.864  0.00  0.00    -0.302 NA
ATOM     21  C   UNL     1     -23.591   6.939  -4.941  0.00  0.00    +0.066 C 
ATOM     22  C   UNL     1     -24.922   7.314  -5.670  0.00  0.00    -0.064 C 
ATOM     23  N   UNL     1     -24.791   8.712  -6.278  0.00  0.00    +0.379 N 
ATOM     24  C   UNL     1     -26.020   9.044  -7.013  0.00  0.00    -0.096 C 
ATOM     25  H   UNL     1     -23.954   8.683  -7.013  0.00  0.00    -0.082 HD
ATOM     26  C   UNL     1     -24.436   9.741  -5.214  0.00  0.00    -0.064 C 
ATOM     27  C   UNL     1     -23.127   9.343  -4.476  0.00  0.00    +0.066 C 
ENDBRANCH  19  20
ENDBRANCH  18  19
ENDBRANCH  14  15
ENDBRANCH  12  13
TORSDOF 6
ENDMDL
MODEL 2
REMARK VINA RESULT:      -8.2     33.001     35.110
REMARK  Name = C:\Users\Docking\Desktop\test protocol\1iep_ligandH.pdb
REMARK  8 active torsions:
REMARK  status: ('A' for Active; 'I' for Inactive)
REMARK    1  A    between atoms: _5  and  _11
REMARK    2  A    between atoms: _19  and  _21
REMARK    3  A    between atoms: _22  and  _66
REMARK    4  A    between atoms: _27  and  _30
REMARK    5  A    between atoms: _32  and  _33
REMARK    6  A    between atoms: _38  and  _43
REMARK    7  A    between atoms: _43  and  _46
REMARK    8  A    between atoms: _53  and  _55
REMARK                            x       y       z     vdW  Elec       q    Type
REMARK                         _______ _______ _______ _____ _____    ______ ____
ROOT
ATOM     10  C   UNL     1     -23.088  23.191 -38.106  0.00  0.00    +0.038 A 
ATOM     11  C   UNL     1     -22.264  23.048 -36.960  0.00  0.00    +0.047 A 
ATOM     12  C   UNL     1     -21.028  23.803 -36.823  0.00  0.00    +0.035 A 
ATOM     32  C   UNL     1     -20.663  24.697 -37.872  0.00  0.00    +0.024 A 
ATOM     33  C   UNL     1     -21.488  24.854 -39.043  0.00  0.00    +0.007 A 
ATOM     34  C   UNL     1     -22.707  24.110 -39.185  0.00  0.00    -0.029 A 
ATOM     35  C   UNL     1     -23.549  24.314 -40.466  0.00  0.00    +0.045 C 
ENDROOT
BRANCH  10   9
ATOM      4  C   UNL     1     -25.546  19.305 -39.480  0.00  0.00    +0.077 A 
ATOM      5  C   UNL     1     -24.397  18.730 -40.117  0.00  0.00    +0.048 A 
ATOM      6  C   UNL     1     -23.194  19.470 -40.075  0.00  0.00    +0.116 A 
ATOM      7  N   UNL     1     -23.155  20.692 -39.439  0.00  0.00    -0.223 NA
ATOM      8  C   UNL     1     -24.282  21.219 -38.836  0.00  0.00    +0.220 A 
ATOM      9  N   UNL     1     -24.264  22.442 -38.185  0.00  0.00    -0.283 N 
ATOM     36  H   UNL     1     -25.119  22.799 -37.759  0.00  0.00    +0.155 HD
ATOM     37  N   UNL     1     -25.444  20.532 -38.864  0.00  0.00    -0.214 NA
BRANCH   4   3
ATOM      1  C   UNL     1     -28.444  16.787 -38.731  0.00  0.00    +0.020 A 
ATOM      2  C   UNL     1     -27.129  17.384 -38.743  0.00  0.00    +0.013 A 
ATOM      3  C   UNL     1     -26.888  18.643 -39.437  0.00  0.00    +0.019 A 
ATOM     38  C   UNL     1     -28.010  19.277 -40.113  0.00  0.00    +0.120 A 
ATOM     39  N   UNL     1     -29.265  18.678 -40.086  0.00  0.00    -0.263 NA
ATOM     40  C   UNL     1     -29.508  17.466 -39.423  0.00  0.00    +0.111 A 
ENDBRANCH   4   3
ENDBRANCH  10   9
BRANCH  12  13
ATOM     13  N   UNL     1     -20.147  23.693 -35.687  0.00  0.00    -0.281 N 
ATOM     14  C   UNL     1     -18.805  23.351 -35.680  0.00  0.00    +0.248 C 
ATOM     30  O   UNL     1     -18.207  22.877 -36.635  0.00  0.00    -0.270 OA
ATOM     31  H   UNL     1     -20.564  23.891 -34.777  0.00  0.00    +0.155 HD
BRANCH  14  15
ATOM     15  C   UNL     1     -18.015  23.551 -34.427  0.00  0.00    +0.037 A 
ATOM     16  C   UNL     1     -18.506  24.413 -33.349  0.00  0.00    +0.013 A 
ATOM     17  C   UNL     1     -17.716  24.602 -32.158  0.00  0.00    +0.005 A 
ATOM     18  C   UNL     1     -16.427  23.925 -32.038  0.00  0.00    -0.033 A 
ATOM     28  C   UNL     1     -15.966  23.071 -33.121  0.00  0.00    +0.005 A 
ATOM     29  C   UNL     1     -16.737  22.885 -34.290  0.00  0.00    +0.013 A 
BRANCH  18  19
ATOM     19  C   UNL     1     -15.509  24.086 -30.812  0.00  0.00    +0.119 C 
BRANCH  19  20
ATOM     20  N   UNL     1     -15.414  25.446 -30.202  0.00  0.00    -0.302 NA
ATOM     21  C   UNL     1     -13.962  25.873 -29.974  0.00  0.00    +0.066 C 
ATOM     22  C   UNL     1     -13.881  27.307 -29.356  0.00  0.00    -0.064 C 
ATOM     23  N   UNL     1     -14.668  27.339 -28.045  0.00  0.00    +0.379 N 
ATOM     24  C   UNL     1     -14.545  28.670 -27.432  0.00  0.00    -0.096 C 
ATOM     25  H   UNL     1     -14.199  26.603 -27.351  0.00  0.00    -0.082 HD
ATOM     26  C   UNL     1     -16.112  26.913 -28.262  0.00  0.00    -0.064 C 
ATOM     27  C   UNL     1     -16.181  25.499 -28.904  0.00  0.00    +0.066 C 
ENDBRANCH  19  20
ENDBRANCH  18  19
ENDBRANCH  14  15
ENDBRANCH  12  13
TORSDOF 6
ENDMDL
MODEL 3
REMARK VINA RESULT:      -8.2      4.481     13.817
REMARK  Name = C:\Users\Docking\Desktop\test protocol\1iep_ligandH.pdb
REMARK  8 active torsions:
REMARK  status: ('A' for Active; 'I' for Inactive)
REMARK    1  A    between atoms: _5  and  _11
REMARK    2  A    between atoms: _19  and  _21
REMARK    3  A    between atoms: _22  and  _66
REMARK    4  A    between atoms: _27  and  _30
REMARK    5  A    between atoms: _32  and  _33
REMARK    6  A    between atoms: _38  and  _43
REMARK    7  A    between atoms: _43  and  _46
REMARK    8  A    between atoms: _53  and  _55
REMARK                            x       y       z     vdW  Elec       q    Type
REMARK                         _______ _______ _______ _____ _____    ______ ____
ROOT
ATOM     10  C   UNL     1     -20.291   5.336  -0.244  0.00  0.00    +0.038 A 
ATOM     11  C   UNL     1     -19.813   5.043  -1.547  0.00  0.00    +0.047 A 
ATOM     12  C   UNL     1     -20.408   3.984  -2.347  0.00  0.00    +0.035 A 
ATOM     32  C   UNL     1     -21.491   3.243  -1.789  0.00  0.00    +0.024 A 
ATOM     33  C   UNL     1     -21.988   3.526  -0.465  0.00  0.00    +0.007 A 
ATOM     34  C   UNL     1     -21.404   4.569   0.329  0.00  0.00    -0.029 A 
ATOM     35  C   UNL     1     -21.973   4.824   1.744  0.00  0.00    +0.045 C 
ENDROOT
BRANCH  10   9
ATOM      4  C   UNL     1     -20.093   9.871   1.314  0.00  0.00    +0.077 A 
ATOM      5  C   UNL     1     -21.288  10.229   0.606  0.00  0.00    +0.048 A 
ATOM      6  C   UNL     1     -21.919   9.219  -0.154  0.00  0.00    +0.116 A 
ATOM      7  N   UNL     1     -21.386   7.948  -0.195  0.00  0.00    -0.223 NA
ATOM      8  C   UNL     1     -20.232   7.637   0.499  0.00  0.00    +0.220 A 
ATOM      9  N   UNL     1     -19.683   6.364   0.479  0.00  0.00    -0.283 N 
ATOM     36  H   UNL     1     -18.826   6.176   0.998  0.00  0.00    +0.155 HD
ATOM     37  N   UNL     1     -19.609   8.584   1.231  0.00  0.00    -0.214 NA
BRANCH   4   3
ATOM      1  C   UNL     1     -17.365  12.377   2.573  0.00  0.00    +0.020 A 
ATOM      2  C   UNL     1     -18.080  11.460   1.714  0.00  0.00    +0.013 A 
ATOM      3  C   UNL     1     -19.313  10.827   2.163  0.00  0.00    +0.019 A 
ATOM     38  C   UNL     1     -19.802  11.146   3.496  0.00  0.00    +0.120 A 
ATOM     39  N   UNL     1     -19.092  12.031   4.301  0.00  0.00    -0.263 NA
ATOM     40  C   UNL     1     -17.903  12.645   3.881  0.00  0.00    +0.111 A 
ENDBRANCH   4   3
ENDBRANCH  10   9
BRANCH  12  13
ATOM     13  N   UNL     1     -19.960   3.636  -3.672  0.00  0.00    -0.281 N 
ATOM     14  C   UNL     1     -19.723   4.485  -4.741  0.00  0.00    +0.248 C 
ATOM     30  O   UNL     1     -20.067   5.657  -4.782  0.00  0.00    -0.270 OA
ATOM     31  H   UNL     1     -19.798   2.644  -3.844  0.00  0.00    +0.155 HD
BRANCH  14  15
ATOM     15  C   UNL     1     -19.014   3.951  -5.944  0.00  0.00    +0.037 A 
ATOM     16  C   UNL     1     -17.933   4.704  -6.585  0.00  0.00    +0.013 A 
ATOM     17  C   UNL     1     -17.277   4.174  -7.754  0.00  0.00    +0.005 A 
ATOM     18  C   UNL     1     -17.700   2.882  -8.289  0.00  0.00    -0.033 A 
ATOM     28  C   UNL     1     -18.771   2.154  -7.629  0.00  0.00    +0.005 A 
ATOM     29  C   UNL     1     -19.417   2.671  -6.484  0.00  0.00    +0.013 A 
BRANCH  18  19
ATOM     19  C   UNL     1     -17.071   2.250  -9.544  0.00  0.00    +0.119 C 
BRANCH  19  20
ATOM     20  N   UNL     1     -17.767   1.070 -10.138  0.00  0.00    -0.302 NA
ATOM     21  C   UNL     1     -17.263  -0.251  -9.549  0.00  0.00    +0.066 C 
ATOM     22  C   UNL     1     -18.018  -1.474 -10.165  0.00  0.00    -0.064 C 
ATOM     23  N   UNL     1     -17.851  -1.459 -11.686  0.00  0.00    +0.379 N 
ATOM     24  C   UNL     1     -18.511  -2.640 -12.263  0.00  0.00    -0.096 C 
ATOM     25  H   UNL     1     -16.761  -1.539 -11.907  0.00  0.00    -0.082 HD
ATOM     26  C   UNL     1     -18.347  -0.149 -12.279  0.00  0.00    -0.064 C 
ATOM     27  C   UNL     1     -17.611   1.062 -11.639  0.00  0.00    +0.066 C 
ENDBRANCH  19  20
ENDBRANCH  18  19
ENDBRANCH  14  15
ENDBRANCH  12  13
TORSDOF 6
ENDMDL
MODEL 4
REMARK VINA RESULT:      -8.2      5.150     13.680
REMARK  Name = C:\Users\Docking\Desktop\test protocol\1iep_ligandH.pdb
REMARK  8 active torsions:
REMARK  status: ('A' for Active; 'I' for Inactive)
REMARK    1  A    between atoms: _5  and  _11
REMARK    2  A    between atoms: _19  and  _21
REMARK    3  A    between atoms: _22  and  _66
REMARK    4  A    between atoms: _27  and  _30
REMARK    5  A    between atoms: _32  and  _33
REMARK    6  A    between atoms: _38  and  _43
REMARK    7  A    between atoms: _43  and  _46
REMARK    8  A    between atoms: _53  and  _55
REMARK                            x       y       z     vdW  Elec       q    Type
REMARK                         _______ _______ _______ _____ _____    ______ ____
ROOT
ATOM     10  C   UNL     1     -21.203   6.781  -0.838  0.00  0.00    +0.038 A 
ATOM     11  C   UNL     1     -20.411   6.038  -1.749  0.00  0.00    +0.047 A 
ATOM     12  C   UNL     1     -20.513   6.252  -3.184  0.00  0.00    +0.035 A 
ATOM     32  C   UNL     1     -21.430   7.235  -3.656  0.00  0.00    +0.024 A 
ATOM     33  C   UNL     1     -22.244   8.000  -2.744  0.00  0.00    +0.007 A 
ATOM     34  C   UNL     1     -22.150   7.790  -1.328  0.00  0.00    -0.029 A 
ATOM     35  C   UNL     1     -23.051   8.634  -0.397  0.00  0.00    +0.045 C 
ENDROOT
BRANCH  10   9
ATOM      4  C   UNL     1     -19.162   7.609   3.427  0.00  0.00    +0.077 A 
ATOM      5  C   UNL     1     -18.280   8.598   2.880  0.00  0.00    +0.048 A 
ATOM      6  C   UNL     1     -18.378   8.859   1.494  0.00  0.00    +0.116 A 
ATOM      7  N   UNL     1     -19.294   8.177   0.724  0.00  0.00    -0.223 NA
ATOM      8  C   UNL     1     -20.129   7.227   1.284  0.00  0.00    +0.220 A 
ATOM      9  N   UNL     1     -21.064   6.534   0.530  0.00  0.00    -0.283 N 
ATOM     36  H   UNL     1     -21.657   5.837   0.979  0.00  0.00    +0.155 HD
ATOM     37  N   UNL     1     -20.054   6.959   2.604  0.00  0.00    -0.214 NA
BRANCH   4   3
ATOM      1  C   UNL     1     -18.996   7.758   7.333  0.00  0.00    +0.020 A 
ATOM      2  C   UNL     1     -18.967   8.182   5.952  0.00  0.00    +0.013 A 
ATOM      3  C   UNL     1     -19.181   7.224   4.874  0.00  0.00    +0.019 A 
ATOM     38  C   UNL     1     -19.425   5.834   5.231  0.00  0.00    +0.120 A 
ATOM     39  N   UNL     1     -19.446   5.455   6.569  0.00  0.00    -0.263 NA
ATOM     40  C   UNL     1     -19.239   6.368   7.615  0.00  0.00    +0.111 A 
ENDBRANCH   4   3
ENDBRANCH  10   9
BRANCH  12  13
ATOM     13  N   UNL     1     -19.740   5.521  -4.158  0.00  0.00    -0.281 N 
ATOM     14  C   UNL     1     -19.968   4.243  -4.641  0.00  0.00    +0.248 C 
ATOM     30  O   UNL     1     -20.755   3.448  -4.147  0.00  0.00    -0.270 OA
ATOM     31  H   UNL     1     -18.926   6.005  -4.537  0.00  0.00    +0.155 HD
BRANCH  14  15
ATOM     15  C   UNL     1     -19.202   3.775  -5.835  0.00  0.00    +0.037 A 
ATOM     16  C   UNL     1     -18.050   4.526  -6.341  0.00  0.00    +0.013 A 
ATOM     17  C   UNL     1     -17.338   4.061  -7.505  0.00  0.00    +0.005 A 
ATOM     18  C   UNL     1     -17.777   2.838  -8.172  0.00  0.00    -0.033 A 
ATOM     28  C   UNL     1     -18.920   2.110  -7.646  0.00  0.00    +0.005 A 
ATOM     29  C   UNL     1     -19.620   2.562  -6.505  0.00  0.00    +0.013 A 
BRANCH  18  19
ATOM     19  C   UNL     1     -17.091   2.279  -9.433  0.00  0.00    +0.119 C 
BRANCH  19  20
ATOM     20  N   UNL     1     -17.727   1.100 -10.092  0.00  0.00    -0.302 NA
ATOM     21  C   UNL     1     -17.281  -0.221  -9.460  0.00  0.00    +0.066 C 
ATOM     22  C   UNL     1     -17.973  -1.443 -10.147  0.00  0.00    -0.064 C 
ATOM     23  N   UNL     1     -17.661  -1.427 -11.645  0.00  0.00    +0.379 N 
ATOM     24  C   UNL     1     -18.262  -2.606 -12.284  0.00  0.00    -0.096 C 
ATOM     25  H   UNL     1     -16.555  -1.506 -11.760  0.00  0.00    -0.082 HD
ATOM     26  C   UNL     1     -18.099  -0.115 -12.281  0.00  0.00    -0.064 C 
ATOM     27  C   UNL     1     -17.428   1.094 -11.571  0.00  0.00    +0.066 C 
ENDBRANCH  19  20
ENDBRANCH  18  19
ENDBRANCH  14  15
ENDBRANCH  12  13
TORSDOF 6
ENDMDL
MODEL 5
REMARK VINA RESULT:      -8.0     33.015     35.867
REMARK  Name = C:\Users\Docking\Desktop\test protocol\1iep_ligandH.pdb
REMARK  8 active torsions:
REMARK  status: ('A' for Active; 'I' for Inactive)
REMARK    1  A    between atoms: _5  and  _11
REMARK    2  A    between atoms: _19  and  _21
REMARK    3  A    between atoms: _22  and  _66
REMARK    4  A    between atoms: _27  and  _30
REMARK    5  A    between atoms: _32  and  _33
REMARK    6  A    between atoms: _38  and  _43
REMARK    7  A    between atoms: _43  and  _46
REMARK    8  A    between atoms: _53  and  _55
REMARK                            x       y       z     vdW  Elec       q    Type
REMARK                         _______ _______ _______ _____ _____    ______ ____
ROOT
ATOM     10  C   UNL     1     -19.698  24.497 -36.447  0.00  0.00    +0.038 A 
ATOM     11  C   UNL     1     -20.751  23.556 -36.573  0.00  0.00    +0.047 A 
ATOM     12  C   UNL     1     -21.255  23.162 -37.880  0.00  0.00    +0.035 A 
ATOM     32  C   UNL     1     -20.661  23.745 -39.037  0.00  0.00    +0.024 A 
ATOM     33  C   UNL     1     -19.590  24.704 -38.927  0.00  0.00    +0.007 A 
ATOM     34  C   UNL     1     -19.091  25.098 -37.640  0.00  0.00    -0.029 A 
ATOM     35  C   UNL     1     -17.945  26.136 -37.582  0.00  0.00    +0.045 C 
ENDROOT
BRANCH  10   9
ATOM      4  C   UNL     1     -16.701  23.993 -32.732  0.00  0.00    +0.077 A 
ATOM      5  C   UNL     1     -15.976  22.939 -33.384  0.00  0.00    +0.048 A 
ATOM      6  C   UNL     1     -16.411  22.553 -34.671  0.00  0.00    +0.116 A 
ATOM      7  N   UNL     1     -17.492  23.179 -35.254  0.00  0.00    -0.223 NA
ATOM      8  C   UNL     1     -18.169  24.190 -34.597  0.00  0.00    +0.220 A 
ATOM      9  N   UNL     1     -19.253  24.840 -35.168  0.00  0.00    -0.283 N 
ATOM     36  H   UNL     1     -19.731  25.575 -34.648  0.00  0.00    +0.155 HD
ATOM     37  N   UNL     1     -17.774  24.577 -33.367  0.00  0.00    -0.214 NA
BRANCH   4   3
ATOM      1  C   UNL     1     -16.853  24.863 -28.922  0.00  0.00    +0.020 A 
ATOM      2  C   UNL     1     -17.229  24.339 -30.214  0.00  0.00    +0.013 A 
ATOM      3  C   UNL     1     -16.360  24.515 -31.371  0.00  0.00    +0.019 A 
ATOM     38  C   UNL     1     -15.107  25.231 -31.184  0.00  0.00    +0.120 A 
ATOM     39  N   UNL     1     -14.772  25.725 -29.927  0.00  0.00    -0.263 NA
ATOM     40  C   UNL     1     -15.601  25.564 -28.808  0.00  0.00    +0.111 A 
ENDBRANCH   4   3
ENDBRANCH  10   9
BRANCH  12  13
ATOM     13  N   UNL     1     -22.328  22.217 -38.070  0.00  0.00    -0.281 N 
ATOM     14  C   UNL     1     -23.691  22.450 -37.994  0.00  0.00    +0.248 C 
ATOM     30  O   UNL     1     -24.195  23.466 -37.539  0.00  0.00    -0.270 OA
ATOM     31  H   UNL     1     -22.048  21.260 -38.287  0.00  0.00    +0.155 HD
BRANCH  14  15
ATOM     15  C   UNL     1     -24.632  21.396 -38.482  0.00  0.00    +0.037 A 
ATOM     16  C   UNL     1     -26.059  21.675 -38.663  0.00  0.00    +0.013 A 
ATOM     17  C   UNL     1     -26.947  20.636 -39.119  0.00  0.00    +0.005 A 
ATOM     18  C   UNL     1     -26.410  19.306 -39.399  0.00  0.00    -0.033 A 
ATOM     28  C   UNL     1     -24.989  19.058 -39.216  0.00  0.00    +0.005 A 
ATOM     29  C   UNL     1     -24.116  20.074 -38.768  0.00  0.00    +0.013 A 
BRANCH  18  19
ATOM     19  C   UNL     1     -27.288  18.131 -39.868  0.00  0.00    +0.119 C 
BRANCH  19  20
ATOM     20  N   UNL     1     -28.396  17.702 -38.965  0.00  0.00    -0.302 NA
ATOM     21  C   UNL     1     -28.108  16.351 -38.303  0.00  0.00    +0.066 C 
ATOM     22  C   UNL     1     -29.268  15.928 -37.344  0.00  0.00    -0.064 C 
ATOM     23  N   UNL     1     -30.581  15.879 -38.126  0.00  0.00    +0.379 N 
ATOM     24  C   UNL     1     -31.663  15.425 -37.241  0.00  0.00    -0.096 C 
ATOM     25  H   UNL     1     -30.464  15.119 -38.934  0.00  0.00    -0.082 HD
ATOM     26  C   UNL     1     -30.874  17.217 -38.790  0.00  0.00    -0.064 C 
ATOM     27  C   UNL     1     -29.702  17.642 -39.718  0.00  0.00    +0.066 C 
ENDBRANCH  19  20
ENDBRANCH  18  19
ENDBRANCH  14  15
ENDBRANCH  12  13
TORSDOF 6
ENDMDL
