MODEL 1
REMARK VINA RESULT:      -9.5      0.000      0.000
REMARK  Name = C:\Users\Docking\Desktop\test protocol\1iep_ligandH.pdb
REMARK  8 active torsions:
REMARK  status: ('A' for Active; 'I' for Inactive)
REMARK    1  A    between atoms: _5  and  _11
REMARK    2  A    between atoms: _19  and  _21
REMARK    3  A    between atoms: _22  and  _66
REMARK    4  A    between atoms: _27  and  _30
REMARK    5  A    between atoms: _32  and  _33
REMARK    6  A    between atoms: _38  and  _43
REMARK    7  A    between atoms: _43  and  _46
REMARK    8  A    between atoms: _53  and  _55
REMARK                            x       y       z     vdW  Elec       q    Type
REMARK                         _______ _______ _______ _____ _____    ______ ____
ROOT
ATOM     10  C   UNL     1      41.119 -40.426  10.516  0.00  0.00    +0.038 A 
ATOM     11  C   UNL     1      42.207 -39.589  10.160  0.00  0.00    +0.047 A 
ATOM     12  C   UNL     1      42.059 -38.143  10.113  0.00  0.00    +0.035 A 
ATOM     32  C   UNL     1      40.789 -37.582  10.436  0.00  0.00    +0.024 A 
ATOM     33  C   UNL     1      39.672 -38.419  10.798  0.00  0.00    +0.007 A 
ATOM     34  C   UNL     1      39.811 -39.846  10.845  0.00  0.00    -0.029 A 
ATOM     35  C   UNL     1      38.578 -40.694  11.234  0.00  0.00    +0.045 C 
ENDROOT
BRANCH  10   9
ATOM      4  C   UNL     1      42.022 -44.620   8.363  0.00  0.00    +0.077 A 
ATOM      5  C   UNL     1      42.079 -44.010   7.066  0.00  0.00    +0.048 A 
ATOM      6  C   UNL     1      41.862 -42.615   6.996  0.00  0.00    +0.116 A 
ATOM      7  N   UNL     1      41.610 -41.895   8.143  0.00  0.00    -0.223 NA
ATOM      8  C   UNL     1      41.561 -42.515   9.378  0.00  0.00    +0.220 A 
ATOM      9  N   UNL     1      41.316 -41.809  10.546  0.00  0.00    -0.283 N 
ATOM     36  H   UNL     1      41.281 -42.304  11.436  0.00  0.00    +0.155 HD
ATOM     37  N   UNL     1      41.762 -43.846   9.472  0.00  0.00    -0.214 NA
BRANCH   4   3
ATOM      1  C   UNL     1      41.794 -48.231   9.850  0.00  0.00    +0.020 A 
ATOM      2  C   UNL     1      41.556 -46.819   9.662  0.00  0.00    +0.013 A 
ATOM      3  C   UNL     1      42.233 -46.083   8.602  0.00  0.00    +0.019 A 
ATOM     38  C   UNL     1      43.151 -46.813   7.740  0.00  0.00    +0.120 A 
ATOM     39  N   UNL     1      43.362 -48.173   7.946  0.00  0.00    -0.263 NA
ATOM     40  C   UNL     1      42.718 -48.890   8.964  0.00  0.00    +0.111 A 
ENDBRANCH   4   3
ENDBRANCH  10   9
BRANCH  12  13
ATOM     13  N   UNL     1      43.126 -37.243   9.751  0.00  0.00    -0.281 N 
ATOM     14  C   UNL     1      44.371 -37.116  10.344  0.00  0.00    +0.248 C 
ATOM     30  O   UNL     1      44.679 -37.612  11.418  0.00  0.00    -0.270 OA
ATOM     31  H   UNL     1      42.941 -36.624   8.961  0.00  0.00    +0.155 HD
BRANCH  14  15
ATOM     15  C   UNL     1      45.422 -36.309   9.652  0.00  0.00    +0.037 A 
ATOM     16  C   UNL     1      46.039 -35.148  10.300  0.00  0.00    +0.013 A 
ATOM     17  C   UNL     1      47.038 -34.377   9.604  0.00  0.00    +0.005 A 
ATOM     18  C   UNL     1      47.428 -34.766   8.250  0.00  0.00    -0.033 A 
ATOM     28  C   UNL     1      46.804 -35.925   7.634  0.00  0.00    +0.005 A 
ATOM     29  C   UNL     1      45.823 -36.683   8.313  0.00  0.00    +0.013 A 
BRANCH  18  19
ATOM     19  C   UNL     1      48.470 -33.989   7.425  0.00  0.00    +0.119 C 
BRANCH  19  20
ATOM     20  N   UNL     1      48.481 -34.217   5.949  0.00  0.00    -0.302 NA
ATOM     21  C   UNL     1      49.736 -33.641   5.288  0.00  0.00    +0.066 C 
ATOM     22  C   UNL     1      49.742 -33.908   3.747  0.00  0.00    -0.064 C 
ATOM     23  N   UNL     1      48.479 -33.311   3.124  0.00  0.00    +0.379 N 
ATOM     24  C   UNL     1      48.510 -33.510   1.668  0.00  0.00    -0.096 C 
ATOM     25  H   UNL     1      48.494 -32.213   3.316  0.00  0.00    -0.082 HD
ATOM     26  C   UNL     1      47.226 -33.877   3.778  0.00  0.00    -0.064 C 
ATOM     27  C   UNL     1      47.244 -33.632   5.312  0.00  0.00    +0.066 C 
ENDBRANCH  19  20
ENDBRANCH  18  19
ENDBRANCH  14  15
ENDBRANCH  12  13
TORSDOF 6
ENDMDL
MODEL 2
REMARK VINA RESULT:      -9.4      2.403      4.155
REMARK  Name = C:\Users\Docking\Desktop\test protocol\1iep_ligandH.pdb
REMARK  8 active torsions:
REMARK  status: ('A' for Active; 'I' for Inactive)
REMARK    1  A    between atoms: _5  and  _11
REMARK    2  A    between atoms: _19  and  _21
REMARK    3  A    between atoms: _22  and  _66
REMARK    4  A    between atoms: _27  and  _30
REMARK    5  A    between atoms: _32  and  _33
REMARK    6  A    between atoms: _38  and  _43
REMARK    7  A    between atoms: _43  and  _46
REMARK    8  A    between atoms: _53  and  _55
REMARK                            x       y       z     vdW  Elec       q    Type
REMARK                         _______ _______ _______ _____ _____    ______ ____
ROOT
ATOM     10  C   UNL     1      39.421 -44.079  10.981  0.00  0.00    +0.038 A 
ATOM     11  C   UNL     1      40.490 -43.180  10.737  0.00  0.00    +0.047 A 
ATOM     12  C   UNL     1      40.297 -41.741  10.823  0.00  0.00    +0.035 A 
ATOM     32  C   UNL     1      39.002 -41.252  11.162  0.00  0.00    +0.024 A 
ATOM     33  C   UNL     1      37.904 -42.151  11.411  0.00  0.00    +0.007 A 
ATOM     34  C   UNL     1      38.087 -43.572  11.326  0.00  0.00    -0.029 A 
ATOM     35  C   UNL     1      36.872 -44.489  11.598  0.00  0.00    +0.045 C 
ENDROOT
BRANCH  10   9
ATOM      4  C   UNL     1      40.431 -48.033   8.455  0.00  0.00    +0.077 A 
ATOM      5  C   UNL     1      40.454 -47.308   7.217  0.00  0.00    +0.048 A 
ATOM      6  C   UNL     1      40.194 -45.921   7.273  0.00  0.00    +0.116 A 
ATOM      7  N   UNL     1      39.931 -45.314   8.482  0.00  0.00    -0.223 NA
ATOM      8  C   UNL     1      39.915 -46.043   9.657  0.00  0.00    +0.220 A 
ATOM      9  N   UNL     1      39.662 -45.452  10.886  0.00  0.00    -0.283 N 
ATOM     36  H   UNL     1      39.652 -46.025  11.729  0.00  0.00    +0.155 HD
ATOM     37  N   UNL     1      40.160 -47.370   9.630  0.00  0.00    -0.214 NA
BRANCH   4   3
ATOM      1  C   UNL     1      41.640 -51.675   7.693  0.00  0.00    +0.020 A 
ATOM      2  C   UNL     1      41.416 -50.255   7.543  0.00  0.00    +0.013 A 
ATOM      3  C   UNL     1      40.690 -49.504   8.560  0.00  0.00    +0.019 A 
ATOM     38  C   UNL     1      40.200 -50.225   9.725  0.00  0.00    +0.120 A 
ATOM     39  N   UNL     1      40.429 -51.593   9.841  0.00  0.00    -0.263 NA
ATOM     40  C   UNL     1      41.125 -52.326   8.869  0.00  0.00    +0.111 A 
ENDBRANCH   4   3
ENDBRANCH  10   9
BRANCH  12  13
ATOM     13  N   UNL     1      41.344 -40.779  10.578  0.00  0.00    -0.281 N 
ATOM     14  C   UNL     1      41.211 -39.459  10.180  0.00  0.00    +0.248 C 
ATOM     30  O   UNL     1      40.174 -38.963   9.765  0.00  0.00    -0.270 OA
ATOM     31  H   UNL     1      42.298 -41.112  10.715  0.00  0.00    +0.155 HD
BRANCH  14  15
ATOM     15  C   UNL     1      42.406 -38.564  10.237  0.00  0.00    +0.037 A 
ATOM     16  C   UNL     1      43.717 -39.072  10.652  0.00  0.00    +0.013 A 
ATOM     17  C   UNL     1      44.850 -38.183  10.715  0.00  0.00    +0.005 A 
ATOM     18  C   UNL     1      44.677 -36.776  10.360  0.00  0.00    -0.033 A 
ATOM     28  C   UNL     1      43.367 -36.300   9.947  0.00  0.00    +0.005 A 
ATOM     29  C   UNL     1      42.254 -37.168   9.885  0.00  0.00    +0.013 A 
BRANCH  18  19
ATOM     19  C   UNL     1      45.826 -35.752  10.419  0.00  0.00    +0.119 C 
BRANCH  19  20
ATOM     20  N   UNL     1      46.286 -35.166   9.125  0.00  0.00    -0.302 NA
ATOM     21  C   UNL     1      46.675 -36.246   8.112  0.00  0.00    +0.066 C 
ATOM     22  C   UNL     1      47.133 -35.616   6.756  0.00  0.00    -0.064 C 
ATOM     23  N   UNL     1      48.303 -34.663   7.009  0.00  0.00    +0.379 N 
ATOM     24  C   UNL     1      48.773 -34.114   5.729  0.00  0.00    -0.096 C 
ATOM     25  H   UNL     1      49.136 -35.260   7.447  0.00  0.00    -0.082 HD
ATOM     26  C   UNL     1      47.925 -33.588   8.017  0.00  0.00    -0.064 C 
ATOM     27  C   UNL     1      47.444 -34.225   9.351  0.00  0.00    +0.066 C 
ENDBRANCH  19  20
ENDBRANCH  18  19
ENDBRANCH  14  15
ENDBRANCH  12  13
TORSDOF 6
ENDMDL
MODEL 3
REMARK VINA RESULT:      -9.3     11.514     14.527
REMARK  Name = C:\Users\Docking\Desktop\test protocol\1iep_ligandH.pdb
REMARK  8 active torsions:
REMARK  status: ('A' for Active; 'I' for Inactive)
REMARK    1  A    between atoms: _5  and  _11
REMARK    2  A    between atoms: _19  and  _21
REMARK    3  A    between atoms: _22  and  _66
REMARK    4  A    between atoms: _27  and  _30
REMARK    5  A    between atoms: _32  and  _33
REMARK    6  A    between atoms: _38  and  _43
REMARK    7  A    between atoms: _43  and  _46
REMARK    8  A    between atoms: _53  and  _55
REMARK                            x       y       z     vdW  Elec       q    Type
REMARK                         _______ _______ _______ _____ _____    ______ ____
ROOT
ATOM     10  C   UNL     1      53.796 -36.065   2.459  0.00  0.00    +0.038 A 
ATOM     11  C   UNL     1      54.008 -36.222   3.852  0.00  0.00    +0.047 A 
ATOM     12  C   UNL     1      55.319 -36.566   4.380  0.00  0.00    +0.035 A 
ATOM     32  C   UNL     1      56.394 -36.739   3.460  0.00  0.00    +0.024 A 
ATOM     33  C   UNL     1      56.196 -36.583   2.040  0.00  0.00    +0.007 A 
ATOM     34  C   UNL     1      54.904 -36.247   1.513  0.00  0.00    -0.029 A 
ATOM     35  C   UNL     1      54.748 -36.100  -0.018  0.00  0.00    +0.045 C 
ENDROOT
BRANCH  10   9
ATOM      4  C   UNL     1      49.998 -33.136   2.274  0.00  0.00    +0.077 A 
ATOM      5  C   UNL     1      50.603 -32.198   3.175  0.00  0.00    +0.048 A 
ATOM      6  C   UNL     1      51.889 -32.510   3.669  0.00  0.00    +0.116 A 
ATOM      7  N   UNL     1      52.515 -33.676   3.283  0.00  0.00    -0.223 NA
ATOM      8  C   UNL     1      51.903 -34.560   2.414  0.00  0.00    +0.220 A 
ATOM      9  N   UNL     1      52.516 -35.734   2.007  0.00  0.00    -0.283 N 
ATOM     36  H   UNL     1      52.028 -36.364   1.371  0.00  0.00    +0.155 HD
ATOM     37  N   UNL     1      50.673 -34.286   1.930  0.00  0.00    -0.214 NA
BRANCH   4   3
ATOM      1  C   UNL     1      46.697 -31.513   0.945  0.00  0.00    +0.020 A 
ATOM      2  C   UNL     1      48.006 -31.642   1.542  0.00  0.00    +0.013 A 
ATOM      3  C   UNL     1      48.643 -32.946   1.665  0.00  0.00    +0.019 A 
ATOM     38  C   UNL     1      47.924 -34.110   1.170  0.00  0.00    +0.120 A 
ATOM     39  N   UNL     1      46.663 -33.956   0.601  0.00  0.00    -0.263 NA
ATOM     40  C   UNL     1      46.039 -32.705   0.479  0.00  0.00    +0.111 A 
ENDBRANCH   4   3
ENDBRANCH  10   9
BRANCH  12  13
ATOM     13  N   UNL     1      55.593 -36.747   5.784  0.00  0.00    -0.281 N 
ATOM     14  C   UNL     1      56.651 -37.426   6.365  0.00  0.00    +0.248 C 
ATOM     30  O   UNL     1      57.412 -38.167   5.761  0.00  0.00    -0.270 OA
ATOM     31  H   UNL     1      54.925 -36.322   6.428  0.00  0.00    +0.155 HD
BRANCH  14  15
ATOM     15  C   UNL     1      56.890 -37.271   7.832  0.00  0.00    +0.037 A 
ATOM     16  C   UNL     1      56.194 -36.244   8.612  0.00  0.00    +0.013 A 
ATOM     17  C   UNL     1      56.456 -36.105  10.022  0.00  0.00    +0.005 A 
ATOM     18  C   UNL     1      57.419 -36.998  10.663  0.00  0.00    -0.033 A 
ATOM     28  C   UNL     1      58.092 -38.011   9.867  0.00  0.00    +0.005 A 
ATOM     29  C   UNL     1      57.838 -38.150   8.484  0.00  0.00    +0.013 A 
BRANCH  18  19
ATOM     19  C   UNL     1      57.776 -36.907  12.159  0.00  0.00    +0.119 C 
BRANCH  19  20
ATOM     20  N   UNL     1      56.856 -36.124  13.035  0.00  0.00    -0.302 NA
ATOM     21  C   UNL     1      55.388 -36.491  12.801  0.00  0.00    +0.066 C 
ATOM     22  C   UNL     1      54.440 -35.678  13.742  0.00  0.00    -0.064 C 
ATOM     23  N   UNL     1      54.666 -34.182  13.520  0.00  0.00    +0.379 N 
ATOM     24  C   UNL     1      53.736 -33.415  14.361  0.00  0.00    -0.096 C 
ATOM     25  H   UNL     1      54.422 -33.958  12.455  0.00  0.00    -0.082 HD
ATOM     26  C   UNL     1      56.124 -33.808  13.748  0.00  0.00    -0.064 C 
ATOM     27  C   UNL     1      57.059 -34.643  12.829  0.00  0.00    +0.066 C 
ENDBRANCH  19  20
ENDBRANCH  18  19
ENDBRANCH  14  15
ENDBRANCH  12  13
TORSDOF 6
ENDMDL
MODEL 4
REMARK VINA RESULT:      -9.1      5.591     12.103
REMARK  Name = C:\Users\Docking\Desktop\test protocol\1iep_ligandH.pdb
REMARK  8 active torsions:
REMARK  status: ('A' for Active; 'I' for Inactive)
REMARK    1  A    between atoms: _5  and  _11
REMARK    2  A    between atoms: _19  and  _21
REMARK    3  A    between atoms: _22  and  _66
REMARK    4  A    between atoms: _27  and  _30
REMARK    5  A    between atoms: _32  and  _33
REMARK    6  A    between atoms: _38  and  _43
REMARK    7  A    between atoms: _43  and  _46
REMARK    8  A    between atoms: _53  and  _55
REMARK                            x       y       z     vdW  Elec       q    Type
REMARK                         _______ _______ _______ _____ _____    ______ ____
ROOT
ATOM     10  C   UNL     1      42.005 -40.174  10.904  0.00  0.00    +0.038 A 
ATOM     11  C   UNL     1      40.737 -40.787  11.071  0.00  0.00    +0.047 A 
ATOM     12  C   UNL     1      39.509 -40.014  10.976  0.00  0.00    +0.035 A 
ATOM     32  C   UNL     1      39.608 -38.618  10.705  0.00  0.00    +0.024 A 
ATOM     33  C   UNL     1      40.889 -37.978  10.534  0.00  0.00    +0.007 A 
ATOM     34  C   UNL     1      42.104 -38.736  10.629  0.00  0.00    -0.029 A 
ATOM     35  C   UNL     1      43.449 -37.996  10.443  0.00  0.00    +0.045 C 
ENDROOT
BRANCH  10   9
ATOM      4  C   UNL     1      44.967 -43.569   9.250  0.00  0.00    +0.077 A 
ATOM      5  C   UNL     1      44.146 -43.808   8.098  0.00  0.00    +0.048 A 
ATOM      6  C   UNL     1      42.966 -43.041   7.972  0.00  0.00    +0.116 A 
ATOM      7  N   UNL     1      42.642 -42.107   8.933  0.00  0.00    -0.223 NA
ATOM      8  C   UNL     1      43.455 -41.903  10.032  0.00  0.00    +0.220 A 
ATOM      9  N   UNL     1      43.152 -40.964  11.006  0.00  0.00    -0.283 N 
ATOM     36  H   UNL     1      43.774 -40.849  11.806  0.00  0.00    +0.155 HD
ATOM     37  N   UNL     1      44.586 -42.624  10.176  0.00  0.00    -0.214 NA
BRANCH   4   3
ATOM      1  C   UNL     1      48.299 -44.769  10.910  0.00  0.00    +0.020 A 
ATOM      2  C   UNL     1      47.073 -44.037  10.694  0.00  0.00    +0.013 A 
ATOM      3  C   UNL     1      46.247 -44.298   9.522  0.00  0.00    +0.019 A 
ATOM     38  C   UNL     1      46.694 -45.313   8.581  0.00  0.00    +0.120 A 
ATOM     39  N   UNL     1      47.880 -46.001   8.814  0.00  0.00    -0.263 NA
ATOM     40  C   UNL     1      48.684 -45.758   9.938  0.00  0.00    +0.111 A 
ENDBRANCH   4   3
ENDBRANCH  10   9
BRANCH  12  13
ATOM     13  N   UNL     1      38.194 -40.581  11.144  0.00  0.00    -0.281 N 
ATOM     14  C   UNL     1      37.840 -41.920  11.168  0.00  0.00    +0.248 C 
ATOM     30  O   UNL     1      38.577 -42.836  10.833  0.00  0.00    -0.270 OA
ATOM     31  H   UNL     1      37.431 -39.914  11.260  0.00  0.00    +0.155 HD
BRANCH  14  15
ATOM     15  C   UNL     1      36.464 -42.296  11.616  0.00  0.00    +0.037 A 
ATOM     16  C   UNL     1      36.103 -43.692  11.872  0.00  0.00    +0.013 A 
ATOM     17  C   UNL     1      34.764 -44.029  12.286  0.00  0.00    +0.005 A 
ATOM     18  C   UNL     1      33.776 -42.965  12.449  0.00  0.00    -0.033 A 
ATOM     28  C   UNL     1      34.163 -41.587  12.193  0.00  0.00    +0.005 A 
ATOM     29  C   UNL     1      35.474 -41.254  11.786  0.00  0.00    +0.013 A 
BRANCH  18  19
ATOM     19  C   UNL     1      32.318 -43.234  12.867  0.00  0.00    +0.119 C 
BRANCH  19  20
ATOM     20  N   UNL     1      31.299 -42.209  12.493  0.00  0.00    -0.302 NA
ATOM     21  C   UNL     1      30.201 -42.077  13.552  0.00  0.00    +0.066 C 
ATOM     22  C   UNL     1      29.156 -40.984  13.156  0.00  0.00    -0.064 C 
ATOM     23  N   UNL     1      28.554 -41.329  11.792  0.00  0.00    +0.379 N 
ATOM     24  C   UNL     1      27.529 -40.334  11.443  0.00  0.00    -0.096 C 
ATOM     25  H   UNL     1      28.049 -42.318  11.886  0.00  0.00    -0.082 HD
ATOM     26  C   UNL     1      29.640 -41.464  10.734  0.00  0.00    -0.064 C 
ATOM     27  C   UNL     1      30.689 -42.532  11.151  0.00  0.00    +0.066 C 
ENDBRANCH  19  20
ENDBRANCH  18  19
ENDBRANCH  14  15
ENDBRANCH  12  13
TORSDOF 6
ENDMDL
MODEL 5
REMARK VINA RESULT:      -8.9      5.175     12.930
REMARK  Name = C:\Users\Docking\Desktop\test protocol\1iep_ligandH.pdb
REMARK  8 active torsions:
REMARK  status: ('A' for Active; 'I' for Inactive)
REMARK    1  A    between atoms: _5  and  _11
REMARK    2  A    between atoms: _19  and  _21
REMARK    3  A    between atoms: _22  and  _66
REMARK    4  A    between atoms: _27  and  _30
REMARK    5  A    between atoms: _32  and  _33
REMARK    6  A    between atoms: _38  and  _43
REMARK    7  A    between atoms: _43  and  _46
REMARK    8  A    between atoms: _53  and  _55
REMARK                            x       y       z     vdW  Elec       q    Type
REMARK                         _______ _______ _______ _____ _____    ______ ____
ROOT
ATOM     10  C   UNL     1      51.849 -34.643   2.926  0.00  0.00    +0.038 A 
ATOM     11  C   UNL     1      51.043 -35.030   4.027  0.00  0.00    +0.047 A 
ATOM     12  C   UNL     1      50.352 -34.039   4.838  0.00  0.00    +0.035 A 
ATOM     32  C   UNL     1      50.502 -32.663   4.497  0.00  0.00    +0.024 A 
ATOM     33  C   UNL     1      51.318 -32.253   3.381  0.00  0.00    +0.007 A 
ATOM     34  C   UNL     1      52.005 -33.225   2.580  0.00  0.00    -0.029 A 
ATOM     35  C   UNL     1      52.871 -32.728   1.400  0.00  0.00    +0.045 C 
ENDROOT
BRANCH  10   9
ATOM      4  C   UNL     1      55.555 -37.576   2.086  0.00  0.00    +0.077 A 
ATOM      5  C   UNL     1      56.288 -37.068   3.210  0.00  0.00    +0.048 A 
ATOM      6  C   UNL     1      55.679 -36.048   3.974  0.00  0.00    +0.116 A 
ATOM      7  N   UNL     1      54.430 -35.578   3.631  0.00  0.00    -0.223 NA
ATOM      8  C   UNL     1      53.751 -36.088   2.540  0.00  0.00    +0.220 A 
ATOM      9  N   UNL     1      52.490 -35.636   2.181  0.00  0.00    -0.283 N 
ATOM     36  H   UNL     1      52.026 -36.033   1.365  0.00  0.00    +0.155 HD
ATOM     37  N   UNL     1      54.311 -37.062   1.793  0.00  0.00    -0.214 NA
BRANCH   4   3
ATOM      1  C   UNL     1      57.073 -40.931   0.768  0.00  0.00    +0.020 A 
ATOM      2  C   UNL     1      56.595 -39.920   1.682  0.00  0.00    +0.013 A 
ATOM      3  C   UNL     1      56.064 -38.657   1.184  0.00  0.00    +0.019 A 
ATOM     38  C   UNL     1      56.028 -38.449  -0.256  0.00  0.00    +0.120 A 
ATOM     39  N   UNL     1      56.497 -39.441  -1.112  0.00  0.00    -0.263 NA
ATOM     40  C   UNL     1      57.013 -40.659  -0.644  0.00  0.00    +0.111 A 
ENDBRANCH   4   3
ENDBRANCH  10   9
BRANCH  12  13
ATOM     13  N   UNL     1      49.527 -34.371   5.972  0.00  0.00    -0.281 N 
ATOM     14  C   UNL     1      48.144 -34.347   6.056  0.00  0.00    +0.248 C 
ATOM     30  O   UNL     1      47.411 -33.828   5.228  0.00  0.00    -0.270 OA
ATOM     31  H   UNL     1      50.022 -34.659   6.817  0.00  0.00    +0.155 HD
BRANCH  14  15
ATOM     15  C   UNL     1      47.481 -34.978   7.237  0.00  0.00    +0.037 A 
ATOM     16  C   UNL     1      47.556 -34.368   8.567  0.00  0.00    +0.013 A 
ATOM     17  C   UNL     1      46.922 -35.006   9.693  0.00  0.00    +0.005 A 
ATOM     18  C   UNL     1      46.205 -36.263   9.493  0.00  0.00    -0.033 A 
ATOM     28  C   UNL     1      46.142 -36.845   8.163  0.00  0.00    +0.005 A 
ATOM     29  C   UNL     1      46.763 -36.222   7.057  0.00  0.00    +0.013 A 
BRANCH  18  19
ATOM     19  C   UNL     1      45.517 -37.025  10.641  0.00  0.00    +0.119 C 
BRANCH  19  20
ATOM     20  N   UNL     1      44.544 -38.094  10.266  0.00  0.00    -0.302 NA
ATOM     21  C   UNL     1      43.203 -37.929  10.987  0.00  0.00    +0.066 C 
ATOM     22  C   UNL     1      42.189 -39.042  10.566  0.00  0.00    -0.064 C 
ATOM     23  N   UNL     1      42.795 -40.417  10.856  0.00  0.00    +0.379 N 
ATOM     24  C   UNL     1      41.822 -41.464  10.515  0.00  0.00    -0.096 C 
ATOM     25  H   UNL     1      42.987 -40.477  11.953  0.00  0.00    -0.082 HD
ATOM     26  C   UNL     1      44.130 -40.588  10.145  0.00  0.00    -0.064 C 
ATOM     27  C   UNL     1      45.120 -39.459  10.548  0.00  0.00    +0.066 C 
ENDBRANCH  19  20
ENDBRANCH  18  19
ENDBRANCH  14  15
ENDBRANCH  12  13
TORSDOF 6
ENDMDL
