MODEL 1
REMARK VINA RESULT:     -12.1      0.000      0.000
REMARK  Name = C:\Users\Docking\Desktop\test protocol\1iep_ligandH.pdb
REMARK  8 active torsions:
REMARK  status: ('A' for Active; 'I' for Inactive)
REMARK    1  A    between atoms: _5  and  _11
REMARK    2  A    between atoms: _19  and  _21
REMARK    3  A    between atoms: _22  and  _66
REMARK    4  A    between atoms: _27  and  _30
REMARK    5  A    between atoms: _32  and  _33
REMARK    6  A    between atoms: _38  and  _43
REMARK    7  A    between atoms: _43  and  _46
REMARK    8  A    between atoms: _53  and  _55
REMARK                            x       y       z     vdW  Elec       q    Type
REMARK                         _______ _______ _______ _____ _____    ______ ____
ROOT
ATOM     10  C   UNL     1      22.820  20.959  26.560  0.00  0.00    +0.038 A 
ATOM     11  C   UNL     1      21.911  19.981  26.081  0.00  0.00    +0.047 A 
ATOM     12  C   UNL     1      20.562  19.881  26.617  0.00  0.00    +0.035 A 
ATOM     32  C   UNL     1      20.171  20.796  27.638  0.00  0.00    +0.024 A 
ATOM     33  C   UNL     1      21.082  21.796  28.136  0.00  0.00    +0.007 A 
ATOM     34  C   UNL     1      22.415  21.898  27.614  0.00  0.00    -0.029 A 
ATOM     35  C   UNL     1      23.352  22.985  28.190  0.00  0.00    +0.045 C 
ENDROOT
BRANCH  10   9
ATOM      4  C   UNL     1      25.998  22.641  23.381  0.00  0.00    +0.077 A 
ATOM      5  C   UNL     1      25.014  23.469  22.745  0.00  0.00    +0.048 A 
ATOM      6  C   UNL     1      23.699  23.427  23.262  0.00  0.00    +0.116 A 
ATOM      7  N   UNL     1      23.403  22.615  24.336  0.00  0.00    -0.223 NA
ATOM      8  C   UNL     1      24.376  21.828  24.924  0.00  0.00    +0.220 A 
ATOM      9  N   UNL     1      24.102  21.010  26.010  0.00  0.00    -0.283 N 
ATOM     36  H   UNL     1      24.846  20.440  26.411  0.00  0.00    +0.155 HD
ATOM     37  N   UNL     1      25.639  21.849  24.448  0.00  0.00    -0.214 NA
BRANCH   4   3
ATOM      1  C   UNL     1      29.880  22.159  23.390  0.00  0.00    +0.020 A 
ATOM      2  C   UNL     1      28.513  22.205  23.855  0.00  0.00    +0.013 A 
ATOM      3  C   UNL     1      27.431  22.578  22.952  0.00  0.00    +0.019 A 
ATOM     38  C   UNL     1      27.770  22.901  21.574  0.00  0.00    +0.120 A 
ATOM     39  N   UNL     1      29.095  22.849  21.155  0.00  0.00    -0.263 NA
ATOM     40  C   UNL     1      30.145  22.494  22.015  0.00  0.00    +0.111 A 
ENDBRANCH   4   3
ENDBRANCH  10   9
BRANCH  12  13
ATOM     13  N   UNL     1      19.598  18.904  26.176  0.00  0.00    -0.281 N 
ATOM     14  C   UNL     1      19.031  18.774  24.919  0.00  0.00    +0.248 C 
ATOM     30  O   UNL     1      19.106  19.616  24.037  0.00  0.00    -0.270 OA
ATOM     31  H   UNL     1      19.298  18.225  26.876  0.00  0.00    +0.155 HD
BRANCH  14  15
ATOM     15  C   UNL     1      18.255  17.536  24.602  0.00  0.00    +0.037 A 
ATOM     16  C   UNL     1      18.887  16.215  24.631  0.00  0.00    +0.013 A 
ATOM     17  C   UNL     1      18.120  15.039  24.304  0.00  0.00    +0.005 A 
ATOM     18  C   UNL     1      16.710  15.180  23.946  0.00  0.00    -0.033 A 
ATOM     28  C   UNL     1      16.107  16.503  23.930  0.00  0.00    +0.005 A 
ATOM     29  C   UNL     1      16.856  17.657  24.249  0.00  0.00    +0.013 A 
BRANCH  18  19
ATOM     19  C   UNL     1      15.821  13.983  23.562  0.00  0.00    +0.119 C 
BRANCH  19  20
ATOM     20  N   UNL     1      15.549  12.965  24.621  0.00  0.00    -0.302 NA
ATOM     21  C   UNL     1      16.560  11.816  24.587  0.00  0.00    +0.066 C 
ATOM     22  C   UNL     1      16.275  10.773  25.716  0.00  0.00    -0.064 C 
ATOM     23  N   UNL     1      14.847  10.243  25.567  0.00  0.00    +0.379 N 
ATOM     24  C   UNL     1      14.595   9.219  26.592  0.00  0.00    -0.096 C 
ATOM     25  H   UNL     1      14.772   9.750  24.570  0.00  0.00    -0.082 HD
ATOM     26  C   UNL     1      13.836  11.380  25.598  0.00  0.00    -0.064 C 
ATOM     27  C   UNL     1      14.146  12.426  24.491  0.00  0.00    +0.066 C 
ENDBRANCH  19  20
ENDBRANCH  18  19
ENDBRANCH  14  15
ENDBRANCH  12  13
TORSDOF 6
ENDMDL
MODEL 2
REMARK VINA RESULT:     -11.3      1.973      2.616
REMARK  Name = C:\Users\Docking\Desktop\test protocol\1iep_ligandH.pdb
REMARK  8 active torsions:
REMARK  status: ('A' for Active; 'I' for Inactive)
REMARK    1  A    between atoms: _5  and  _11
REMARK    2  A    between atoms: _19  and  _21
REMARK    3  A    between atoms: _22  and  _66
REMARK    4  A    between atoms: _27  and  _30
REMARK    5  A    between atoms: _32  and  _33
REMARK    6  A    between atoms: _38  and  _43
REMARK    7  A    between atoms: _43  and  _46
REMARK    8  A    between atoms: _53  and  _55
REMARK                            x       y       z     vdW  Elec       q    Type
REMARK                         _______ _______ _______ _____ _____    ______ ____
ROOT
ATOM     10  C   UNL     1      23.194  22.083  24.079  0.00  0.00    +0.038 A 
ATOM     11  C   UNL     1      22.637  20.781  24.006  0.00  0.00    +0.047 A 
ATOM     12  C   UNL     1      21.265  20.573  23.570  0.00  0.00    +0.035 A 
ATOM     32  C   UNL     1      20.490  21.714  23.212  0.00  0.00    +0.024 A 
ATOM     33  C   UNL     1      21.039  23.045  23.281  0.00  0.00    +0.007 A 
ATOM     34  C   UNL     1      22.391  23.257  23.713  0.00  0.00    -0.029 A 
ATOM     35  C   UNL     1      22.926  24.706  23.774  0.00  0.00    +0.045 C 
ENDROOT
BRANCH  10   9
ATOM      4  C   UNL     1      27.917  22.244  23.239  0.00  0.00    +0.077 A 
ATOM      5  C   UNL     1      27.736  21.998  21.837  0.00  0.00    +0.048 A 
ATOM      6  C   UNL     1      26.412  21.828  21.374  0.00  0.00    +0.116 A 
ATOM      7  N   UNL     1      25.355  21.902  22.255  0.00  0.00    -0.223 NA
ATOM      8  C   UNL     1      25.565  22.139  23.601  0.00  0.00    +0.220 A 
ATOM      9  N   UNL     1      24.517  22.225  24.505  0.00  0.00    -0.283 N 
ATOM     36  H   UNL     1      24.713  22.395  25.491  0.00  0.00    +0.155 HD
ATOM     37  N   UNL     1      26.820  22.303  24.069  0.00  0.00    -0.214 NA
BRANCH   4   3
ATOM      1  C   UNL     1      31.499  23.587  24.057  0.00  0.00    +0.020 A 
ATOM      2  C   UNL     1      30.221  23.429  23.402  0.00  0.00    +0.013 A 
ATOM      3  C   UNL     1      29.255  22.448  23.879  0.00  0.00    +0.019 A 
ATOM     38  C   UNL     1      29.616  21.635  25.031  0.00  0.00    +0.120 A 
ATOM     39  N   UNL     1      30.855  21.808  25.641  0.00  0.00    -0.263 NA
ATOM     40  C   UNL     1      31.793  22.748  25.189  0.00  0.00    +0.111 A 
ENDBRANCH   4   3
ENDBRANCH  10   9
BRANCH  12  13
ATOM     13  N   UNL     1      20.643  19.275  23.484  0.00  0.00    -0.281 N 
ATOM     14  C   UNL     1      19.707  18.721  24.341  0.00  0.00    +0.248 C 
ATOM     30  O   UNL     1      19.419  19.177  25.438  0.00  0.00    -0.270 OA
ATOM     31  H   UNL     1      20.928  18.694  22.695  0.00  0.00    +0.155 HD
BRANCH  14  15
ATOM     15  C   UNL     1      18.998  17.472  23.926  0.00  0.00    +0.037 A 
ATOM     16  C   UNL     1      19.439  16.699  22.763  0.00  0.00    +0.013 A 
ATOM     17  C   UNL     1      18.727  15.507  22.374  0.00  0.00    +0.005 A 
ATOM     18  C   UNL     1      17.566  15.081  23.152  0.00  0.00    -0.033 A 
ATOM     28  C   UNL     1      17.153  15.864  24.305  0.00  0.00    +0.005 A 
ATOM     29  C   UNL     1      17.848  17.033  24.688  0.00  0.00    +0.013 A 
BRANCH  18  19
ATOM     19  C   UNL     1      16.734  13.834  22.798  0.00  0.00    +0.119 C 
BRANCH  19  20
ATOM     20  N   UNL     1      16.136  13.067  23.931  0.00  0.00    -0.302 NA
ATOM     21  C   UNL     1      17.025  11.899  24.367  0.00  0.00    +0.066 C 
ATOM     22  C   UNL     1      16.396  11.121  25.568  0.00  0.00    -0.064 C 
ATOM     23  N   UNL     1      15.003  10.623  25.176  0.00  0.00    +0.379 N 
ATOM     24  C   UNL     1      14.432   9.842  26.282  0.00  0.00    -0.096 C 
ATOM     25  H   UNL     1      15.123   9.939  24.304  0.00  0.00    -0.082 HD
ATOM     26  C   UNL     1      14.113  11.778  24.738  0.00  0.00    -0.064 C 
ATOM     27  C   UNL     1      14.762  12.562  23.564  0.00  0.00    +0.066 C 
ENDBRANCH  19  20
ENDBRANCH  18  19
ENDBRANCH  14  15
ENDBRANCH  12  13
TORSDOF 6
ENDMDL
MODEL 3
REMARK VINA RESULT:     -10.1      4.802     13.151
REMARK  Name = C:\Users\Docking\Desktop\test protocol\1iep_ligandH.pdb
REMARK  8 active torsions:
REMARK  status: ('A' for Active; 'I' for Inactive)
REMARK    1  A    between atoms: _5  and  _11
REMARK    2  A    between atoms: _19  and  _21
REMARK    3  A    between atoms: _22  and  _66
REMARK    4  A    between atoms: _27  and  _30
REMARK    5  A    between atoms: _32  and  _33
REMARK    6  A    between atoms: _38  and  _43
REMARK    7  A    between atoms: _43  and  _46
REMARK    8  A    between atoms: _53  and  _55
REMARK                            x       y       z     vdW  Elec       q    Type
REMARK                         _______ _______ _______ _____ _____    ______ ____
ROOT
ATOM     10  C   UNL     1      20.621  18.329  23.604  0.00  0.00    +0.038 A 
ATOM     11  C   UNL     1      21.472  18.271  22.471  0.00  0.00    +0.047 A 
ATOM     12  C   UNL     1      22.770  18.927  22.470  0.00  0.00    +0.035 A 
ATOM     32  C   UNL     1      23.172  19.631  23.642  0.00  0.00    +0.024 A 
ATOM     33  C   UNL     1      22.320  19.701  24.803  0.00  0.00    +0.007 A 
ATOM     34  C   UNL     1      21.037  19.058  24.809  0.00  0.00    -0.029 A 
ATOM     35  C   UNL     1      20.162  19.171  26.079  0.00  0.00    +0.045 C 
ENDROOT
BRANCH  10   9
ATOM      4  C   UNL     1      17.929  14.363  23.351  0.00  0.00    +0.077 A 
ATOM      5  C   UNL     1      19.082  13.512  23.293  0.00  0.00    +0.048 A 
ATOM      6  C   UNL     1      20.350  14.135  23.324  0.00  0.00    +0.116 A 
ATOM      7  N   UNL     1      20.445  15.508  23.407  0.00  0.00    -0.223 NA
ATOM      8  C   UNL     1      19.313  16.299  23.459  0.00  0.00    +0.220 A 
ATOM      9  N   UNL     1      19.385  17.681  23.551  0.00  0.00    -0.283 N 
ATOM     36  H   UNL     1      18.526  18.230  23.579  0.00  0.00    +0.155 HD
ATOM     37  N   UNL     1      18.091  15.729  23.429  0.00  0.00    -0.214 NA
BRANCH   4   3
ATOM      1  C   UNL     1      14.278  13.526  22.224  0.00  0.00    +0.020 A 
ATOM      2  C   UNL     1      15.629  14.037  22.192  0.00  0.00    +0.013 A 
ATOM      3  C   UNL     1      16.521  13.855  23.330  0.00  0.00    +0.019 A 
ATOM     38  C   UNL     1      16.011  13.144  24.493  0.00  0.00    +0.120 A 
ATOM     39  N   UNL     1      14.705  12.664  24.496  0.00  0.00    -0.263 NA
ATOM     40  C   UNL     1      13.837  12.835  23.407  0.00  0.00    +0.111 A 
ENDBRANCH   4   3
ENDBRANCH  10   9
BRANCH  12  13
ATOM     13  N   UNL     1      23.673  18.909  21.345  0.00  0.00    -0.281 N 
ATOM     14  C   UNL     1      23.653  18.060  20.251  0.00  0.00    +0.248 C 
ATOM     30  O   UNL     1      22.980  17.043  20.177  0.00  0.00    -0.270 OA
ATOM     31  H   UNL     1      24.416  19.607  21.358  0.00  0.00    +0.155 HD
BRANCH  14  15
ATOM     15  C   UNL     1      24.517  18.380  19.074  0.00  0.00    +0.037 A 
ATOM     16  C   UNL     1      25.525  19.441  19.137  0.00  0.00    +0.013 A 
ATOM     17  C   UNL     1      26.333  19.740  17.982  0.00  0.00    +0.005 A 
ATOM     18  C   UNL     1      26.138  18.974  16.753  0.00  0.00    -0.033 A 
ATOM     28  C   UNL     1      25.135  17.923  16.720  0.00  0.00    +0.005 A 
ATOM     29  C   UNL     1      24.340  17.628  17.850  0.00  0.00    +0.013 A 
BRANCH  18  19
ATOM     19  C   UNL     1      26.941  19.239  15.466  0.00  0.00    +0.119 C 
BRANCH  19  20
ATOM     20  N   UNL     1      28.320  19.790  15.621  0.00  0.00    -0.302 NA
ATOM     21  C   UNL     1      28.403  21.259  15.197  0.00  0.00    +0.066 C 
ATOM     22  C   UNL     1      29.847  21.826  15.388  0.00  0.00    -0.064 C 
ATOM     23  N   UNL     1      30.836  20.975  14.588  0.00  0.00    +0.379 N 
ATOM     24  C   UNL     1      32.187  21.540  14.719  0.00  0.00    -0.096 C 
ATOM     25  H   UNL     1      30.545  21.039  13.514  0.00  0.00    -0.082 HD
ATOM     26  C   UNL     1      30.758  19.513  15.002  0.00  0.00    -0.064 C 
ATOM     27  C   UNL     1      29.312  18.967  14.837  0.00  0.00    +0.066 C 
ENDBRANCH  19  20
ENDBRANCH  18  19
ENDBRANCH  14  15
ENDBRANCH  12  13
TORSDOF 6
ENDMDL
MODEL 4
REMARK VINA RESULT:     -10.0      4.148      5.056
REMARK  Name = C:\Users\Docking\Desktop\test protocol\1iep_ligandH.pdb
REMARK  8 active torsions:
REMARK  status: ('A' for Active; 'I' for Inactive)
REMARK    1  A    between atoms: _5  and  _11
REMARK    2  A    between atoms: _19  and  _21
REMARK    3  A    between atoms: _22  and  _66
REMARK    4  A    between atoms: _27  and  _30
REMARK    5  A    between atoms: _32  and  _33
REMARK    6  A    between atoms: _38  and  _43
REMARK    7  A    between atoms: _43  and  _46
REMARK    8  A    between atoms: _53  and  _55
REMARK                            x       y       z     vdW  Elec       q    Type
REMARK                         _______ _______ _______ _____ _____    ______ ____
ROOT
ATOM     10  C   UNL     1      24.245  21.082  21.585  0.00  0.00    +0.038 A 
ATOM     11  C   UNL     1      23.160  20.168  21.594  0.00  0.00    +0.047 A 
ATOM     12  C   UNL     1      22.305  20.027  22.761  0.00  0.00    +0.035 A 
ATOM     32  C   UNL     1      22.580  20.835  23.902  0.00  0.00    +0.024 A 
ATOM     33  C   UNL     1      23.679  21.769  23.911  0.00  0.00    +0.007 A 
ATOM     34  C   UNL     1      24.528  21.911  22.763  0.00  0.00    -0.029 A 
ATOM     35  C   UNL     1      25.695  22.923  22.831  0.00  0.00    +0.045 C 
ENDROOT
BRANCH  10   9
ATOM      4  C   UNL     1      26.034  19.269  17.517  0.00  0.00    +0.077 A 
ATOM      5  C   UNL     1      25.360  18.017  17.709  0.00  0.00    +0.048 A 
ATOM      6  C   UNL     1      24.568  17.878  18.871  0.00  0.00    +0.116 A 
ATOM      7  N   UNL     1      24.465  18.920  19.767  0.00  0.00    -0.223 NA
ATOM      8  C   UNL     1      25.130  20.113  19.553  0.00  0.00    +0.220 A 
ATOM      9  N   UNL     1      25.034  21.177  20.436  0.00  0.00    -0.283 N 
ATOM     36  H   UNL     1      25.546  22.038  20.246  0.00  0.00    +0.155 HD
ATOM     37  N   UNL     1      25.893  20.270  18.451  0.00  0.00    -0.214 NA
BRANCH   4   3
ATOM      1  C   UNL     1      27.854  19.029  14.063  0.00  0.00    +0.020 A 
ATOM      2  C   UNL     1      26.998  18.691  15.177  0.00  0.00    +0.013 A 
ATOM      3  C   UNL     1      26.904  19.569  16.336  0.00  0.00    +0.019 A 
ATOM     38  C   UNL     1      27.694  20.791  16.337  0.00  0.00    +0.120 A 
ATOM     39  N   UNL     1      28.511  21.089  15.250  0.00  0.00    -0.263 NA
ATOM     40  C   UNL     1      28.610  20.251  14.129  0.00  0.00    +0.111 A 
ENDBRANCH   4   3
ENDBRANCH  10   9
BRANCH  12  13
ATOM     13  N   UNL     1      21.194  19.110  22.831  0.00  0.00    -0.281 N 
ATOM     14  C   UNL     1      21.216  17.733  22.681  0.00  0.00    +0.248 C 
ATOM     30  O   UNL     1      22.168  17.100  22.249  0.00  0.00    -0.270 OA
ATOM     31  H   UNL     1      20.281  19.526  23.014  0.00  0.00    +0.155 HD
BRANCH  14  15
ATOM     15  C   UNL     1      20.000  16.947  23.050  0.00  0.00    +0.037 A 
ATOM     16  C   UNL     1      19.461  15.917  22.158  0.00  0.00    +0.013 A 
ATOM     17  C   UNL     1      18.276  15.185  22.531  0.00  0.00    +0.005 A 
ATOM     18  C   UNL     1      17.623  15.480  23.804  0.00  0.00    -0.033 A 
ATOM     28  C   UNL     1      18.182  16.503  24.673  0.00  0.00    +0.005 A 
ATOM     29  C   UNL     1      19.343  17.223  24.310  0.00  0.00    +0.013 A 
BRANCH  18  19
ATOM     19  C   UNL     1      16.343  14.764  24.273  0.00  0.00    +0.119 C 
BRANCH  19  20
ATOM     20  N   UNL     1      16.512  13.478  25.014  0.00  0.00    -0.302 NA
ATOM     21  C   UNL     1      17.923  12.906  24.858  0.00  0.00    +0.066 C 
ATOM     22  C   UNL     1      18.089  11.572  25.657  0.00  0.00    -0.064 C 
ATOM     23  N   UNL     1      17.040  10.564  25.184  0.00  0.00    +0.379 N 
ATOM     24  C   UNL     1      17.230   9.290  25.893  0.00  0.00    -0.096 C 
ATOM     25  H   UNL     1      17.216  10.377  24.099  0.00  0.00    -0.082 HD
ATOM     26  C   UNL     1      15.634  11.126  25.333  0.00  0.00    -0.064 C 
ATOM     27  C   UNL     1      15.489  12.466  24.559  0.00  0.00    +0.066 C 
ENDBRANCH  19  20
ENDBRANCH  18  19
ENDBRANCH  14  15
ENDBRANCH  12  13
TORSDOF 6
ENDMDL
MODEL 5
REMARK VINA RESULT:      -9.8      6.661     13.469
REMARK  Name = C:\Users\Docking\Desktop\test protocol\1iep_ligandH.pdb
REMARK  8 active torsions:
REMARK  status: ('A' for Active; 'I' for Inactive)
REMARK    1  A    between atoms: _5  and  _11
REMARK    2  A    between atoms: _19  and  _21
REMARK    3  A    between atoms: _22  and  _66
REMARK    4  A    between atoms: _27  and  _30
REMARK    5  A    between atoms: _32  and  _33
REMARK    6  A    between atoms: _38  and  _43
REMARK    7  A    between atoms: _43  and  _46
REMARK    8  A    between atoms: _53  and  _55
REMARK                            x       y       z     vdW  Elec       q    Type
REMARK                         _______ _______ _______ _____ _____    ______ ____
ROOT
ATOM     10  C   UNL     1      20.686  17.021  22.110  0.00  0.00    +0.038 A 
ATOM     11  C   UNL     1      21.341  16.831  20.866  0.00  0.00    +0.047 A 
ATOM     12  C   UNL     1      22.604  17.491  20.573  0.00  0.00    +0.035 A 
ATOM     32  C   UNL     1      23.174  18.335  21.571  0.00  0.00    +0.024 A 
ATOM     33  C   UNL     1      22.521  18.539  22.840  0.00  0.00    +0.007 A 
ATOM     34  C   UNL     1      21.273  17.894  23.134  0.00  0.00    -0.029 A 
ATOM     35  C   UNL     1      20.615  18.155  24.508  0.00  0.00    +0.045 C 
ENDROOT
BRANCH  10   9
ATOM      4  C   UNL     1      18.136  13.286  23.717  0.00  0.00    +0.077 A 
ATOM      5  C   UNL     1      19.317  12.573  24.111  0.00  0.00    +0.048 A 
ATOM      6  C   UNL     1      20.561  13.200  23.876  0.00  0.00    +0.116 A 
ATOM      7  N   UNL     1      20.609  14.446  23.290  0.00  0.00    -0.223 NA
ATOM      8  C   UNL     1      19.451  15.106  22.921  0.00  0.00    +0.220 A 
ATOM      9  N   UNL     1      19.475  16.363  22.338  0.00  0.00    -0.283 N 
ATOM     36  H   UNL     1      18.600  16.813  22.074  0.00  0.00    +0.155 HD
ATOM     37  N   UNL     1      18.250  14.528  23.134  0.00  0.00    -0.214 NA
BRANCH   4   3
ATOM      1  C   UNL     1      14.240  12.937  23.692  0.00  0.00    +0.020 A 
ATOM      2  C   UNL     1      15.558  13.493  23.490  0.00  0.00    +0.013 A 
ATOM      3  C   UNL     1      16.747  12.758  23.903  0.00  0.00    +0.019 A 
ATOM     38  C   UNL     1      16.566  11.453  24.521  0.00  0.00    +0.120 A 
ATOM     39  N   UNL     1      15.284  10.944  24.703  0.00  0.00    -0.263 NA
ATOM     40  C   UNL     1      14.133  11.643  24.312  0.00  0.00    +0.111 A 
ENDBRANCH   4   3
ENDBRANCH  10   9
BRANCH  12  13
ATOM     13  N   UNL     1      23.312  17.342  19.325  0.00  0.00    -0.281 N 
ATOM     14  C   UNL     1      24.331  18.135  18.825  0.00  0.00    +0.248 C 
ATOM     30  O   UNL     1      24.646  19.225  19.280  0.00  0.00    -0.270 OA
ATOM     31  H   UNL     1      23.026  16.557  18.740  0.00  0.00    +0.155 HD
BRANCH  14  15
ATOM     15  C   UNL     1      25.103  17.656  17.638  0.00  0.00    +0.037 A 
ATOM     16  C   UNL     1      26.433  18.188  17.331  0.00  0.00    +0.013 A 
ATOM     17  C   UNL     1      27.149  17.720  16.171  0.00  0.00    +0.005 A 
ATOM     18  C   UNL     1      26.536  16.712  15.310  0.00  0.00    -0.033 A 
ATOM     28  C   UNL     1      25.218  16.197  15.641  0.00  0.00    +0.005 A 
ATOM     29  C   UNL     1      24.513  16.654  16.777  0.00  0.00    +0.013 A 
BRANCH  18  19
ATOM     19  C   UNL     1      27.219  16.170  14.039  0.00  0.00    +0.119 C 
BRANCH  19  20
ATOM     20  N   UNL     1      27.208  17.047  12.831  0.00  0.00    -0.302 NA
ATOM     21  C   UNL     1      28.255  18.161  12.919  0.00  0.00    +0.066 C 
ATOM     22  C   UNL     1      28.245  19.055  11.637  0.00  0.00    -0.064 C 
ATOM     23  N   UNL     1      26.846  19.641  11.438  0.00  0.00    +0.379 N 
ATOM     24  C   UNL     1      26.848  20.529  10.266  0.00  0.00    -0.096 C 
ATOM     25  H   UNL     1      26.610  20.263  12.333  0.00  0.00    -0.082 HD
ATOM     26  C   UNL     1      25.798  18.541  11.351  0.00  0.00    -0.064 C 
ATOM     27  C   UNL     1      25.837  17.640  12.618  0.00  0.00    +0.066 C 
ENDBRANCH  19  20
ENDBRANCH  18  19
ENDBRANCH  14  15
ENDBRANCH  12  13
TORSDOF 6
ENDMDL
