MODEL 1
REMARK VINA RESULT:     -11.8      0.000      0.000
REMARK  Name = C:\Users\Docking\Desktop\test protocol\1iep_ligandH.pdb
REMARK  8 active torsions:
REMARK  status: ('A' for Active; 'I' for Inactive)
REMARK    1  A    between atoms: _5  and  _11
REMARK    2  A    between atoms: _19  and  _21
REMARK    3  A    between atoms: _22  and  _66
REMARK    4  A    between atoms: _27  and  _30
REMARK    5  A    between atoms: _32  and  _33
REMARK    6  A    between atoms: _38  and  _43
REMARK    7  A    between atoms: _43  and  _46
REMARK    8  A    between atoms: _53  and  _55
REMARK                            x       y       z     vdW  Elec       q    Type
REMARK                         _______ _______ _______ _____ _____    ______ ____
ROOT
ATOM     10  C   UNL     1      23.514  21.650  27.036  0.00  0.00    +0.038 A 
ATOM     11  C   UNL     1      22.544  20.827  26.409  0.00  0.00    +0.047 A 
ATOM     12  C   UNL     1      21.151  20.854  26.826  0.00  0.00    +0.035 A 
ATOM     32  C   UNL     1      20.780  21.733  27.885  0.00  0.00    +0.024 A 
ATOM     33  C   UNL     1      21.753  22.576  28.534  0.00  0.00    +0.007 A 
ATOM     34  C   UNL     1      23.129  22.552  28.128  0.00  0.00    -0.029 A 
ATOM     35  C   UNL     1      24.130  23.473  28.864  0.00  0.00    +0.045 C 
ENDROOT
BRANCH  10   9
ATOM      4  C   UNL     1      26.937  22.494  23.778  0.00  0.00    +0.077 A 
ATOM      5  C   UNL     1      26.005  23.093  22.867  0.00  0.00    +0.048 A 
ATOM      6  C   UNL     1      24.652  23.158  23.272  0.00  0.00    +0.116 A 
ATOM      7  N   UNL     1      24.272  22.658  24.498  0.00  0.00    -0.223 NA
ATOM      8  C   UNL     1      25.196  22.086  25.353  0.00  0.00    +0.220 A 
ATOM      9  N   UNL     1      24.837  21.584  26.595  0.00  0.00    -0.283 N 
ATOM     36  H   UNL     1      25.548  21.163  27.193  0.00  0.00    +0.155 HD
ATOM     37  N   UNL     1      26.493  22.010  24.989  0.00  0.00    -0.214 NA
BRANCH   4   3
ATOM      1  C   UNL     1      30.783  21.923  24.203  0.00  0.00    +0.020 A 
ATOM      2  C   UNL     1      29.381  22.047  24.529  0.00  0.00    +0.013 A 
ATOM      3  C   UNL     1      28.400  22.355  23.496  0.00  0.00    +0.019 A 
ATOM     38  C   UNL     1      28.875  22.532  22.132  0.00  0.00    +0.120 A 
ATOM     39  N   UNL     1      30.232  22.409  21.848  0.00  0.00    -0.263 NA
ATOM     40  C   UNL     1      31.185  22.114  22.835  0.00  0.00    +0.111 A 
ENDBRANCH   4   3
ENDBRANCH  10   9
BRANCH  12  13
ATOM     13  N   UNL     1      20.123  20.035  26.232  0.00  0.00    -0.281 N 
ATOM     14  C   UNL     1      19.691  20.032  24.916  0.00  0.00    +0.248 C 
ATOM     30  O   UNL     1      19.978  20.889  24.093  0.00  0.00    -0.270 OA
ATOM     31  H   UNL     1      19.658  19.377  26.858  0.00  0.00    +0.155 HD
BRANCH  14  15
ATOM     15  C   UNL     1      18.801  18.926  24.451  0.00  0.00    +0.037 A 
ATOM     16  C   UNL     1      17.438  19.193  23.985  0.00  0.00    +0.013 A 
ATOM     17  C   UNL     1      16.593  18.105  23.557  0.00  0.00    +0.005 A 
ATOM     18  C   UNL     1      17.112  16.740  23.593  0.00  0.00    -0.033 A 
ATOM     28  C   UNL     1      18.470  16.504  24.055  0.00  0.00    +0.005 A 
ATOM     29  C   UNL     1      19.299  17.567  24.475  0.00  0.00    +0.013 A 
BRANCH  18  19
ATOM     19  C   UNL     1      16.274  15.516  23.176  0.00  0.00    +0.119 C 
BRANCH  19  20
ATOM     20  N   UNL     1      16.297  14.331  24.083  0.00  0.00    -0.302 NA
ATOM     21  C   UNL     1      17.574  13.503  23.915  0.00  0.00    +0.066 C 
ATOM     22  C   UNL     1      17.591  12.279  24.888  0.00  0.00    -0.064 C 
ATOM     23  N   UNL     1      16.350  11.418  24.642  0.00  0.00    +0.379 N 
ATOM     24  C   UNL     1      16.393  10.236  25.515  0.00  0.00    -0.096 C 
ATOM     25  H   UNL     1      16.391  11.061  23.587  0.00  0.00    -0.082 HD
ATOM     26  C   UNL     1      15.076  12.234  24.804  0.00  0.00    -0.064 C 
ATOM     27  C   UNL     1      15.083  13.464  23.854  0.00  0.00    +0.066 C 
ENDBRANCH  19  20
ENDBRANCH  18  19
ENDBRANCH  14  15
ENDBRANCH  12  13
TORSDOF 6
ENDMDL
MODEL 2
REMARK VINA RESULT:     -11.6      2.246      2.738
REMARK  Name = C:\Users\Docking\Desktop\test protocol\1iep_ligandH.pdb
REMARK  8 active torsions:
REMARK  status: ('A' for Active; 'I' for Inactive)
REMARK    1  A    between atoms: _5  and  _11
REMARK    2  A    between atoms: _19  and  _21
REMARK    3  A    between atoms: _22  and  _66
REMARK    4  A    between atoms: _27  and  _30
REMARK    5  A    between atoms: _32  and  _33
REMARK    6  A    between atoms: _38  and  _43
REMARK    7  A    between atoms: _43  and  _46
REMARK    8  A    between atoms: _53  and  _55
REMARK                            x       y       z     vdW  Elec       q    Type
REMARK                         _______ _______ _______ _____ _____    ______ ____
ROOT
ATOM     10  C   UNL     1      23.618  21.920  24.077  0.00  0.00    +0.038 A 
ATOM     11  C   UNL     1      23.045  20.622  24.073  0.00  0.00    +0.047 A 
ATOM     12  C   UNL     1      21.657  20.414  23.691  0.00  0.00    +0.035 A 
ATOM     32  C   UNL     1      20.882  21.550  23.316  0.00  0.00    +0.024 A 
ATOM     33  C   UNL     1      21.448  22.876  23.316  0.00  0.00    +0.007 A 
ATOM     34  C   UNL     1      22.816  23.088  23.695  0.00  0.00    -0.029 A 
ATOM     35  C   UNL     1      23.368  24.532  23.683  0.00  0.00    +0.045 C 
ENDROOT
BRANCH  10   9
ATOM      4  C   UNL     1      28.303  22.126  23.053  0.00  0.00    +0.077 A 
ATOM      5  C   UNL     1      28.068  21.905  21.656  0.00  0.00    +0.048 A 
ATOM      6  C   UNL     1      26.727  21.736  21.242  0.00  0.00    +0.116 A 
ATOM      7  N   UNL     1      25.706  21.786  22.166  0.00  0.00    -0.223 NA
ATOM      8  C   UNL     1      25.968  22.000  23.507  0.00  0.00    +0.220 A 
ATOM      9  N   UNL     1      24.956  22.062  24.453  0.00  0.00    -0.283 N 
ATOM     36  H   UNL     1      25.191  22.214  25.434  0.00  0.00    +0.155 HD
ATOM     37  N   UNL     1      27.240  22.163  23.928  0.00  0.00    -0.214 NA
BRANCH   4   3
ATOM      1  C   UNL     1      31.939  23.414  23.701  0.00  0.00    +0.020 A 
ATOM      2  C   UNL     1      30.638  23.259  23.092  0.00  0.00    +0.013 A 
ATOM      3  C   UNL     1      29.664  22.326  23.644  0.00  0.00    +0.019 A 
ATOM     38  C   UNL     1      30.040  21.560  24.823  0.00  0.00    +0.120 A 
ATOM     39  N   UNL     1      31.301  21.730  25.387  0.00  0.00    -0.263 NA
ATOM     40  C   UNL     1      32.247  22.623  24.863  0.00  0.00    +0.111 A 
ENDBRANCH   4   3
ENDBRANCH  10   9
BRANCH  12  13
ATOM     13  N   UNL     1      21.019  19.121  23.675  0.00  0.00    -0.281 N 
ATOM     14  C   UNL     1      19.698  18.820  23.963  0.00  0.00    +0.248 C 
ATOM     30  O   UNL     1      18.911  19.594  24.488  0.00  0.00    -0.270 OA
ATOM     31  H   UNL     1      21.613  18.332  23.421  0.00  0.00    +0.155 HD
BRANCH  14  15
ATOM     15  C   UNL     1      19.179  17.458  23.632  0.00  0.00    +0.037 A 
ATOM     16  C   UNL     1      19.689  16.709  22.481  0.00  0.00    +0.013 A 
ATOM     17  C   UNL     1      19.159  15.404  22.175  0.00  0.00    +0.005 A 
ATOM     18  C   UNL     1      18.113  14.839  23.024  0.00  0.00    -0.033 A 
ATOM     28  C   UNL     1      17.630  15.601  24.163  0.00  0.00    +0.005 A 
ATOM     29  C   UNL     1      18.146  16.881  24.465  0.00  0.00    +0.013 A 
BRANCH  18  19
ATOM     19  C   UNL     1      17.475  13.462  22.760  0.00  0.00    +0.119 C 
BRANCH  19  20
ATOM     20  N   UNL     1      16.837  12.770  23.919  0.00  0.00    -0.302 NA
ATOM     21  C   UNL     1      17.561  11.471  24.282  0.00  0.00    +0.066 C 
ATOM     22  C   UNL     1      16.894  10.772  25.511  0.00  0.00    -0.064 C 
ATOM     23  N   UNL     1      15.419  10.503  25.204  0.00  0.00    +0.379 N 
ATOM     24  C   UNL     1      14.804   9.794  26.335  0.00  0.00    -0.096 C 
ATOM     25  H   UNL     1      15.377   9.828  24.317  0.00  0.00    -0.082 HD
ATOM     26  C   UNL     1      14.693  11.790  24.839  0.00  0.00    -0.064 C 
ATOM     27  C   UNL     1      15.381  12.492  23.635  0.00  0.00    +0.066 C 
ENDBRANCH  19  20
ENDBRANCH  18  19
ENDBRANCH  14  15
ENDBRANCH  12  13
TORSDOF 6
ENDMDL
MODEL 3
REMARK VINA RESULT:     -11.6      2.511      3.215
REMARK  Name = C:\Users\Docking\Desktop\test protocol\1iep_ligandH.pdb
REMARK  8 active torsions:
REMARK  status: ('A' for Active; 'I' for Inactive)
REMARK    1  A    between atoms: _5  and  _11
REMARK    2  A    between atoms: _19  and  _21
REMARK    3  A    between atoms: _22  and  _66
REMARK    4  A    between atoms: _27  and  _30
REMARK    5  A    between atoms: _32  and  _33
REMARK    6  A    between atoms: _38  and  _43
REMARK    7  A    between atoms: _43  and  _46
REMARK    8  A    between atoms: _53  and  _55
REMARK                            x       y       z     vdW  Elec       q    Type
REMARK                         _______ _______ _______ _____ _____    ______ ____
ROOT
ATOM     10  C   UNL     1      23.683  21.601  23.004  0.00  0.00    +0.038 A 
ATOM     11  C   UNL     1      22.764  20.527  22.888  0.00  0.00    +0.047 A 
ATOM     12  C   UNL     1      21.339  20.729  23.099  0.00  0.00    +0.035 A 
ATOM     32  C   UNL     1      20.884  22.040  23.425  0.00  0.00    +0.024 A 
ATOM     33  C   UNL     1      21.804  23.143  23.547  0.00  0.00    +0.007 A 
ATOM     34  C   UNL     1      23.211  22.949  23.343  0.00  0.00    -0.029 A 
ATOM     35  C   UNL     1      24.152  24.167  23.494  0.00  0.00    +0.045 C 
ENDROOT
BRANCH  10   9
ATOM      4  C   UNL     1      28.058  20.383  24.557  0.00  0.00    +0.077 A 
ATOM      5  C   UNL     1      27.607  20.262  25.914  0.00  0.00    +0.048 A 
ATOM      6  C   UNL     1      26.243  20.528  26.171  0.00  0.00    +0.116 A 
ATOM      7  N   UNL     1      25.402  20.888  25.140  0.00  0.00    -0.223 NA
ATOM      8  C   UNL     1      25.870  20.998  23.843  0.00  0.00    +0.220 A 
ATOM      9  N   UNL     1      25.040  21.350  22.790  0.00  0.00    -0.283 N 
ATOM     36  H   UNL     1      25.425  21.428  21.849  0.00  0.00    +0.155 HD
ATOM     37  N   UNL     1      27.168  20.749  23.572  0.00  0.00    -0.214 NA
BRANCH   4   3
ATOM      1  C   UNL     1      31.193  19.027  22.652  0.00  0.00    +0.020 A 
ATOM      2  C   UNL     1      29.814  19.235  23.029  0.00  0.00    +0.013 A 
ATOM      3  C   UNL     1      29.469  20.130  24.126  0.00  0.00    +0.019 A 
ATOM     38  C   UNL     1      30.551  20.804  24.827  0.00  0.00    +0.120 A 
ATOM     39  N   UNL     1      31.870  20.583  24.444  0.00  0.00    -0.263 NA
ATOM     40  C   UNL     1      32.215  19.723  23.390  0.00  0.00    +0.111 A 
ENDBRANCH   4   3
ENDBRANCH  10   9
BRANCH  12  13
ATOM     13  N   UNL     1      20.360  19.675  23.003  0.00  0.00    -0.281 N 
ATOM     14  C   UNL     1      20.558  18.363  22.604  0.00  0.00    +0.248 C 
ATOM     30  O   UNL     1      21.573  17.951  22.062  0.00  0.00    -0.270 OA
ATOM     31  H   UNL     1      19.406  19.927  23.260  0.00  0.00    +0.155 HD
BRANCH  14  15
ATOM     15  C   UNL     1      19.464  17.369  22.826  0.00  0.00    +0.037 A 
ATOM     16  C   UNL     1      19.465  16.073  22.142  0.00  0.00    +0.013 A 
ATOM     17  C   UNL     1      18.389  15.139  22.361  0.00  0.00    +0.005 A 
ATOM     18  C   UNL     1      17.304  15.497  23.271  0.00  0.00    -0.033 A 
ATOM     28  C   UNL     1      17.331  16.787  23.941  0.00  0.00    +0.005 A 
ATOM     29  C   UNL     1      18.383  17.705  23.728  0.00  0.00    +0.013 A 
BRANCH  18  19
ATOM     19  C   UNL     1      16.105  14.571  23.548  0.00  0.00    +0.119 C 
BRANCH  19  20
ATOM     20  N   UNL     1      16.406  13.166  23.955  0.00  0.00    -0.302 NA
ATOM     21  C   UNL     1      15.151  12.421  24.420  0.00  0.00    +0.066 C 
ATOM     22  C   UNL     1      15.481  10.946  24.820  0.00  0.00    -0.064 C 
ATOM     23  N   UNL     1      16.549  10.944  25.915  0.00  0.00    +0.379 N 
ATOM     24  C   UNL     1      16.819   9.561  26.335  0.00  0.00    -0.096 C 
ATOM     25  H   UNL     1      16.132  11.489  26.794  0.00  0.00    -0.082 HD
ATOM     26  C   UNL     1      17.799  11.685  25.463  0.00  0.00    -0.064 C 
ATOM     27  C   UNL     1      17.455  13.141  25.039  0.00  0.00    +0.066 C 
ENDBRANCH  19  20
ENDBRANCH  18  19
ENDBRANCH  14  15
ENDBRANCH  12  13
TORSDOF 6
ENDMDL
MODEL 4
REMARK VINA RESULT:     -11.5      3.580     13.385
REMARK  Name = C:\Users\Docking\Desktop\test protocol\1iep_ligandH.pdb
REMARK  8 active torsions:
REMARK  status: ('A' for Active; 'I' for Inactive)
REMARK    1  A    between atoms: _5  and  _11
REMARK    2  A    between atoms: _19  and  _21
REMARK    3  A    between atoms: _22  and  _66
REMARK    4  A    between atoms: _27  and  _30
REMARK    5  A    between atoms: _32  and  _33
REMARK    6  A    between atoms: _38  and  _43
REMARK    7  A    between atoms: _43  and  _46
REMARK    8  A    between atoms: _53  and  _55
REMARK                            x       y       z     vdW  Elec       q    Type
REMARK                         _______ _______ _______ _____ _____    ______ ____
ROOT
ATOM     10  C   UNL     1      16.979  11.997  23.939  0.00  0.00    +0.038 A 
ATOM     11  C   UNL     1      17.924  13.044  24.082  0.00  0.00    +0.047 A 
ATOM     12  C   UNL     1      17.506  14.437  24.101  0.00  0.00    +0.035 A 
ATOM     32  C   UNL     1      16.116  14.728  23.975  0.00  0.00    +0.024 A 
ATOM     33  C   UNL     1      15.142  13.675  23.828  0.00  0.00    +0.007 A 
ATOM     34  C   UNL     1      15.549  12.299  23.806  0.00  0.00    -0.029 A 
ATOM     35  C   UNL     1      14.461  11.212  23.639  0.00  0.00    +0.045 C 
ENDROOT
BRANCH  10   9
ATOM      4  C   UNL     1      17.665   7.736  26.040  0.00  0.00    +0.077 A 
ATOM      5  C   UNL     1      17.090   8.186  27.275  0.00  0.00    +0.048 A 
ATOM      6  C   UNL     1      16.635   9.523  27.330  0.00  0.00    +0.116 A 
ATOM      7  N   UNL     1      16.753  10.340  26.227  0.00  0.00    -0.223 NA
ATOM      8  C   UNL     1      17.315   9.875  25.052  0.00  0.00    +0.220 A 
ATOM      9  N   UNL     1      17.436  10.677  23.927  0.00  0.00    -0.283 N 
ATOM     36  H   UNL     1      17.863  10.299  23.082  0.00  0.00    +0.155 HD
ATOM     37  N   UNL     1      17.757   8.603  24.974  0.00  0.00    -0.214 NA
BRANCH   4   3
ATOM      1  C   UNL     1      19.742   4.691  24.731  0.00  0.00    +0.020 A 
ATOM      2  C   UNL     1      19.274   6.047  24.902  0.00  0.00    +0.013 A 
ATOM      3  C   UNL     1      18.188   6.350  25.825  0.00  0.00    +0.019 A 
ATOM     38  C   UNL     1      17.592   5.249  26.566  0.00  0.00    +0.120 A 
ATOM     39  N   UNL     1      18.062   3.952  26.380  0.00  0.00    -0.263 NA
ATOM     40  C   UNL     1      19.106   3.649  25.493  0.00  0.00    +0.111 A 
ENDBRANCH   4   3
ENDBRANCH  10   9
BRANCH  12  13
ATOM     13  N   UNL     1      18.421  15.544  24.235  0.00  0.00    -0.281 N 
ATOM     14  C   UNL     1      19.011  16.288  23.227  0.00  0.00    +0.248 C 
ATOM     30  O   UNL     1      19.007  15.977  22.045  0.00  0.00    -0.270 OA
ATOM     31  H   UNL     1      18.663  15.810  25.190  0.00  0.00    +0.155 HD
BRANCH  14  15
ATOM     15  C   UNL     1      19.720  17.554  23.584  0.00  0.00    +0.037 A 
ATOM     16  C   UNL     1      20.793  18.088  22.742  0.00  0.00    +0.013 A 
ATOM     17  C   UNL     1      21.472  19.303  23.119  0.00  0.00    +0.005 A 
ATOM     18  C   UNL     1      21.078  19.993  24.345  0.00  0.00    -0.033 A 
ATOM     28  C   UNL     1      20.006  19.444  25.159  0.00  0.00    +0.005 A 
ATOM     29  C   UNL     1      19.339  18.253  24.794  0.00  0.00    +0.013 A 
BRANCH  18  19
ATOM     19  C   UNL     1      21.762  21.283  24.835  0.00  0.00    +0.119 C 
BRANCH  19  20
ATOM     20  N   UNL     1      22.339  21.269  26.213  0.00  0.00    -0.302 NA
ATOM     21  C   UNL     1      22.032  22.560  26.977  0.00  0.00    +0.066 C 
ATOM     22  C   UNL     1      22.624  22.520  28.423  0.00  0.00    -0.064 C 
ATOM     23  N   UNL     1      24.133  22.282  28.347  0.00  0.00    +0.379 N 
ATOM     24  C   UNL     1      24.702  22.301  29.702  0.00  0.00    -0.096 C 
ATOM     25  H   UNL     1      24.581  23.130  27.780  0.00  0.00    -0.082 HD
ATOM     26  C   UNL     1      24.448  21.001  27.586  0.00  0.00    -0.064 C 
ATOM     27  C   UNL     1      23.830  21.039  26.161  0.00  0.00    +0.066 C 
ENDBRANCH  19  20
ENDBRANCH  18  19
ENDBRANCH  14  15
ENDBRANCH  12  13
TORSDOF 6
ENDMDL
MODEL 5
REMARK VINA RESULT:     -10.4      3.005      3.811
REMARK  Name = C:\Users\Docking\Desktop\test protocol\1iep_ligandH.pdb
REMARK  8 active torsions:
REMARK  status: ('A' for Active; 'I' for Inactive)
REMARK    1  A    between atoms: _5  and  _11
REMARK    2  A    between atoms: _19  and  _21
REMARK    3  A    between atoms: _22  and  _66
REMARK    4  A    between atoms: _27  and  _30
REMARK    5  A    between atoms: _32  and  _33
REMARK    6  A    between atoms: _38  and  _43
REMARK    7  A    between atoms: _43  and  _46
REMARK    8  A    between atoms: _53  and  _55
REMARK                            x       y       z     vdW  Elec       q    Type
REMARK                         _______ _______ _______ _____ _____    ______ ____
ROOT
ATOM     10  C   UNL     1      24.350  20.583  22.836  0.00  0.00    +0.038 A 
ATOM     11  C   UNL     1      23.460  19.480  22.809  0.00  0.00    +0.047 A 
ATOM     12  C   UNL     1      22.028  19.663  22.987  0.00  0.00    +0.035 A 
ATOM     32  C   UNL     1      21.537  20.986  23.189  0.00  0.00    +0.024 A 
ATOM     33  C   UNL     1      22.428  22.119  23.220  0.00  0.00    +0.007 A 
ATOM     34  C   UNL     1      23.841  21.944  23.047  0.00  0.00    -0.029 A 
ATOM     35  C   UNL     1      24.751  23.194  23.097  0.00  0.00    +0.045 C 
ENDROOT
BRANCH  10   9
ATOM      4  C   UNL     1      28.273  20.294  20.086  0.00  0.00    +0.077 A 
ATOM      5  C   UNL     1      27.535  20.610  18.897  0.00  0.00    +0.048 A 
ATOM      6  C   UNL     1      26.147  20.833  19.035  0.00  0.00    +0.116 A 
ATOM      7  N   UNL     1      25.552  20.744  20.275  0.00  0.00    -0.223 NA
ATOM      8  C   UNL     1      26.292  20.436  21.401  0.00  0.00    +0.220 A 
ATOM      9  N   UNL     1      25.716  20.349  22.659  0.00  0.00    -0.283 N 
ATOM     36  H   UNL     1      26.295  20.111  23.463  0.00  0.00    +0.155 HD
ATOM     37  N   UNL     1      27.619  20.217  21.295  0.00  0.00    -0.214 NA
BRANCH   4   3
ATOM      1  C   UNL     1      32.094  20.409  19.253  0.00  0.00    +0.020 A 
ATOM      2  C   UNL     1      30.679  20.694  19.195  0.00  0.00    +0.013 A 
ATOM      3  C   UNL     1      29.748  20.035  20.102  0.00  0.00    +0.019 A 
ATOM     38  C   UNL     1      30.286  19.085  21.065  0.00  0.00    +0.120 A 
ATOM     39  N   UNL     1      31.653  18.829  21.096  0.00  0.00    -0.263 NA
ATOM     40  C   UNL     1      32.558  19.456  20.227  0.00  0.00    +0.111 A 
ENDBRANCH   4   3
ENDBRANCH  10   9
BRANCH  12  13
ATOM     13  N   UNL     1      21.076  18.580  22.977  0.00  0.00    -0.281 N 
ATOM     14  C   UNL     1      20.088  18.306  23.908  0.00  0.00    +0.248 C 
ATOM     30  O   UNL     1      20.010  18.832  25.009  0.00  0.00    -0.270 OA
ATOM     31  H   UNL     1      21.139  17.937  22.188  0.00  0.00    +0.155 HD
BRANCH  14  15
ATOM     15  C   UNL     1      19.043  17.291  23.575  0.00  0.00    +0.037 A 
ATOM     16  C   UNL     1      19.359  16.115  22.759  0.00  0.00    +0.013 A 
ATOM     17  C   UNL     1      18.328  15.160  22.438  0.00  0.00    +0.005 A 
ATOM     18  C   UNL     1      16.971  15.376  22.935  0.00  0.00    -0.033 A 
ATOM     28  C   UNL     1      16.687  16.548  23.746  0.00  0.00    +0.005 A 
ATOM     29  C   UNL     1      17.694  17.487  24.062  0.00  0.00    +0.013 A 
BRANCH  18  19
ATOM     19  C   UNL     1      15.805  14.420  22.624  0.00  0.00    +0.119 C 
BRANCH  19  20
ATOM     20  N   UNL     1      15.815  13.087  23.296  0.00  0.00    -0.302 NA
ATOM     21  C   UNL     1      14.403  12.610  23.649  0.00  0.00    +0.066 C 
ATOM     22  C   UNL     1      14.431  11.204  24.332  0.00  0.00    -0.064 C 
ATOM     23  N   UNL     1      15.311  11.265  25.582  0.00  0.00    +0.379 N 
ATOM     24  C   UNL     1      15.292   9.959  26.258  0.00  0.00    -0.096 C 
ATOM     25  H   UNL     1      14.860  12.012  26.276  0.00  0.00    -0.082 HD
ATOM     26  C   UNL     1      16.716  11.740  25.241  0.00  0.00    -0.064 C 
ATOM     27  C   UNL     1      16.674  13.125  24.536  0.00  0.00    +0.066 C 
ENDBRANCH  19  20
ENDBRANCH  18  19
ENDBRANCH  14  15
ENDBRANCH  12  13
TORSDOF 6
ENDMDL
