MODEL 1
REMARK VINA RESULT:      -8.7      0.000      0.000
REMARK  Name = C:\Users\Docking\Desktop\test protocol\1iep_ligandH.pdb
REMARK  8 active torsions:
REMARK  status: ('A' for Active; 'I' for Inactive)
REMARK    1  A    between atoms: _5  and  _11
REMARK    2  A    between atoms: _19  and  _21
REMARK    3  A    between atoms: _22  and  _66
REMARK    4  A    between atoms: _27  and  _30
REMARK    5  A    between atoms: _32  and  _33
REMARK    6  A    between atoms: _38  and  _43
REMARK    7  A    between atoms: _43  and  _46
REMARK    8  A    between atoms: _53  and  _55
REMARK                            x       y       z     vdW  Elec       q    Type
REMARK                         _______ _______ _______ _____ _____    ______ ____
ROOT
ATOM     10  C   UNL     1      20.286  30.097  21.869  0.00  0.00    +0.038 A 
ATOM     11  C   UNL     1      20.696  30.067  20.512  0.00  0.00    +0.047 A 
ATOM     12  C   UNL     1      20.126  30.982  19.534  0.00  0.00    +0.035 A 
ATOM     32  C   UNL     1      19.144  31.916  19.975  0.00  0.00    +0.024 A 
ATOM     33  C   UNL     1      18.715  31.959  21.351  0.00  0.00    +0.007 A 
ATOM     34  C   UNL     1      19.272  31.058  22.319  0.00  0.00    -0.029 A 
ATOM     35  C   UNL     1      18.770  31.145  23.779  0.00  0.00    +0.045 C 
ENDROOT
BRANCH  10   9
ATOM      4  C   UNL     1      20.199  26.061  24.465  0.00  0.00    +0.077 A 
ATOM      5  C   UNL     1      18.876  25.733  24.020  0.00  0.00    +0.048 A 
ATOM      6  C   UNL     1      18.250  26.633  23.128  0.00  0.00    +0.116 A 
ATOM      7  N   UNL     1      18.907  27.772  22.719  0.00  0.00    -0.223 NA
ATOM      8  C   UNL     1      20.183  28.060  23.170  0.00  0.00    +0.220 A 
ATOM      9  N   UNL     1      20.866  29.196  22.766  0.00  0.00    -0.283 N 
ATOM     36  H   UNL     1      21.803  29.376  23.126  0.00  0.00    +0.155 HD
ATOM     37  N   UNL     1      20.802  27.217  24.023  0.00  0.00    -0.214 NA
BRANCH   4   3
ATOM      1  C   UNL     1      21.249  23.841  27.510  0.00  0.00    +0.020 A 
ATOM      2  C   UNL     1      20.439  24.659  26.637  0.00  0.00    +0.013 A 
ATOM      3  C   UNL     1      20.993  25.208  25.406  0.00  0.00    +0.019 A 
ATOM     38  C   UNL     1      22.381  24.908  25.085  0.00  0.00    +0.120 A 
ATOM     39  N   UNL     1      23.136  24.119  25.945  0.00  0.00    -0.263 NA
ATOM     40  C   UNL     1      22.615  23.586  27.134  0.00  0.00    +0.111 A 
ENDBRANCH   4   3
ENDBRANCH  10   9
BRANCH  12  13
ATOM     13  N   UNL     1      20.497  30.993  18.141  0.00  0.00    -0.281 N 
ATOM     14  C   UNL     1      21.070  32.028  17.420  0.00  0.00    +0.248 C 
ATOM     30  O   UNL     1      21.156  33.181  17.816  0.00  0.00    -0.270 OA
ATOM     31  H   UNL     1      20.314  30.133  17.623  0.00  0.00    +0.155 HD
BRANCH  14  15
ATOM     15  C   UNL     1      21.614  31.744  16.057  0.00  0.00    +0.037 A 
ATOM     16  C   UNL     1      20.961  30.784  15.163  0.00  0.00    +0.013 A 
ATOM     17  C   UNL     1      21.516  30.516  13.860  0.00  0.00    +0.005 A 
ATOM     18  C   UNL     1      22.731  31.211  13.443  0.00  0.00    -0.033 A 
ATOM     28  C   UNL     1      23.355  32.163  14.347  0.00  0.00    +0.005 A 
ATOM     29  C   UNL     1      22.815  32.427  15.625  0.00  0.00    +0.013 A 
BRANCH  18  19
ATOM     19  C   UNL     1      23.405  30.972  12.078  0.00  0.00    +0.119 C 
BRANCH  19  20
ATOM     20  N   UNL     1      23.346  32.083  11.082  0.00  0.00    -0.302 NA
ATOM     21  C   UNL     1      21.924  32.621  10.905  0.00  0.00    +0.066 C 
ATOM     22  C   UNL     1      21.884  33.798   9.877  0.00  0.00    -0.064 C 
ATOM     23  N   UNL     1      22.454  33.321   8.539  0.00  0.00    +0.379 N 
ATOM     24  C   UNL     1      22.365  34.408   7.553  0.00  0.00    -0.096 C 
ATOM     25  H   UNL     1      21.813  32.484   8.178  0.00  0.00    -0.082 HD
ATOM     26  C   UNL     1      23.867  32.782   8.707  0.00  0.00    -0.064 C 
ATOM     27  C   UNL     1      23.900  31.633   9.753  0.00  0.00    +0.066 C 
ENDBRANCH  19  20
ENDBRANCH  18  19
ENDBRANCH  14  15
ENDBRANCH  12  13
TORSDOF 6
ENDMDL
MODEL 2
REMARK VINA RESULT:      -8.4      1.859      2.803
REMARK  Name = C:\Users\Docking\Desktop\test protocol\1iep_ligandH.pdb
REMARK  8 active torsions:
REMARK  status: ('A' for Active; 'I' for Inactive)
REMARK    1  A    between atoms: _5  and  _11
REMARK    2  A    between atoms: _19  and  _21
REMARK    3  A    between atoms: _22  and  _66
REMARK    4  A    between atoms: _27  and  _30
REMARK    5  A    between atoms: _32  and  _33
REMARK    6  A    between atoms: _38  and  _43
REMARK    7  A    between atoms: _43  and  _46
REMARK    8  A    between atoms: _53  and  _55
REMARK                            x       y       z     vdW  Elec       q    Type
REMARK                         _______ _______ _______ _____ _____    ______ ____
ROOT
ATOM     10  C   UNL     1      20.115  29.810  22.105  0.00  0.00    +0.038 A 
ATOM     11  C   UNL     1      20.529  29.799  20.749  0.00  0.00    +0.047 A 
ATOM     12  C   UNL     1      19.915  30.679  19.767  0.00  0.00    +0.035 A 
ATOM     32  C   UNL     1      18.882  31.560  20.202  0.00  0.00    +0.024 A 
ATOM     33  C   UNL     1      18.448  31.584  21.577  0.00  0.00    +0.007 A 
ATOM     34  C   UNL     1      19.049  30.716  22.549  0.00  0.00    -0.029 A 
ATOM     35  C   UNL     1      18.539  30.780  24.008  0.00  0.00    +0.045 C 
ENDROOT
BRANCH  10   9
ATOM      4  C   UNL     1      20.210  25.812  24.759  0.00  0.00    +0.077 A 
ATOM      5  C   UNL     1      18.893  25.430  24.337  0.00  0.00    +0.048 A 
ATOM      6  C   UNL     1      18.222  26.294  23.442  0.00  0.00    +0.116 A 
ATOM      7  N   UNL     1      18.833  27.450  23.008  0.00  0.00    -0.223 NA
ATOM      8  C   UNL     1      20.103  27.790  23.435  0.00  0.00    +0.220 A 
ATOM      9  N   UNL     1      20.739  28.944  23.005  0.00  0.00    -0.283 N 
ATOM     36  H   UNL     1      21.674  29.163  23.350  0.00  0.00    +0.155 HD
ATOM     37  N   UNL     1      20.764  26.983  24.291  0.00  0.00    -0.214 NA
BRANCH   4   3
ATOM      1  C   UNL     1      21.351  23.559  27.746  0.00  0.00    +0.020 A 
ATOM      2  C   UNL     1      20.499  24.330  26.870  0.00  0.00    +0.013 A 
ATOM      3  C   UNL     1      21.047  25.002  25.699  0.00  0.00    +0.019 A 
ATOM     38  C   UNL     1      22.474  24.874  25.441  0.00  0.00    +0.120 A 
ATOM     39  N   UNL     1      23.270  24.127  26.303  0.00  0.00    -0.263 NA
ATOM     40  C   UNL     1      22.753  23.477  27.434  0.00  0.00    +0.111 A 
ENDBRANCH   4   3
ENDBRANCH  10   9
BRANCH  12  13
ATOM     13  N   UNL     1      20.288  30.707  18.375  0.00  0.00    -0.281 N 
ATOM     14  C   UNL     1      20.851  31.754  17.664  0.00  0.00    +0.248 C 
ATOM     30  O   UNL     1      20.922  32.905  18.070  0.00  0.00    -0.270 OA
ATOM     31  H   UNL     1      20.117  29.850  17.849  0.00  0.00    +0.155 HD
BRANCH  14  15
ATOM     15  C   UNL     1      21.401  31.489  16.300  0.00  0.00    +0.037 A 
ATOM     16  C   UNL     1      22.610  32.167  15.823  0.00  0.00    +0.013 A 
ATOM     17  C   UNL     1      23.110  31.905  14.497  0.00  0.00    +0.005 A 
ATOM     18  C   UNL     1      22.401  30.959  13.638  0.00  0.00    -0.033 A 
ATOM     28  C   UNL     1      21.208  30.296  14.139  0.00  0.00    +0.005 A 
ATOM     29  C   UNL     1      20.714  30.551  15.438  0.00  0.00    +0.013 A 
BRANCH  18  19
ATOM     19  C   UNL     1      22.851  30.635  12.201  0.00  0.00    +0.119 C 
BRANCH  19  20
ATOM     20  N   UNL     1      23.079  29.198  11.864  0.00  0.00    -0.302 NA
ATOM     21  C   UNL     1      24.266  29.012  10.914  0.00  0.00    +0.066 C 
ATOM     22  C   UNL     1      24.504  27.501  10.590  0.00  0.00    -0.064 C 
ATOM     23  N   UNL     1      23.230  26.905   9.988  0.00  0.00    +0.379 N 
ATOM     24  C   UNL     1      23.469  25.500   9.628  0.00  0.00    -0.096 C 
ATOM     25  H   UNL     1      23.008  27.462   9.048  0.00  0.00    -0.082 HD
ATOM     26  C   UNL     1      22.044  27.088  10.924  0.00  0.00    -0.064 C 
ATOM     27  C   UNL     1      21.835  28.590  11.264  0.00  0.00    +0.066 C 
ENDBRANCH  19  20
ENDBRANCH  18  19
ENDBRANCH  14  15
ENDBRANCH  12  13
TORSDOF 6
ENDMDL
MODEL 3
REMARK VINA RESULT:      -8.1      4.218     12.576
REMARK  Name = C:\Users\Docking\Desktop\test protocol\1iep_ligandH.pdb
REMARK  8 active torsions:
REMARK  status: ('A' for Active; 'I' for Inactive)
REMARK    1  A    between atoms: _5  and  _11
REMARK    2  A    between atoms: _19  and  _21
REMARK    3  A    between atoms: _22  and  _66
REMARK    4  A    between atoms: _27  and  _30
REMARK    5  A    between atoms: _32  and  _33
REMARK    6  A    between atoms: _38  and  _43
REMARK    7  A    between atoms: _43  and  _46
REMARK    8  A    between atoms: _53  and  _55
REMARK                            x       y       z     vdW  Elec       q    Type
REMARK                         _______ _______ _______ _____ _____    ______ ____
ROOT
ATOM     10  C   UNL     1      22.868  29.928  11.856  0.00  0.00    +0.038 A 
ATOM     11  C   UNL     1      22.218  29.939  13.116  0.00  0.00    +0.047 A 
ATOM     12  C   UNL     1      22.481  30.987  14.090  0.00  0.00    +0.035 A 
ATOM     32  C   UNL     1      23.411  32.011  13.746  0.00  0.00    +0.024 A 
ATOM     33  C   UNL     1      24.082  32.015  12.469  0.00  0.00    +0.007 A 
ATOM     34  C   UNL     1      23.828  30.982  11.506  0.00  0.00    -0.029 A 
ATOM     35  C   UNL     1      24.581  31.034  10.156  0.00  0.00    +0.045 C 
ENDROOT
BRANCH  10   9
ATOM      4  C   UNL     1      23.717  25.600   9.962  0.00  0.00    +0.077 A 
ATOM      5  C   UNL     1      24.851  25.385  10.814  0.00  0.00    +0.048 A 
ATOM      6  C   UNL     1      25.187  26.415  11.720  0.00  0.00    +0.116 A 
ATOM      7  N   UNL     1      24.437  27.571  11.763  0.00  0.00    -0.223 NA
ATOM      8  C   UNL     1      23.350  27.747  10.927  0.00  0.00    +0.220 A 
ATOM      9  N   UNL     1      22.578  28.898  10.958  0.00  0.00    -0.283 N 
ATOM     36  H   UNL     1      21.789  28.993  10.320  0.00  0.00    +0.155 HD
ATOM     37  N   UNL     1      23.010  26.779  10.051  0.00  0.00    -0.214 NA
BRANCH   4   3
ATOM      1  C   UNL     1      23.603  23.000   7.042  0.00  0.00    +0.020 A 
ATOM      2  C   UNL     1      24.119  23.956   7.994  0.00  0.00    +0.013 A 
ATOM      3  C   UNL     1      23.234  24.604   8.954  0.00  0.00    +0.019 A 
ATOM     38  C   UNL     1      21.821  24.258   8.925  0.00  0.00    +0.120 A 
ATOM     39  N   UNL     1      21.352  23.335   7.996  0.00  0.00    -0.263 NA
ATOM     40  C   UNL     1      22.194  22.707   7.066  0.00  0.00    +0.111 A 
ENDBRANCH   4   3
ENDBRANCH  10   9
BRANCH  12  13
ATOM     13  N   UNL     1      21.857  31.045  15.388  0.00  0.00    -0.281 N 
ATOM     14  C   UNL     1      20.602  31.535  15.709  0.00  0.00    +0.248 C 
ATOM     30  O   UNL     1      19.906  32.198  14.954  0.00  0.00    -0.270 OA
ATOM     31  H   UNL     1      22.408  30.681  16.166  0.00  0.00    +0.155 HD
BRANCH  14  15
ATOM     15  C   UNL     1      20.046  31.263  17.069  0.00  0.00    +0.037 A 
ATOM     16  C   UNL     1      18.941  30.320  17.264  0.00  0.00    +0.013 A 
ATOM     17  C   UNL     1      18.412  30.089  18.584  0.00  0.00    +0.005 A 
ATOM     18  C   UNL     1      18.990  30.800  19.722  0.00  0.00    -0.033 A 
ATOM     28  C   UNL     1      20.088  31.726  19.501  0.00  0.00    +0.005 A 
ATOM     29  C   UNL     1      20.609  31.956  18.208  0.00  0.00    +0.013 A 
BRANCH  18  19
ATOM     19  C   UNL     1      18.474  30.631  21.164  0.00  0.00    +0.119 C 
BRANCH  19  20
ATOM     20  N   UNL     1      18.722  29.316  21.828  0.00  0.00    -0.302 NA
ATOM     21  C   UNL     1      18.945  29.467  23.335  0.00  0.00    +0.066 C 
ATOM     22  C   UNL     1      19.180  28.081  24.018  0.00  0.00    -0.064 C 
ATOM     23  N   UNL     1      20.374  27.387  23.360  0.00  0.00    +0.379 N 
ATOM     24  C   UNL     1      20.634  26.109  24.038  0.00  0.00    -0.096 C 
ATOM     25  H   UNL     1      21.267  28.038  23.511  0.00  0.00    -0.082 HD
ATOM     26  C   UNL     1      20.162  27.235  21.861  0.00  0.00    -0.064 C 
ATOM     27  C   UNL     1      19.900  28.616  21.197  0.00  0.00    +0.066 C 
ENDBRANCH  19  20
ENDBRANCH  18  19
ENDBRANCH  14  15
ENDBRANCH  12  13
TORSDOF 6
ENDMDL
MODEL 4
REMARK VINA RESULT:      -8.0      3.837     15.234
REMARK  Name = C:\Users\Docking\Desktop\test protocol\1iep_ligandH.pdb
REMARK  8 active torsions:
REMARK  status: ('A' for Active; 'I' for Inactive)
REMARK    1  A    between atoms: _5  and  _11
REMARK    2  A    between atoms: _19  and  _21
REMARK    3  A    between atoms: _22  and  _66
REMARK    4  A    between atoms: _27  and  _30
REMARK    5  A    between atoms: _32  and  _33
REMARK    6  A    between atoms: _38  and  _43
REMARK    7  A    between atoms: _43  and  _46
REMARK    8  A    between atoms: _53  and  _55
REMARK                            x       y       z     vdW  Elec       q    Type
REMARK                         _______ _______ _______ _____ _____    ______ ____
ROOT
ATOM     10  C   UNL     1      22.707  32.448   9.908  0.00  0.00    +0.038 A 
ATOM     11  C   UNL     1      22.247  32.722  11.222  0.00  0.00    +0.047 A 
ATOM     12  C   UNL     1      22.747  31.976  12.366  0.00  0.00    +0.035 A 
ATOM     32  C   UNL     1      23.717  30.957  12.136  0.00  0.00    +0.024 A 
ATOM     33  C   UNL     1      24.195  30.664  10.808  0.00  0.00    +0.007 A 
ATOM     34  C   UNL     1      23.704  31.396   9.675  0.00  0.00    -0.029 A 
ATOM     35  C   UNL     1      24.247  31.034   8.273  0.00  0.00    +0.045 C 
ENDROOT
BRANCH  10   9
ATOM      4  C   UNL     1      22.639  36.361   7.130  0.00  0.00    +0.077 A 
ATOM      5  C   UNL     1      23.698  36.979   7.873  0.00  0.00    +0.048 A 
ATOM      6  C   UNL     1      24.229  36.260   8.968  0.00  0.00    +0.116 A 
ATOM      7  N   UNL     1      23.729  35.016   9.286  0.00  0.00    -0.223 NA
ATOM      8  C   UNL     1      22.705  34.449   8.549  0.00  0.00    +0.220 A 
ATOM      9  N   UNL     1      22.193  33.195   8.847  0.00  0.00    -0.283 N 
ATOM     36  H   UNL     1      21.433  32.815   8.284  0.00  0.00    +0.155 HD
ATOM     37  N   UNL     1      22.181  35.116   7.500  0.00  0.00    -0.214 NA
BRANCH   4   3
ATOM      1  C   UNL     1      20.687  38.854   4.833  0.00  0.00    +0.020 A 
ATOM      2  C   UNL     1      21.310  38.287   6.007  0.00  0.00    +0.013 A 
ATOM      3  C   UNL     1      21.977  36.993   5.945  0.00  0.00    +0.019 A 
ATOM     38  C   UNL     1      21.997  36.293   4.669  0.00  0.00    +0.120 A 
ATOM     39  N   UNL     1      21.387  36.863   3.556  0.00  0.00    -0.263 NA
ATOM     40  C   UNL     1      20.741  38.107   3.604  0.00  0.00    +0.111 A 
ENDBRANCH   4   3
ENDBRANCH  10   9
BRANCH  12  13
ATOM     13  N   UNL     1      22.311  32.205  13.721  0.00  0.00    -0.281 N 
ATOM     14  C   UNL     1      23.012  32.813  14.750  0.00  0.00    +0.248 C 
ATOM     30  O   UNL     1      24.208  33.062  14.718  0.00  0.00    -0.270 OA
ATOM     31  H   UNL     1      21.372  31.879  13.949  0.00  0.00    +0.155 HD
BRANCH  14  15
ATOM     15  C   UNL     1      22.282  33.184  16.000  0.00  0.00    +0.037 A 
ATOM     16  C   UNL     1      22.391  34.528  16.573  0.00  0.00    +0.013 A 
ATOM     17  C   UNL     1      21.690  34.855  17.789  0.00  0.00    +0.005 A 
ATOM     18  C   UNL     1      20.871  33.835  18.440  0.00  0.00    -0.033 A 
ATOM     28  C   UNL     1      20.776  32.512  17.847  0.00  0.00    +0.005 A 
ATOM     29  C   UNL     1      21.462  32.187  16.655  0.00  0.00    +0.013 A 
BRANCH  18  19
ATOM     19  C   UNL     1      20.105  34.090  19.751  0.00  0.00    +0.119 C 
BRANCH  19  20
ATOM     20  N   UNL     1      19.932  32.931  20.678  0.00  0.00    -0.302 NA
ATOM     21  C   UNL     1      18.476  32.460  20.744  0.00  0.00    +0.066 C 
ATOM     22  C   UNL     1      18.318  31.234  21.701  0.00  0.00    -0.064 C 
ATOM     23  N   UNL     1      18.831  31.606  23.093  0.00  0.00    +0.379 N 
ATOM     24  C   UNL     1      18.629  30.474  24.009  0.00  0.00    -0.096 C 
ATOM     25  H   UNL     1      18.212  32.456  23.464  0.00  0.00    -0.082 HD
ATOM     26  C   UNL     1      20.277  32.078  23.036  0.00  0.00    -0.064 C 
ATOM     27  C   UNL     1      20.428  33.279  22.060  0.00  0.00    +0.066 C 
ENDBRANCH  19  20
ENDBRANCH  18  19
ENDBRANCH  14  15
ENDBRANCH  12  13
TORSDOF 6
ENDMDL
MODEL 5
REMARK VINA RESULT:      -7.9      5.194      8.395
REMARK  Name = C:\Users\Docking\Desktop\test protocol\1iep_ligandH.pdb
REMARK  8 active torsions:
REMARK  status: ('A' for Active; 'I' for Inactive)
REMARK    1  A    between atoms: _5  and  _11
REMARK    2  A    between atoms: _19  and  _21
REMARK    3  A    between atoms: _22  and  _66
REMARK    4  A    between atoms: _27  and  _30
REMARK    5  A    between atoms: _32  and  _33
REMARK    6  A    between atoms: _38  and  _43
REMARK    7  A    between atoms: _43  and  _46
REMARK    8  A    between atoms: _53  and  _55
REMARK                            x       y       z     vdW  Elec       q    Type
REMARK                         _______ _______ _______ _____ _____    ______ ____
ROOT
ATOM     10  C   UNL     1      22.174  32.000  14.782  0.00  0.00    +0.038 A 
ATOM     11  C   UNL     1      22.584  30.768  14.210  0.00  0.00    +0.047 A 
ATOM     12  C   UNL     1      22.711  30.613  12.769  0.00  0.00    +0.035 A 
ATOM     32  C   UNL     1      22.415  31.734  11.940  0.00  0.00    +0.024 A 
ATOM     33  C   UNL     1      21.997  32.993  12.505  0.00  0.00    +0.007 A 
ATOM     34  C   UNL     1      21.867  33.151  13.925  0.00  0.00    -0.029 A 
ATOM     35  C   UNL     1      21.408  34.522  14.474  0.00  0.00    +0.045 C 
ENDROOT
BRANCH  10   9
ATOM      4  C   UNL     1      19.914  31.123  18.924  0.00  0.00    +0.077 A 
ATOM      5  C   UNL     1      18.837  30.445  18.261  0.00  0.00    +0.048 A 
ATOM      6  C   UNL     1      18.900  30.350  16.853  0.00  0.00    +0.116 A 
ATOM      7  N   UNL     1      19.964  30.895  16.169  0.00  0.00    -0.223 NA
ATOM      8  C   UNL     1      20.985  31.544  16.839  0.00  0.00    +0.220 A 
ATOM      9  N   UNL     1      22.069  32.093  16.171  0.00  0.00    -0.283 N 
ATOM     36  H   UNL     1      22.799  32.570  16.701  0.00  0.00    +0.155 HD
ATOM     37  N   UNL     1      20.948  31.650  18.183  0.00  0.00    -0.214 NA
BRANCH   4   3
ATOM      1  C   UNL     1      20.305  30.426  22.753  0.00  0.00    +0.020 A 
ATOM      2  C   UNL     1      20.238  30.199  21.328  0.00  0.00    +0.013 A 
ATOM      3  C   UNL     1      19.993  31.303  20.408  0.00  0.00    +0.019 A 
ATOM     38  C   UNL     1      19.819  32.635  20.968  0.00  0.00    +0.120 A 
ATOM     39  N   UNL     1      19.888  32.823  22.344  0.00  0.00    -0.263 NA
ATOM     40  C   UNL     1      20.122  31.768  23.239  0.00  0.00    +0.111 A 
ENDBRANCH   4   3
ENDBRANCH  10   9
BRANCH  12  13
ATOM     13  N   UNL     1      23.114  29.385  12.131  0.00  0.00    -0.281 N 
ATOM     14  C   UNL     1      22.498  28.146  12.202  0.00  0.00    +0.248 C 
ATOM     30  O   UNL     1      21.621  27.855  13.001  0.00  0.00    -0.270 OA
ATOM     31  H   UNL     1      23.956  29.434  11.557  0.00  0.00    +0.155 HD
BRANCH  14  15
ATOM     15  C   UNL     1      22.929  27.070  11.257  0.00  0.00    +0.037 A 
ATOM     16  C   UNL     1      24.035  27.280  10.320  0.00  0.00    +0.013 A 
ATOM     17  C   UNL     1      24.419  26.232   9.408  0.00  0.00    +0.005 A 
ATOM     18  C   UNL     1      23.696  24.963   9.430  0.00  0.00    -0.033 A 
ATOM     28  C   UNL     1      22.606  24.780  10.374  0.00  0.00    +0.005 A 
ATOM     29  C   UNL     1      22.226  25.805  11.268  0.00  0.00    +0.013 A 
BRANCH  18  19
ATOM     19  C   UNL     1      24.023  23.797   8.478  0.00  0.00    +0.119 C 
BRANCH  19  20
ATOM     20  N   UNL     1      24.246  24.130   7.040  0.00  0.00    -0.302 NA
ATOM     21  C   UNL     1      22.928  24.288   6.276  0.00  0.00    +0.066 C 
ATOM     22  C   UNL     1      23.179  24.659   4.778  0.00  0.00    -0.064 C 
ATOM     23  N   UNL     1      24.056  23.586   4.130  0.00  0.00    +0.379 N 
ATOM     24  C   UNL     1      24.246  23.901   2.707  0.00  0.00    -0.096 C 
ATOM     25  H   UNL     1      23.506  22.618   4.192  0.00  0.00    -0.082 HD
ATOM     26  C   UNL     1      25.367  23.420   4.885  0.00  0.00    -0.064 C 
ATOM     27  C   UNL     1      25.106  23.081   6.379  0.00  0.00    +0.066 C 
ENDBRANCH  19  20
ENDBRANCH  18  19
ENDBRANCH  14  15
ENDBRANCH  12  13
TORSDOF 6
ENDMDL
