MODEL 1
REMARK VINA RESULT:     -11.5      0.000      0.000
REMARK  Name = C:\Users\Docking\Desktop\test protocol\1iep_ligandH.pdb
REMARK  8 active torsions:
REMARK  status: ('A' for Active; 'I' for Inactive)
REMARK    1  A    between atoms: _5  and  _11
REMARK    2  A    between atoms: _19  and  _21
REMARK    3  A    between atoms: _22  and  _66
REMARK    4  A    between atoms: _27  and  _30
REMARK    5  A    between atoms: _32  and  _33
REMARK    6  A    between atoms: _38  and  _43
REMARK    7  A    between atoms: _43  and  _46
REMARK    8  A    between atoms: _53  and  _55
REMARK                            x       y       z     vdW  Elec       q    Type
REMARK                         _______ _______ _______ _____ _____    ______ ____
ROOT
ATOM     10  C   UNL     1     -12.052 -15.388 -27.815  0.00  0.00    +0.038 A 
ATOM     11  C   UNL     1     -12.669 -16.574 -28.290  0.00  0.00    +0.047 A 
ATOM     12  C   UNL     1     -11.973 -17.851 -28.251  0.00  0.00    +0.035 A 
ATOM     32  C   UNL     1     -10.651 -17.884 -27.719  0.00  0.00    +0.024 A 
ATOM     33  C   UNL     1     -10.009 -16.688 -27.233  0.00  0.00    +0.007 A 
ATOM     34  C   UNL     1     -10.689 -15.425 -27.271  0.00  0.00    -0.029 A 
ATOM     35  C   UNL     1      -9.950 -14.173 -26.743  0.00  0.00    +0.045 C 
ENDROOT
BRANCH  10   9
ATOM      4  C   UNL     1     -14.725 -11.946 -25.804  0.00  0.00    +0.077 A 
ATOM      5  C   UNL     1     -14.721 -12.605 -24.530  0.00  0.00    +0.048 A 
ATOM      6  C   UNL     1     -14.025 -13.831 -24.436  0.00  0.00    +0.116 A 
ATOM      7  N   UNL     1     -13.385 -14.350 -25.540  0.00  0.00    -0.223 NA
ATOM      8  C   UNL     1     -13.410 -13.689 -26.755  0.00  0.00    +0.220 A 
ATOM      9  N   UNL     1     -12.767 -14.189 -27.876  0.00  0.00    -0.283 N 
ATOM     36  H   UNL     1     -12.815 -13.675 -28.756  0.00  0.00    +0.155 HD
ATOM     37  N   UNL     1     -14.069 -12.518 -26.871  0.00  0.00    -0.214 NA
BRANCH   4   3
ATOM      1  C   UNL     1     -15.511  -8.320 -27.044  0.00  0.00    +0.020 A 
ATOM      2  C   UNL     1     -14.803  -9.560 -26.824  0.00  0.00    +0.013 A 
ATOM      3  C   UNL     1     -15.413 -10.641 -26.061  0.00  0.00    +0.019 A 
ATOM     38  C   UNL     1     -16.753 -10.434 -25.531  0.00  0.00    +0.120 A 
ATOM     39  N   UNL     1     -17.410  -9.229 -25.757  0.00  0.00    -0.263 NA
ATOM     40  C   UNL     1     -16.831  -8.181 -26.489  0.00  0.00    +0.111 A 
ENDBRANCH   4   3
ENDBRANCH  10   9
BRANCH  12  13
ATOM     13  N   UNL     1     -12.545 -19.086 -28.726  0.00  0.00    -0.281 N 
ATOM     14  C   UNL     1     -12.524 -19.594 -30.014  0.00  0.00    +0.248 C 
ATOM     30  O   UNL     1     -12.194 -18.956 -31.003  0.00  0.00    -0.270 OA
ATOM     31  H   UNL     1     -13.022 -19.656 -28.027  0.00  0.00    +0.155 HD
BRANCH  14  15
ATOM     15  C   UNL     1     -12.946 -21.010 -30.239  0.00  0.00    +0.037 A 
ATOM     16  C   UNL     1     -12.889 -22.000 -29.160  0.00  0.00    +0.013 A 
ATOM     17  C   UNL     1     -13.285 -23.364 -29.409  0.00  0.00    +0.005 A 
ATOM     18  C   UNL     1     -13.743 -23.745 -30.742  0.00  0.00    -0.033 A 
ATOM     28  C   UNL     1     -13.794 -22.742 -31.793  0.00  0.00    +0.005 A 
ATOM     29  C   UNL     1     -13.406 -21.404 -31.553  0.00  0.00    +0.013 A 
BRANCH  18  19
ATOM     19  C   UNL     1     -14.165 -25.182 -31.103  0.00  0.00    +0.119 C 
BRANCH  19  20
ATOM     20  N   UNL     1     -14.187 -26.186 -29.998  0.00  0.00    -0.302 NA
ATOM     21  C   UNL     1     -12.811 -26.356 -29.348  0.00  0.00    +0.066 C 
ATOM     22  C   UNL     1     -12.857 -27.393 -28.179  0.00  0.00    -0.064 C 
ATOM     23  N   UNL     1     -13.375 -28.731 -28.709  0.00  0.00    +0.379 N 
ATOM     24  C   UNL     1     -13.365 -29.725 -27.625  0.00  0.00    -0.096 C 
ATOM     25  H   UNL     1     -12.667 -29.081 -29.495  0.00  0.00    -0.082 HD
ATOM     26  C   UNL     1     -14.742 -28.571 -29.358  0.00  0.00    -0.064 C 
ATOM     27  C   UNL     1     -14.692 -27.516 -30.499  0.00  0.00    +0.066 C 
ENDBRANCH  19  20
ENDBRANCH  18  19
ENDBRANCH  14  15
ENDBRANCH  12  13
TORSDOF 6
ENDMDL
MODEL 2
REMARK VINA RESULT:     -10.7      2.909     13.472
REMARK  Name = C:\Users\Docking\Desktop\test protocol\1iep_ligandH.pdb
REMARK  8 active torsions:
REMARK  status: ('A' for Active; 'I' for Inactive)
REMARK    1  A    between atoms: _5  and  _11
REMARK    2  A    between atoms: _19  and  _21
REMARK    3  A    between atoms: _22  and  _66
REMARK    4  A    between atoms: _27  and  _30
REMARK    5  A    between atoms: _32  and  _33
REMARK    6  A    between atoms: _38  and  _43
REMARK    7  A    between atoms: _43  and  _46
REMARK    8  A    between atoms: _53  and  _55
REMARK                            x       y       z     vdW  Elec       q    Type
REMARK                         _______ _______ _______ _____ _____    ______ ____
ROOT
ATOM     10  C   UNL     1     -12.301 -17.211 -27.632  0.00  0.00    +0.038 A 
ATOM     11  C   UNL     1     -13.380 -16.335 -27.351  0.00  0.00    +0.047 A 
ATOM     12  C   UNL     1     -13.156 -14.916 -27.117  0.00  0.00    +0.035 A 
ATOM     32  C   UNL     1     -11.819 -14.424 -27.180  0.00  0.00    +0.024 A 
ATOM     33  C   UNL     1     -10.711 -15.301 -27.463  0.00  0.00    +0.007 A 
ATOM     34  C   UNL     1     -10.925 -16.702 -27.692  0.00  0.00    -0.029 A 
ATOM     35  C   UNL     1      -9.699 -17.597 -27.985  0.00  0.00    +0.045 C 
ENDROOT
BRANCH  10   9
ATOM      4  C   UNL     1     -12.910 -20.997 -30.518  0.00  0.00    +0.077 A 
ATOM      5  C   UNL     1     -12.693 -20.208 -31.697  0.00  0.00    +0.048 A 
ATOM      6  C   UNL     1     -12.435 -18.831 -31.517  0.00  0.00    +0.116 A 
ATOM      7  N   UNL     1     -12.398 -18.293 -30.249  0.00  0.00    -0.223 NA
ATOM      8  C   UNL     1     -12.613 -19.082 -29.133  0.00  0.00    +0.220 A 
ATOM      9  N   UNL     1     -12.573 -18.564 -27.848  0.00  0.00    -0.283 N 
ATOM     36  H   UNL     1     -12.744 -19.177 -27.052  0.00  0.00    +0.155 HD
ATOM     37  N   UNL     1     -12.863 -20.400 -29.279  0.00  0.00    -0.214 NA
BRANCH   4   3
ATOM      1  C   UNL     1     -13.832 -24.601 -31.728  0.00  0.00    +0.020 A 
ATOM      2  C   UNL     1     -13.572 -23.180 -31.757  0.00  0.00    +0.013 A 
ATOM      3  C   UNL     1     -13.190 -22.468 -30.544  0.00  0.00    +0.019 A 
ATOM     38  C   UNL     1     -13.079 -23.229 -29.309  0.00  0.00    +0.120 A 
ATOM     39  N   UNL     1     -13.337 -24.596 -29.311  0.00  0.00    -0.263 NA
ATOM     40  C   UNL     1     -13.706 -25.292 -30.472  0.00  0.00    +0.111 A 
ENDBRANCH   4   3
ENDBRANCH  10   9
BRANCH  12  13
ATOM     13  N   UNL     1     -14.211 -13.980 -26.820  0.00  0.00    -0.281 N 
ATOM     14  C   UNL     1     -14.726 -13.643 -25.579  0.00  0.00    +0.248 C 
ATOM     30  O   UNL     1     -14.501 -14.258 -24.547  0.00  0.00    -0.270 OA
ATOM     31  H   UNL     1     -14.629 -13.508 -27.622  0.00  0.00    +0.155 HD
BRANCH  14  15
ATOM     15  C   UNL     1     -15.634 -12.460 -25.471  0.00  0.00    +0.037 A 
ATOM     16  C   UNL     1     -15.390 -11.242 -26.248  0.00  0.00    +0.013 A 
ATOM     17  C   UNL     1     -16.272 -10.109 -26.112  0.00  0.00    +0.005 A 
ATOM     18  C   UNL     1     -17.406 -10.191 -25.195  0.00  0.00    -0.033 A 
ATOM     28  C   UNL     1     -17.627 -11.414 -24.441  0.00  0.00    +0.005 A 
ATOM     29  C   UNL     1     -16.765 -12.525 -24.571  0.00  0.00    +0.013 A 
BRANCH  18  19
ATOM     19  C   UNL     1     -18.386  -9.024 -24.971  0.00  0.00    +0.119 C 
BRANCH  19  20
ATOM     20  N   UNL     1     -19.279  -9.100 -23.776  0.00  0.00    -0.302 NA
ATOM     21  C   UNL     1     -20.701  -8.629 -24.091  0.00  0.00    +0.066 C 
ATOM     22  C   UNL     1     -21.627  -8.737 -22.836  0.00  0.00    -0.064 C 
ATOM     23  N   UNL     1     -21.027  -7.920 -21.691  0.00  0.00    +0.379 N 
ATOM     24  C   UNL     1     -21.925  -7.972 -20.528  0.00  0.00    -0.096 C 
ATOM     25  H   UNL     1     -20.969  -6.858 -22.027  0.00  0.00    -0.082 HD
ATOM     26  C   UNL     1     -19.611  -8.380 -21.373  0.00  0.00    -0.064 C 
ATOM     27  C   UNL     1     -18.707  -8.297 -22.634  0.00  0.00    +0.066 C 
ENDBRANCH  19  20
ENDBRANCH  18  19
ENDBRANCH  14  15
ENDBRANCH  12  13
TORSDOF 6
ENDMDL
MODEL 3
REMARK VINA RESULT:      -8.9      7.630      9.783
REMARK  Name = C:\Users\Docking\Desktop\test protocol\1iep_ligandH.pdb
REMARK  8 active torsions:
REMARK  status: ('A' for Active; 'I' for Inactive)
REMARK    1  A    between atoms: _5  and  _11
REMARK    2  A    between atoms: _19  and  _21
REMARK    3  A    between atoms: _22  and  _66
REMARK    4  A    between atoms: _27  and  _30
REMARK    5  A    between atoms: _32  and  _33
REMARK    6  A    between atoms: _38  and  _43
REMARK    7  A    between atoms: _43  and  _46
REMARK    8  A    between atoms: _53  and  _55
REMARK                            x       y       z     vdW  Elec       q    Type
REMARK                         _______ _______ _______ _____ _____    ______ ____
ROOT
ATOM     10  C   UNL     1      -8.720 -19.059 -28.355  0.00  0.00    +0.038 A 
ATOM     11  C   UNL     1      -8.359 -19.134 -29.725  0.00  0.00    +0.047 A 
ATOM     12  C   UNL     1      -7.092 -19.717 -30.138  0.00  0.00    +0.035 A 
ATOM     32  C   UNL     1      -6.217 -20.217 -29.129  0.00  0.00    +0.024 A 
ATOM     33  C   UNL     1      -6.569 -20.148 -27.732  0.00  0.00    +0.007 A 
ATOM     34  C   UNL     1      -7.816 -19.572 -27.319  0.00  0.00    -0.029 A 
ATOM     35  C   UNL     1      -8.138 -19.519 -25.807  0.00  0.00    +0.045 C 
ENDROOT
BRANCH  10   9
ATOM      4  C   UNL     1     -11.444 -15.316 -27.087  0.00  0.00    +0.077 A 
ATOM      5  C   UNL     1     -10.319 -14.426 -27.075  0.00  0.00    +0.048 A 
ATOM      6  C   UNL     1      -9.056 -14.973 -27.394  0.00  0.00    +0.116 A 
ATOM      7  N   UNL     1      -8.938 -16.311 -27.701  0.00  0.00    -0.223 NA
ATOM      8  C   UNL     1     -10.043 -17.142 -27.702  0.00  0.00    +0.220 A 
ATOM      9  N   UNL     1      -9.949 -18.489 -28.015  0.00  0.00    -0.283 N 
ATOM     36  H   UNL     1     -10.787 -19.071 -27.998  0.00  0.00    +0.155 HD
ATOM     37  N   UNL     1     -11.260 -16.645 -27.399  0.00  0.00    -0.214 NA
BRANCH   4   3
ATOM      1  C   UNL     1     -15.256 -14.498 -27.405  0.00  0.00    +0.020 A 
ATOM      2  C   UNL     1     -13.921 -14.923 -27.757  0.00  0.00    +0.013 A 
ATOM      3  C   UNL     1     -12.845 -14.888 -26.775  0.00  0.00    +0.019 A 
ATOM     38  C   UNL     1     -13.155 -14.415 -25.434  0.00  0.00    +0.120 A 
ATOM     39  N   UNL     1     -14.450 -14.011 -25.124  0.00  0.00    -0.263 NA
ATOM     40  C   UNL     1     -15.494 -14.039 -26.061  0.00  0.00    +0.111 A 
ENDBRANCH   4   3
ENDBRANCH  10   9
BRANCH  12  13
ATOM     13  N   UNL     1      -6.667 -19.812 -31.512  0.00  0.00    -0.281 N 
ATOM     14  C   UNL     1      -5.386 -19.668 -32.020  0.00  0.00    +0.248 C 
ATOM     30  O   UNL     1      -4.439 -19.221 -31.390  0.00  0.00    -0.270 OA
ATOM     31  H   UNL     1      -7.400 -20.010 -32.194  0.00  0.00    +0.155 HD
BRANCH  14  15
ATOM     15  C   UNL     1      -5.122 -20.064 -33.437  0.00  0.00    +0.037 A 
ATOM     16  C   UNL     1      -3.892 -19.659 -34.122  0.00  0.00    +0.013 A 
ATOM     17  C   UNL     1      -3.670 -20.041 -35.495  0.00  0.00    +0.005 A 
ATOM     18  C   UNL     1      -4.681 -20.834 -36.190  0.00  0.00    -0.033 A 
ATOM     28  C   UNL     1      -5.890 -21.226 -35.484  0.00  0.00    +0.005 A 
ATOM     29  C   UNL     1      -6.111 -20.853 -34.140  0.00  0.00    +0.013 A 
BRANCH  18  19
ATOM     19  C   UNL     1      -4.538 -21.267 -37.661  0.00  0.00    +0.119 C 
BRANCH  19  20
ATOM     20  N   UNL     1      -4.030 -20.249 -38.628  0.00  0.00    -0.302 NA
ATOM     21  C   UNL     1      -4.509 -18.837 -38.279  0.00  0.00    +0.066 C 
ATOM     22  C   UNL     1      -3.950 -17.781 -39.288  0.00  0.00    -0.064 C 
ATOM     23  N   UNL     1      -4.375 -18.161 -40.707  0.00  0.00    +0.379 N 
ATOM     24  C   UNL     1      -3.900 -17.139 -41.651  0.00  0.00    -0.096 C 
ATOM     25  H   UNL     1      -5.489 -18.160 -40.738  0.00  0.00    -0.082 HD
ATOM     26  C   UNL     1      -3.905 -19.565 -41.061  0.00  0.00    -0.064 C 
ATOM     27  C   UNL     1      -4.441 -20.603 -40.036  0.00  0.00    +0.066 C 
ENDBRANCH  19  20
ENDBRANCH  18  19
ENDBRANCH  14  15
ENDBRANCH  12  13
TORSDOF 6
ENDMDL
MODEL 4
REMARK VINA RESULT:      -8.7      5.611     14.295
REMARK  Name = C:\Users\Docking\Desktop\test protocol\1iep_ligandH.pdb
REMARK  8 active torsions:
REMARK  status: ('A' for Active; 'I' for Inactive)
REMARK    1  A    between atoms: _5  and  _11
REMARK    2  A    between atoms: _19  and  _21
REMARK    3  A    between atoms: _22  and  _66
REMARK    4  A    between atoms: _27  and  _30
REMARK    5  A    between atoms: _32  and  _33
REMARK    6  A    between atoms: _38  and  _43
REMARK    7  A    between atoms: _43  and  _46
REMARK    8  A    between atoms: _53  and  _55
REMARK                            x       y       z     vdW  Elec       q    Type
REMARK                         _______ _______ _______ _____ _____    ______ ____
ROOT
ATOM     10  C   UNL     1     -10.810 -17.289 -29.632  0.00  0.00    +0.038 A 
ATOM     11  C   UNL     1     -10.648 -15.925 -29.276  0.00  0.00    +0.047 A 
ATOM     12  C   UNL     1     -11.682 -15.211 -28.544  0.00  0.00    +0.035 A 
ATOM     32  C   UNL     1     -12.868 -15.917 -28.188  0.00  0.00    +0.024 A 
ATOM     33  C   UNL     1     -13.050 -17.302 -28.543  0.00  0.00    +0.007 A 
ATOM     34  C   UNL     1     -12.034 -18.012 -29.267  0.00  0.00    -0.029 A 
ATOM     35  C   UNL     1     -12.285 -19.495 -29.626  0.00  0.00    +0.045 C 
ENDROOT
BRANCH  10   9
ATOM      4  C   UNL     1      -6.915 -20.087 -29.823  0.00  0.00    +0.077 A 
ATOM      5  C   UNL     1      -6.906 -20.274 -28.401  0.00  0.00    +0.048 A 
ATOM      6  C   UNL     1      -7.917 -19.627 -27.656  0.00  0.00    +0.116 A 
ATOM      7  N   UNL     1      -8.861 -18.853 -28.295  0.00  0.00    -0.223 NA
ATOM      8  C   UNL     1      -8.840 -18.693 -29.669  0.00  0.00    +0.220 A 
ATOM      9  N   UNL     1      -9.784 -17.926 -30.334  0.00  0.00    -0.283 N 
ATOM     36  H   UNL     1      -9.730 -17.826 -31.347  0.00  0.00    +0.155 HD
ATOM     37  N   UNL     1      -7.884 -19.299 -30.403  0.00  0.00    -0.214 NA
BRANCH   4   3
ATOM      1  C   UNL     1      -5.010 -21.219 -33.047  0.00  0.00    +0.020 A 
ATOM      2  C   UNL     1      -6.003 -20.601 -32.199  0.00  0.00    +0.013 A 
ATOM      3  C   UNL     1      -5.914 -20.708 -30.748  0.00  0.00    +0.019 A 
ATOM     38  C   UNL     1      -4.799 -21.453 -30.182  0.00  0.00    +0.120 A 
ATOM     39  N   UNL     1      -3.859 -22.039 -31.024  0.00  0.00    -0.263 NA
ATOM     40  C   UNL     1      -3.935 -21.944 -32.421  0.00  0.00    +0.111 A 
ENDBRANCH   4   3
ENDBRANCH  10   9
BRANCH  12  13
ATOM     13  N   UNL     1     -11.577 -13.824 -28.163  0.00  0.00    -0.281 N 
ATOM     14  C   UNL     1     -11.041 -13.299 -26.999  0.00  0.00    +0.248 C 
ATOM     30  O   UNL     1     -10.762 -13.958 -26.008  0.00  0.00    -0.270 OA
ATOM     31  H   UNL     1     -11.943 -13.147 -28.833  0.00  0.00    +0.155 HD
BRANCH  14  15
ATOM     15  C   UNL     1     -10.792 -11.828 -26.917  0.00  0.00    +0.037 A 
ATOM     16  C   UNL     1      -9.910 -11.261 -25.893  0.00  0.00    +0.013 A 
ATOM     17  C   UNL     1      -9.701  -9.837 -25.827  0.00  0.00    +0.005 A 
ATOM     18  C   UNL     1     -10.375  -8.968 -26.789  0.00  0.00    -0.033 A 
ATOM     28  C   UNL     1     -11.240  -9.557 -27.797  0.00  0.00    +0.005 A 
ATOM     29  C   UNL     1     -11.449 -10.953 -27.865  0.00  0.00    +0.013 A 
BRANCH  18  19
ATOM     19  C   UNL     1     -10.226  -7.435 -26.779  0.00  0.00    +0.119 C 
BRANCH  19  20
ATOM     20  N   UNL     1      -8.915  -6.872 -27.217  0.00  0.00    -0.302 NA
ATOM     21  C   UNL     1      -9.058  -5.459 -27.788  0.00  0.00    +0.066 C 
ATOM     22  C   UNL     1      -7.673  -4.877 -28.221  0.00  0.00    -0.064 C 
ATOM     23  N   UNL     1      -7.027  -5.812 -29.245  0.00  0.00    +0.379 N 
ATOM     24  C   UNL     1      -5.751  -5.238 -29.697  0.00  0.00    -0.096 C 
ATOM     25  H   UNL     1      -7.705  -5.867 -30.128  0.00  0.00    -0.082 HD
ATOM     26  C   UNL     1      -6.883  -7.220 -28.686  0.00  0.00    -0.064 C 
ATOM     27  C   UNL     1      -8.261  -7.778 -28.231  0.00  0.00    +0.066 C 
ENDBRANCH  19  20
ENDBRANCH  18  19
ENDBRANCH  14  15
ENDBRANCH  12  13
TORSDOF 6
ENDMDL
MODEL 5
REMARK VINA RESULT:      -8.6      8.481     16.947
REMARK  Name = C:\Users\Docking\Desktop\test protocol\1iep_ligandH.pdb
REMARK  8 active torsions:
REMARK  status: ('A' for Active; 'I' for Inactive)
REMARK    1  A    between atoms: _5  and  _11
REMARK    2  A    between atoms: _19  and  _21
REMARK    3  A    between atoms: _22  and  _66
REMARK    4  A    between atoms: _27  and  _30
REMARK    5  A    between atoms: _32  and  _33
REMARK    6  A    between atoms: _38  and  _43
REMARK    7  A    between atoms: _43  and  _46
REMARK    8  A    between atoms: _53  and  _55
REMARK                            x       y       z     vdW  Elec       q    Type
REMARK                         _______ _______ _______ _____ _____    ______ ____
ROOT
ATOM     10  C   UNL     1     -18.596  -8.866 -24.863  0.00  0.00    +0.038 A 
ATOM     11  C   UNL     1     -19.869  -9.079 -24.277  0.00  0.00    +0.047 A 
ATOM     12  C   UNL     1     -20.572  -8.006 -23.591  0.00  0.00    +0.035 A 
ATOM     32  C   UNL     1     -19.948  -6.727 -23.522  0.00  0.00    +0.024 A 
ATOM     33  C   UNL     1     -18.653  -6.492 -24.111  0.00  0.00    +0.007 A 
ATOM     34  C   UNL     1     -17.955  -7.547 -24.788  0.00  0.00    -0.029 A 
ATOM     35  C   UNL     1     -16.566  -7.240 -25.395  0.00  0.00    +0.045 C 
ENDROOT
BRANCH  10   9
ATOM      4  C   UNL     1     -15.374 -12.420 -25.011  0.00  0.00    +0.077 A 
ATOM      5  C   UNL     1     -14.884 -12.111 -23.699  0.00  0.00    +0.048 A 
ATOM      6  C   UNL     1     -15.484 -11.025 -23.022  0.00  0.00    +0.116 A 
ATOM      7  N   UNL     1     -16.496 -10.309 -23.623  0.00  0.00    -0.223 NA
ATOM      8  C   UNL     1     -16.944 -10.633 -24.890  0.00  0.00    +0.220 A 
ATOM      9  N   UNL     1     -17.966  -9.931 -25.510  0.00  0.00    -0.283 N 
ATOM     36  H   UNL     1     -18.263 -10.197 -26.449  0.00  0.00    +0.155 HD
ATOM     37  N   UNL     1     -16.387 -11.665 -25.558  0.00  0.00    -0.214 NA
BRANCH   4   3
ATOM      1  C   UNL     1     -14.897 -15.023 -27.892  0.00  0.00    +0.020 A 
ATOM      2  C   UNL     1     -15.448 -13.934 -27.119  0.00  0.00    +0.013 A 
ATOM      3  C   UNL     1     -14.844 -13.541 -25.852  0.00  0.00    +0.019 A 
ATOM     38  C   UNL     1     -13.675 -14.275 -25.392  0.00  0.00    +0.120 A 
ATOM     39  N   UNL     1     -13.167 -15.320 -26.157  0.00  0.00    -0.263 NA
ATOM     40  C   UNL     1     -13.740 -15.709 -27.377  0.00  0.00    +0.111 A 
ENDBRANCH   4   3
ENDBRANCH  10   9
BRANCH  12  13
ATOM     13  N   UNL     1     -21.863  -8.166 -22.970  0.00  0.00    -0.281 N 
ATOM     14  C   UNL     1     -22.146  -8.328 -21.623  0.00  0.00    +0.248 C 
ATOM     30  O   UNL     1     -21.311  -8.574 -20.766  0.00  0.00    -0.270 OA
ATOM     31  H   UNL     1     -22.666  -8.160 -23.599  0.00  0.00    +0.155 HD
BRANCH  14  15
ATOM     15  C   UNL     1     -23.565  -8.213 -21.165  0.00  0.00    +0.037 A 
ATOM     16  C   UNL     1     -23.895  -8.070 -19.745  0.00  0.00    +0.013 A 
ATOM     17  C   UNL     1     -25.272  -7.979 -19.329  0.00  0.00    +0.005 A 
ATOM     18  C   UNL     1     -26.330  -8.029 -20.336  0.00  0.00    -0.033 A 
ATOM     28  C   UNL     1     -25.973  -8.166 -21.738  0.00  0.00    +0.005 A 
ATOM     29  C   UNL     1     -24.625  -8.257 -22.150  0.00  0.00    +0.013 A 
BRANCH  18  19
ATOM     19  C   UNL     1     -27.827  -7.960 -19.981  0.00  0.00    +0.119 C 
BRANCH  19  20
ATOM     20  N   UNL     1     -28.797  -7.908 -21.115  0.00  0.00    -0.302 NA
ATOM     21  C   UNL     1     -29.465  -6.536 -21.237  0.00  0.00    +0.066 C 
ATOM     22  C   UNL     1     -30.460  -6.492 -22.442  0.00  0.00    -0.064 C 
ATOM     23  N   UNL     1     -31.509  -7.592 -22.273  0.00  0.00    +0.379 N 
ATOM     24  C   UNL     1     -32.480  -7.517 -23.375  0.00  0.00    -0.096 C 
ATOM     25  H   UNL     1     -32.058  -7.392 -21.324  0.00  0.00    -0.082 HD
ATOM     26  C   UNL     1     -30.854  -8.960 -22.148  0.00  0.00    -0.064 C 
ATOM     27  C   UNL     1     -29.845  -8.983 -20.966  0.00  0.00    +0.066 C 
ENDBRANCH  19  20
ENDBRANCH  18  19
ENDBRANCH  14  15
ENDBRANCH  12  13
TORSDOF 6
ENDMDL
