MODEL 1
REMARK VINA RESULT:      -9.1      0.000      0.000
REMARK  Name = C:\Users\Docking\Desktop\test protocol\1iep_ligandH.pdb
REMARK  8 active torsions:
REMARK  status: ('A' for Active; 'I' for Inactive)
REMARK    1  A    between atoms: _5  and  _11
REMARK    2  A    between atoms: _19  and  _21
REMARK    3  A    between atoms: _22  and  _66
REMARK    4  A    between atoms: _27  and  _30
REMARK    5  A    between atoms: _32  and  _33
REMARK    6  A    between atoms: _38  and  _43
REMARK    7  A    between atoms: _43  and  _46
REMARK    8  A    between atoms: _53  and  _55
REMARK                            x       y       z     vdW  Elec       q    Type
REMARK                         _______ _______ _______ _____ _____    ______ ____
ROOT
ATOM     10  C   UNL     1      -4.546   4.567 -18.282  0.00  0.00    +0.038 A 
ATOM     11  C   UNL     1      -5.375   5.200 -19.243  0.00  0.00    +0.047 A 
ATOM     12  C   UNL     1      -4.837   6.182 -20.171  0.00  0.00    +0.035 A 
ATOM     32  C   UNL     1      -3.448   6.495 -20.093  0.00  0.00    +0.024 A 
ATOM     33  C   UNL     1      -2.591   5.862 -19.122  0.00  0.00    +0.007 A 
ATOM     34  C   UNL     1      -3.117   4.894 -18.202  0.00  0.00    -0.029 A 
ATOM     35  C   UNL     1      -2.153   4.252 -17.178  0.00  0.00    +0.045 C 
ENDROOT
BRANCH  10   9
ATOM      4  C   UNL     1      -6.289   3.274 -14.001  0.00  0.00    +0.077 A 
ATOM      5  C   UNL     1      -6.018   4.563 -13.435  0.00  0.00    +0.048 A 
ATOM      6  C   UNL     1      -5.422   5.529 -14.276  0.00  0.00    +0.116 A 
ATOM      7  N   UNL     1      -5.125   5.218 -15.585  0.00  0.00    -0.223 NA
ATOM      8  C   UNL     1      -5.398   3.964 -16.100  0.00  0.00    +0.220 A 
ATOM      9  N   UNL     1      -5.115   3.631 -17.415  0.00  0.00    -0.283 N 
ATOM     36  H   UNL     1      -5.325   2.692 -17.754  0.00  0.00    +0.155 HD
ATOM     37  N   UNL     1      -5.965   3.023 -15.316  0.00  0.00    -0.214 NA
BRANCH   4   3
ATOM      1  C   UNL     1      -7.976   1.165 -11.171  0.00  0.00    +0.020 A 
ATOM      2  C   UNL     1      -7.375   2.283 -11.861  0.00  0.00    +0.013 A 
ATOM      3  C   UNL     1      -6.918   2.149 -13.239  0.00  0.00    +0.019 A 
ATOM     38  C   UNL     1      -7.087   0.861 -13.895  0.00  0.00    +0.120 A 
ATOM     39  N   UNL     1      -7.668  -0.198 -13.204  0.00  0.00    -0.263 NA
ATOM     40  C   UNL     1      -8.110  -0.081 -11.878  0.00  0.00    +0.111 A 
ENDBRANCH   4   3
ENDBRANCH  10   9
BRANCH  12  13
ATOM     13  N   UNL     1      -5.632   6.863 -21.162  0.00  0.00    -0.281 N 
ATOM     14  C   UNL     1      -5.444   6.886 -22.535  0.00  0.00    +0.248 C 
ATOM     30  O   UNL     1      -4.434   6.496 -23.101  0.00  0.00    -0.270 OA
ATOM     31  H   UNL     1      -6.429   7.393 -20.810  0.00  0.00    +0.155 HD
BRANCH  14  15
ATOM     15  C   UNL     1      -6.531   7.434 -23.403  0.00  0.00    +0.037 A 
ATOM     16  C   UNL     1      -7.459   6.548 -24.110  0.00  0.00    +0.013 A 
ATOM     17  C   UNL     1      -8.487   7.102 -24.954  0.00  0.00    +0.005 A 
ATOM     18  C   UNL     1      -8.593   8.553 -25.094  0.00  0.00    -0.033 A 
ATOM     28  C   UNL     1      -7.663   9.409 -24.377  0.00  0.00    +0.005 A 
ATOM     29  C   UNL     1      -6.653   8.869 -23.550  0.00  0.00    +0.013 A 
BRANCH  18  19
ATOM     19  C   UNL     1      -9.646   9.231 -25.990  0.00  0.00    +0.119 C 
BRANCH  19  20
ATOM     20  N   UNL     1      -9.304   9.411 -27.433  0.00  0.00    -0.302 NA
ATOM     21  C   UNL     1      -8.449  10.659 -27.669  0.00  0.00    +0.066 C 
ATOM     22  C   UNL     1      -8.080  10.819 -29.180  0.00  0.00    -0.064 C 
ATOM     23  N   UNL     1      -9.363  10.876 -30.012  0.00  0.00    +0.379 N 
ATOM     24  C   UNL     1      -9.021  11.084 -31.426  0.00  0.00    -0.096 C 
ATOM     25  H   UNL     1      -9.948  11.761 -29.670  0.00  0.00    -0.082 HD
ATOM     26  C   UNL     1     -10.220   9.639 -29.781  0.00  0.00    -0.064 C 
ATOM     27  C   UNL     1     -10.556   9.473 -28.272  0.00  0.00    +0.066 C 
ENDBRANCH  19  20
ENDBRANCH  18  19
ENDBRANCH  14  15
ENDBRANCH  12  13
TORSDOF 6
ENDMDL
MODEL 2
REMARK VINA RESULT:      -8.7      3.728     12.864
REMARK  Name = C:\Users\Docking\Desktop\test protocol\1iep_ligandH.pdb
REMARK  8 active torsions:
REMARK  status: ('A' for Active; 'I' for Inactive)
REMARK    1  A    between atoms: _5  and  _11
REMARK    2  A    between atoms: _19  and  _21
REMARK    3  A    between atoms: _22  and  _66
REMARK    4  A    between atoms: _27  and  _30
REMARK    5  A    between atoms: _32  and  _33
REMARK    6  A    between atoms: _38  and  _43
REMARK    7  A    between atoms: _43  and  _46
REMARK    8  A    between atoms: _53  and  _55
REMARK                            x       y       z     vdW  Elec       q    Type
REMARK                         _______ _______ _______ _____ _____    ______ ____
ROOT
ATOM     10  C   UNL     1      -5.315   5.800 -17.715  0.00  0.00    +0.038 A 
ATOM     11  C   UNL     1      -5.631   4.489 -17.275  0.00  0.00    +0.047 A 
ATOM     12  C   UNL     1      -5.044   3.940 -16.063  0.00  0.00    +0.035 A 
ATOM     32  C   UNL     1      -4.141   4.756 -15.320  0.00  0.00    +0.024 A 
ATOM     33  C   UNL     1      -3.809   6.091 -15.753  0.00  0.00    +0.007 A 
ATOM     34  C   UNL     1      -4.383   6.636 -16.950  0.00  0.00    -0.029 A 
ATOM     35  C   UNL     1      -3.985   8.070 -17.370  0.00  0.00    +0.045 C 
ENDROOT
BRANCH  10   9
ATOM      4  C   UNL     1      -5.210   6.797 -22.409  0.00  0.00    +0.077 A 
ATOM      5  C   UNL     1      -3.850   6.357 -22.532  0.00  0.00    +0.048 A 
ATOM      6  C   UNL     1      -3.211   5.888 -21.362  0.00  0.00    +0.116 A 
ATOM      7  N   UNL     1      -3.891   5.865 -20.164  0.00  0.00    -0.223 NA
ATOM      8  C   UNL     1      -5.202   6.298 -20.080  0.00  0.00    +0.220 A 
ATOM      9  N   UNL     1      -5.908   6.276 -18.887  0.00  0.00    -0.283 N 
ATOM     36  H   UNL     1      -6.871   6.611 -18.865  0.00  0.00    +0.155 HD
ATOM     37  N   UNL     1      -5.834   6.752 -21.182  0.00  0.00    -0.214 NA
BRANCH   4   3
ATOM      1  C   UNL     1      -6.399   8.877 -25.500  0.00  0.00    +0.020 A 
ATOM      2  C   UNL     1      -5.578   8.414 -24.406  0.00  0.00    +0.013 A 
ATOM      3  C   UNL     1      -6.021   7.316 -23.555  0.00  0.00    +0.019 A 
ATOM     38  C   UNL     1      -7.309   6.704 -23.842  0.00  0.00    +0.120 A 
ATOM     39  N   UNL     1      -8.079   7.172 -24.902  0.00  0.00    -0.263 NA
ATOM     40  C   UNL     1      -7.664   8.229 -25.726  0.00  0.00    +0.111 A 
ENDBRANCH   4   3
ENDBRANCH  10   9
BRANCH  12  13
ATOM     13  N   UNL     1      -5.320   2.613 -15.571  0.00  0.00    -0.281 N 
ATOM     14  C   UNL     1      -6.071   2.254 -14.463  0.00  0.00    +0.248 C 
ATOM     30  O   UNL     1      -6.444   3.034 -13.599  0.00  0.00    -0.270 OA
ATOM     31  H   UNL     1      -4.913   1.845 -16.105  0.00  0.00    +0.155 HD
BRANCH  14  15
ATOM     15  C   UNL     1      -6.449   0.820 -14.282  0.00  0.00    +0.037 A 
ATOM     16  C   UNL     1      -7.431   0.415 -13.272  0.00  0.00    +0.013 A 
ATOM     17  C   UNL     1      -7.765  -0.977 -13.106  0.00  0.00    +0.005 A 
ATOM     18  C   UNL     1      -7.118  -1.975 -13.954  0.00  0.00    -0.033 A 
ATOM     28  C   UNL     1      -6.152  -1.546 -14.951  0.00  0.00    +0.005 A 
ATOM     29  C   UNL     1      -5.821  -0.182 -15.116  0.00  0.00    +0.013 A 
BRANCH  18  19
ATOM     19  C   UNL     1      -7.399  -3.485 -13.832  0.00  0.00    +0.119 C 
BRANCH  19  20
ATOM     20  N   UNL     1      -7.970  -4.173 -15.028  0.00  0.00    -0.302 NA
ATOM     21  C   UNL     1      -9.142  -3.394 -15.633  0.00  0.00    +0.066 C 
ATOM     22  C   UNL     1      -9.714  -4.117 -16.897  0.00  0.00    -0.064 C 
ATOM     23  N   UNL     1     -10.143  -5.535 -16.519  0.00  0.00    +0.379 N 
ATOM     24  C   UNL     1     -10.735  -6.197 -17.691  0.00  0.00    -0.096 C 
ATOM     25  H   UNL     1     -10.938  -5.452 -15.741  0.00  0.00    -0.082 HD
ATOM     26  C   UNL     1      -8.985  -6.316 -15.914  0.00  0.00    -0.064 C 
ATOM     27  C   UNL     1      -8.405  -5.574 -14.677  0.00  0.00    +0.066 C 
ENDBRANCH  19  20
ENDBRANCH  18  19
ENDBRANCH  14  15
ENDBRANCH  12  13
TORSDOF 6
ENDMDL
MODEL 3
REMARK VINA RESULT:      -8.6      8.815     13.776
REMARK  Name = C:\Users\Docking\Desktop\test protocol\1iep_ligandH.pdb
REMARK  8 active torsions:
REMARK  status: ('A' for Active; 'I' for Inactive)
REMARK    1  A    between atoms: _5  and  _11
REMARK    2  A    between atoms: _19  and  _21
REMARK    3  A    between atoms: _22  and  _66
REMARK    4  A    between atoms: _27  and  _30
REMARK    5  A    between atoms: _32  and  _33
REMARK    6  A    between atoms: _38  and  _43
REMARK    7  A    between atoms: _43  and  _46
REMARK    8  A    between atoms: _53  and  _55
REMARK                            x       y       z     vdW  Elec       q    Type
REMARK                         _______ _______ _______ _____ _____    ______ ____
ROOT
ATOM     10  C   UNL     1      -7.136  12.119 -29.475  0.00  0.00    +0.038 A 
ATOM     11  C   UNL     1      -6.282  12.165 -28.344  0.00  0.00    +0.047 A 
ATOM     12  C   UNL     1      -4.846  12.346 -28.491  0.00  0.00    +0.035 A 
ATOM     32  C   UNL     1      -4.313  12.480 -29.806  0.00  0.00    +0.024 A 
ATOM     33  C   UNL     1      -5.166  12.435 -30.967  0.00  0.00    +0.007 A 
ATOM     34  C   UNL     1      -6.583  12.254 -30.829  0.00  0.00    -0.029 A 
ATOM     35  C   UNL     1      -7.449  12.207 -32.109  0.00  0.00    +0.045 C 
ENDROOT
BRANCH  10   9
ATOM      4  C   UNL     1     -10.870   9.799 -27.550  0.00  0.00    +0.077 A 
ATOM      5  C   UNL     1     -10.018   8.839 -26.908  0.00  0.00    +0.048 A 
ATOM      6  C   UNL     1      -8.625   8.973 -27.105  0.00  0.00    +0.116 A 
ATOM      7  N   UNL     1      -8.132   9.996 -27.886  0.00  0.00    -0.223 NA
ATOM      8  C   UNL     1      -8.981  10.903 -28.492  0.00  0.00    +0.220 A 
ATOM      9  N   UNL     1      -8.507  11.944 -29.276  0.00  0.00    -0.283 N 
ATOM     36  H   UNL     1      -9.166  12.588 -29.712  0.00  0.00    +0.155 HD
ATOM     37  N   UNL     1     -10.315  10.796 -28.321  0.00  0.00    -0.214 NA
BRANCH   4   3
ATOM      1  C   UNL     1     -14.504   9.955 -26.111  0.00  0.00    +0.020 A 
ATOM      2  C   UNL     1     -13.060   9.970 -26.168  0.00  0.00    +0.013 A 
ATOM      3  C   UNL     1     -12.362   9.791 -27.435  0.00  0.00    +0.019 A 
ATOM     38  C   UNL     1     -13.161   9.599 -28.636  0.00  0.00    +0.120 A 
ATOM     39  N   UNL     1     -14.550   9.588 -28.551  0.00  0.00    -0.263 NA
ATOM     40  C   UNL     1     -15.232   9.757 -27.337  0.00  0.00    +0.111 A 
ENDBRANCH   4   3
ENDBRANCH  10   9
BRANCH  12  13
ATOM     13  N   UNL     1      -3.929  12.392 -27.379  0.00  0.00    -0.281 N 
ATOM     14  C   UNL     1      -3.001  11.436 -27.000  0.00  0.00    +0.248 C 
ATOM     30  O   UNL     1      -2.966  10.295 -27.438  0.00  0.00    -0.270 OA
ATOM     31  H   UNL     1      -3.969  13.231 -26.801  0.00  0.00    +0.155 HD
BRANCH  14  15
ATOM     15  C   UNL     1      -1.972  11.794 -25.978  0.00  0.00    +0.037 A 
ATOM     16  C   UNL     1      -2.151  12.946 -25.090  0.00  0.00    +0.013 A 
ATOM     17  C   UNL     1      -1.135  13.279 -24.124  0.00  0.00    +0.005 A 
ATOM     18  C   UNL     1       0.071  12.458 -24.039  0.00  0.00    -0.033 A 
ATOM     28  C   UNL     1       0.220  11.318 -24.929  0.00  0.00    +0.005 A 
ATOM     29  C   UNL     1      -0.773  10.989 -25.878  0.00  0.00    +0.013 A 
BRANCH  18  19
ATOM     19  C   UNL     1       1.216  12.752 -23.053  0.00  0.00    +0.119 C 
BRANCH  19  20
ATOM     20  N   UNL     1       0.906  12.654 -21.595  0.00  0.00    -0.302 NA
ATOM     21  C   UNL     1       1.592  13.758 -20.786  0.00  0.00    +0.066 C 
ATOM     22  C   UNL     1       1.238  13.653 -19.267  0.00  0.00    -0.064 C 
ATOM     23  N   UNL     1       1.639  12.272 -18.747  0.00  0.00    +0.379 N 
ATOM     24  C   UNL     1       1.361  12.191 -17.305  0.00  0.00    -0.096 C 
ATOM     25  H   UNL     1       2.740  12.165 -18.886  0.00  0.00    -0.082 HD
ATOM     26  C   UNL     1       0.963  11.168 -19.548  0.00  0.00    -0.064 C 
ATOM     27  C   UNL     1       1.298  11.299 -21.060  0.00  0.00    +0.066 C 
ENDBRANCH  19  20
ENDBRANCH  18  19
ENDBRANCH  14  15
ENDBRANCH  12  13
TORSDOF 6
ENDMDL
MODEL 4
REMARK VINA RESULT:      -8.6      7.484     11.785
REMARK  Name = C:\Users\Docking\Desktop\test protocol\1iep_ligandH.pdb
REMARK  8 active torsions:
REMARK  status: ('A' for Active; 'I' for Inactive)
REMARK    1  A    between atoms: _5  and  _11
REMARK    2  A    between atoms: _19  and  _21
REMARK    3  A    between atoms: _22  and  _66
REMARK    4  A    between atoms: _27  and  _30
REMARK    5  A    between atoms: _32  and  _33
REMARK    6  A    between atoms: _38  and  _43
REMARK    7  A    between atoms: _43  and  _46
REMARK    8  A    between atoms: _53  and  _55
REMARK                            x       y       z     vdW  Elec       q    Type
REMARK                         _______ _______ _______ _____ _____    ______ ____
ROOT
ATOM     10  C   UNL     1      -6.483   8.788 -25.276  0.00  0.00    +0.038 A 
ATOM     11  C   UNL     1      -7.378   9.095 -26.332  0.00  0.00    +0.047 A 
ATOM     12  C   UNL     1      -8.497   8.221 -26.648  0.00  0.00    +0.035 A 
ATOM     32  C   UNL     1      -8.676   7.043 -25.865  0.00  0.00    +0.024 A 
ATOM     33  C   UNL     1      -7.775   6.715 -24.789  0.00  0.00    +0.007 A 
ATOM     34  C   UNL     1      -6.668   7.572 -24.474  0.00  0.00    -0.029 A 
ATOM     35  C   UNL     1      -5.729   7.167 -23.314  0.00  0.00    +0.045 C 
ENDROOT
BRANCH  10   9
ATOM      4  C   UNL     1      -3.004  11.768 -26.712  0.00  0.00    +0.077 A 
ATOM      5  C   UNL     1      -3.302  11.542 -28.097  0.00  0.00    +0.048 A 
ATOM      6  C   UNL     1      -4.353  10.647 -28.398  0.00  0.00    +0.116 A 
ATOM      7  N   UNL     1      -5.048  10.029 -27.381  0.00  0.00    -0.223 NA
ATOM      8  C   UNL     1      -4.734  10.267 -26.055  0.00  0.00    +0.220 A 
ATOM      9  N   UNL     1      -5.425   9.662 -25.016  0.00  0.00    -0.283 N 
ATOM     36  H   UNL     1      -5.158   9.859 -24.052  0.00  0.00    +0.155 HD
ATOM     37  N   UNL     1      -3.734  11.117 -25.742  0.00  0.00    -0.214 NA
BRANCH   4   3
ATOM      1  C   UNL     1      -0.668  13.909 -24.419  0.00  0.00    +0.020 A 
ATOM      2  C   UNL     1      -1.726  13.014 -24.827  0.00  0.00    +0.013 A 
ATOM      3  C   UNL     1      -1.925  12.688 -26.234  0.00  0.00    +0.019 A 
ATOM     38  C   UNL     1      -1.027  13.288 -27.210  0.00  0.00    +0.120 A 
ATOM     39  N   UNL     1      -0.018  14.148 -26.787  0.00  0.00    -0.263 NA
ATOM     40  C   UNL     1       0.181  14.470 -25.436  0.00  0.00    +0.111 A 
ENDBRANCH   4   3
ENDBRANCH  10   9
BRANCH  12  13
ATOM     13  N   UNL     1      -9.434   8.477 -27.713  0.00  0.00    -0.281 N 
ATOM     14  C   UNL     1     -10.544   9.306 -27.691  0.00  0.00    +0.248 C 
ATOM     30  O   UNL     1     -11.023   9.792 -26.677  0.00  0.00    -0.270 OA
ATOM     31  H   UNL     1      -9.258   7.987 -28.591  0.00  0.00    +0.155 HD
BRANCH  14  15
ATOM     15  C   UNL     1     -11.228   9.631 -28.979  0.00  0.00    +0.037 A 
ATOM     16  C   UNL     1     -12.677   9.841 -29.038  0.00  0.00    +0.013 A 
ATOM     17  C   UNL     1     -13.315  10.136 -30.296  0.00  0.00    +0.005 A 
ATOM     18  C   UNL     1     -12.503  10.225 -31.507  0.00  0.00    -0.033 A 
ATOM     28  C   UNL     1     -11.067  10.017 -31.420  0.00  0.00    +0.005 A 
ATOM     29  C   UNL     1     -10.438   9.727 -30.188  0.00  0.00    +0.013 A 
BRANCH  18  19
ATOM     19  C   UNL     1     -13.101  10.515 -32.896  0.00  0.00    +0.119 C 
BRANCH  19  20
ATOM     20  N   UNL     1     -13.604   9.348 -33.682  0.00  0.00    -0.302 NA
ATOM     21  C   UNL     1     -12.819   9.149 -34.981  0.00  0.00    +0.066 C 
ATOM     22  C   UNL     1     -13.342   7.911 -35.779  0.00  0.00    -0.064 C 
ATOM     23  N   UNL     1     -14.834   8.088 -36.069  0.00  0.00    +0.379 N 
ATOM     24  C   UNL     1     -15.316   6.953 -36.869  0.00  0.00    -0.096 C 
ATOM     25  H   UNL     1     -14.951   9.010 -36.684  0.00  0.00    -0.082 HD
ATOM     26  C   UNL     1     -15.622   8.289 -34.782  0.00  0.00    -0.064 C 
ATOM     27  C   UNL     1     -15.074   9.504 -33.983  0.00  0.00    +0.066 C 
ENDBRANCH  19  20
ENDBRANCH  18  19
ENDBRANCH  14  15
ENDBRANCH  12  13
TORSDOF 6
ENDMDL
MODEL 5
REMARK VINA RESULT:      -8.3      7.481     11.760
REMARK  Name = C:\Users\Docking\Desktop\test protocol\1iep_ligandH.pdb
REMARK  8 active torsions:
REMARK  status: ('A' for Active; 'I' for Inactive)
REMARK    1  A    between atoms: _5  and  _11
REMARK    2  A    between atoms: _19  and  _21
REMARK    3  A    between atoms: _22  and  _66
REMARK    4  A    between atoms: _27  and  _30
REMARK    5  A    between atoms: _32  and  _33
REMARK    6  A    between atoms: _38  and  _43
REMARK    7  A    between atoms: _43  and  _46
REMARK    8  A    between atoms: _53  and  _55
REMARK                            x       y       z     vdW  Elec       q    Type
REMARK                         _______ _______ _______ _____ _____    ______ ____
ROOT
ATOM     10  C   UNL     1      -6.410   8.799 -25.291  0.00  0.00    +0.038 A 
ATOM     11  C   UNL     1      -7.284   9.109 -26.364  0.00  0.00    +0.047 A 
ATOM     12  C   UNL     1      -8.411   8.249 -26.689  0.00  0.00    +0.035 A 
ATOM     32  C   UNL     1      -8.622   7.083 -25.897  0.00  0.00    +0.024 A 
ATOM     33  C   UNL     1      -7.743   6.752 -24.803  0.00  0.00    +0.007 A 
ATOM     34  C   UNL     1      -6.627   7.595 -24.480  0.00  0.00    -0.029 A 
ATOM     35  C   UNL     1      -5.714   7.188 -23.300  0.00  0.00    +0.045 C 
ENDROOT
BRANCH  10   9
ATOM      4  C   UNL     1      -2.930  11.790 -26.698  0.00  0.00    +0.077 A 
ATOM      5  C   UNL     1      -3.248  11.602 -28.084  0.00  0.00    +0.048 A 
ATOM      6  C   UNL     1      -4.309  10.722 -28.393  0.00  0.00    +0.116 A 
ATOM      7  N   UNL     1      -4.995  10.083 -27.383  0.00  0.00    -0.223 NA
ATOM      8  C   UNL     1      -4.662  10.285 -26.056  0.00  0.00    +0.220 A 
ATOM      9  N   UNL     1      -5.343   9.659 -25.023  0.00  0.00    -0.283 N 
ATOM     36  H   UNL     1      -5.062   9.829 -24.058  0.00  0.00    +0.155 HD
ATOM     37  N   UNL     1      -3.651  11.120 -25.735  0.00  0.00    -0.214 NA
BRANCH   4   3
ATOM      1  C   UNL     1      -0.590  13.910 -24.389  0.00  0.00    +0.020 A 
ATOM      2  C   UNL     1      -1.662  13.036 -24.806  0.00  0.00    +0.013 A 
ATOM      3  C   UNL     1      -1.838  12.691 -26.211  0.00  0.00    +0.019 A 
ATOM     38  C   UNL     1      -0.904  13.252 -27.177  0.00  0.00    +0.120 A 
ATOM     39  N   UNL     1       0.118  14.092 -26.746  0.00  0.00    -0.263 NA
ATOM     40  C   UNL     1       0.296  14.432 -25.397  0.00  0.00    +0.111 A 
ENDBRANCH   4   3
ENDBRANCH  10   9
BRANCH  12  13
ATOM     13  N   UNL     1      -9.327   8.508 -27.772  0.00  0.00    -0.281 N 
ATOM     14  C   UNL     1     -10.478   9.279 -27.748  0.00  0.00    +0.248 C 
ATOM     30  O   UNL     1     -11.012   9.693 -26.730  0.00  0.00    -0.270 OA
ATOM     31  H   UNL     1      -9.100   8.070 -28.664  0.00  0.00    +0.155 HD
BRANCH  14  15
ATOM     15  C   UNL     1     -11.139   9.630 -29.042  0.00  0.00    +0.037 A 
ATOM     16  C   UNL     1     -10.359   9.810 -30.269  0.00  0.00    +0.013 A 
ATOM     17  C   UNL     1     -11.019  10.165 -31.500  0.00  0.00    +0.005 A 
ATOM     18  C   UNL     1     -12.469  10.342 -31.510  0.00  0.00    -0.033 A 
ATOM     28  C   UNL     1     -13.219  10.153 -30.279  0.00  0.00    +0.005 A 
ATOM     29  C   UNL     1     -12.575   9.805 -29.070  0.00  0.00    +0.013 A 
BRANCH  18  19
ATOM     19  C   UNL     1     -13.255  10.741 -32.773  0.00  0.00    +0.119 C 
BRANCH  19  20
ATOM     20  N   UNL     1     -13.678  12.168 -32.892  0.00  0.00    -0.302 NA
ATOM     21  C   UNL     1     -15.201  12.323 -32.839  0.00  0.00    +0.066 C 
ATOM     22  C   UNL     1     -15.625  13.824 -32.943  0.00  0.00    -0.064 C 
ATOM     23  N   UNL     1     -15.065  14.421 -34.235  0.00  0.00    +0.379 N 
ATOM     24  C   UNL     1     -15.510  15.816 -34.364  0.00  0.00    -0.096 C 
ATOM     25  H   UNL     1     -15.497  13.848 -35.087  0.00  0.00    -0.082 HD
ATOM     26  C   UNL     1     -13.552  14.270 -34.297  0.00  0.00    -0.064 C 
ATOM     27  C   UNL     1     -13.140  12.777 -34.164  0.00  0.00    +0.066 C 
ENDBRANCH  19  20
ENDBRANCH  18  19
ENDBRANCH  14  15
ENDBRANCH  12  13
TORSDOF 6
ENDMDL
