MODEL 1
REMARK VINA RESULT:      -8.7      0.000      0.000
REMARK  Name = C:\Users\Docking\Desktop\test protocol\1iep_ligandH.pdb
REMARK  8 active torsions:
REMARK  status: ('A' for Active; 'I' for Inactive)
REMARK    1  A    between atoms: _5  and  _11
REMARK    2  A    between atoms: _19  and  _21
REMARK    3  A    between atoms: _22  and  _66
REMARK    4  A    between atoms: _27  and  _30
REMARK    5  A    between atoms: _32  and  _33
REMARK    6  A    between atoms: _38  and  _43
REMARK    7  A    between atoms: _43  and  _46
REMARK    8  A    between atoms: _53  and  _55
REMARK                            x       y       z     vdW  Elec       q    Type
REMARK                         _______ _______ _______ _____ _____    ______ ____
ROOT
ATOM     10  C   UNL     1      -7.360   8.664 -24.883  0.00  0.00    +0.038 A 
ATOM     11  C   UNL     1      -6.464   9.709 -25.227  0.00  0.00    +0.047 A 
ATOM     12  C   UNL     1      -5.025   9.539 -25.097  0.00  0.00    +0.035 A 
ATOM     32  C   UNL     1      -4.533   8.291 -24.616  0.00  0.00    +0.024 A 
ATOM     33  C   UNL     1      -5.429   7.219 -24.260  0.00  0.00    +0.007 A 
ATOM     34  C   UNL     1      -6.850   7.382 -24.384  0.00  0.00    -0.029 A 
ATOM     35  C   UNL     1      -7.764   6.201 -23.982  0.00  0.00    +0.045 C 
ENDROOT
BRANCH  10   9
ATOM      4  C   UNL     1     -11.262   9.448 -27.565  0.00  0.00    +0.077 A 
ATOM      5  C   UNL     1     -10.499   9.452 -28.780  0.00  0.00    +0.048 A 
ATOM      6  C   UNL     1      -9.104   9.256 -28.670  0.00  0.00    +0.116 A 
ATOM      7  N   UNL     1      -8.526   9.070 -27.433  0.00  0.00    -0.223 NA
ATOM      8  C   UNL     1      -9.291   9.074 -26.281  0.00  0.00    +0.220 A 
ATOM      9  N   UNL     1      -8.732   8.882 -25.027  0.00  0.00    -0.283 N 
ATOM     36  H   UNL     1      -9.329   8.899 -24.201  0.00  0.00    +0.155 HD
ATOM     37  N   UNL     1     -10.625   9.261 -26.359  0.00  0.00    -0.214 NA
BRANCH   4   3
ATOM      1  C   UNL     1     -14.883  10.262 -26.331  0.00  0.00    +0.020 A 
ATOM      2  C   UNL     1     -13.448  10.094 -26.324  0.00  0.00    +0.013 A 
ATOM      3  C   UNL     1     -12.746   9.639 -27.518  0.00  0.00    +0.019 A 
ATOM     38  C   UNL     1     -13.531   9.363 -28.711  0.00  0.00    +0.120 A 
ATOM     39  N   UNL     1     -14.912   9.533 -28.688  0.00  0.00    -0.263 NA
ATOM     40  C   UNL     1     -15.599   9.968 -27.544  0.00  0.00    +0.111 A 
ENDBRANCH   4   3
ENDBRANCH  10   9
BRANCH  12  13
ATOM     13  N   UNL     1      -4.068  10.566 -25.424  0.00  0.00    -0.281 N 
ATOM     14  C   UNL     1      -3.673  10.994 -26.681  0.00  0.00    +0.248 C 
ATOM     30  O   UNL     1      -3.927  10.407 -27.722  0.00  0.00    -0.270 OA
ATOM     31  H   UNL     1      -3.627  11.035 -24.632  0.00  0.00    +0.155 HD
BRANCH  14  15
ATOM     15  C   UNL     1      -2.866  12.247 -26.796  0.00  0.00    +0.037 A 
ATOM     16  C   UNL     1      -2.657  12.899 -28.092  0.00  0.00    +0.013 A 
ATOM     17  C   UNL     1      -1.860  14.097 -28.178  0.00  0.00    +0.005 A 
ATOM     18  C   UNL     1      -1.267  14.652 -26.963  0.00  0.00    -0.033 A 
ATOM     28  C   UNL     1      -1.494  13.987 -25.691  0.00  0.00    +0.005 A 
ATOM     29  C   UNL     1      -2.274  12.812 -25.603  0.00  0.00    +0.013 A 
BRANCH  18  19
ATOM     19  C   UNL     1      -0.385  15.915 -26.965  0.00  0.00    +0.119 C 
BRANCH  19  20
ATOM     20  N   UNL     1       0.640  16.034 -25.885  0.00  0.00    -0.302 NA
ATOM     21  C   UNL     1       0.320  17.174 -24.913  0.00  0.00    +0.066 C 
ATOM     22  C   UNL     1       1.391  17.270 -23.778  0.00  0.00    -0.064 C 
ATOM     23  N   UNL     1       2.775  17.460 -24.400  0.00  0.00    +0.379 N 
ATOM     24  C   UNL     1       3.776  17.609 -23.333  0.00  0.00    -0.096 C 
ATOM     25  H   UNL     1       2.756  18.411 -24.981  0.00  0.00    -0.082 HD
ATOM     26  C   UNL     1       3.099  16.333 -25.370  0.00  0.00    -0.064 C 
ATOM     27  C   UNL     1       2.014  16.227 -26.477  0.00  0.00    +0.066 C 
ENDBRANCH  19  20
ENDBRANCH  18  19
ENDBRANCH  14  15
ENDBRANCH  12  13
TORSDOF 6
ENDMDL
MODEL 2
REMARK VINA RESULT:      -8.5      1.566      2.238
REMARK  Name = C:\Users\Docking\Desktop\test protocol\1iep_ligandH.pdb
REMARK  8 active torsions:
REMARK  status: ('A' for Active; 'I' for Inactive)
REMARK    1  A    between atoms: _5  and  _11
REMARK    2  A    between atoms: _19  and  _21
REMARK    3  A    between atoms: _22  and  _66
REMARK    4  A    between atoms: _27  and  _30
REMARK    5  A    between atoms: _32  and  _33
REMARK    6  A    between atoms: _38  and  _43
REMARK    7  A    between atoms: _43  and  _46
REMARK    8  A    between atoms: _53  and  _55
REMARK                            x       y       z     vdW  Elec       q    Type
REMARK                         _______ _______ _______ _____ _____    ______ ____
ROOT
ATOM     10  C   UNL     1      -7.318   8.686 -24.886  0.00  0.00    +0.038 A 
ATOM     11  C   UNL     1      -6.398   9.709 -25.233  0.00  0.00    +0.047 A 
ATOM     12  C   UNL     1      -4.963   9.499 -25.121  0.00  0.00    +0.035 A 
ATOM     32  C   UNL     1      -4.499   8.234 -24.655  0.00  0.00    +0.024 A 
ATOM     33  C   UNL     1      -5.420   7.184 -24.298  0.00  0.00    +0.007 A 
ATOM     34  C   UNL     1      -6.837   7.386 -24.403  0.00  0.00    -0.029 A 
ATOM     35  C   UNL     1      -7.778   6.227 -24.000  0.00  0.00    +0.045 C 
ENDROOT
BRANCH  10   9
ATOM      4  C   UNL     1     -11.244   9.508 -27.522  0.00  0.00    +0.077 A 
ATOM      5  C   UNL     1     -10.504   9.451 -28.749  0.00  0.00    +0.048 A 
ATOM      6  C   UNL     1      -9.114   9.215 -28.659  0.00  0.00    +0.116 A 
ATOM      7  N   UNL     1      -8.519   9.050 -27.427  0.00  0.00    -0.223 NA
ATOM      8  C   UNL     1      -9.262   9.113 -26.262  0.00  0.00    +0.220 A 
ATOM      9  N   UNL     1      -8.685   8.941 -25.013  0.00  0.00    -0.283 N 
ATOM     36  H   UNL     1      -9.266   9.003 -24.177  0.00  0.00    +0.155 HD
ATOM     37  N   UNL     1     -10.590   9.338 -26.322  0.00  0.00    -0.214 NA
BRANCH   4   3
ATOM      1  C   UNL     1     -14.809  10.511 -26.263  0.00  0.00    +0.020 A 
ATOM      2  C   UNL     1     -13.380  10.300 -26.277  0.00  0.00    +0.013 A 
ATOM      3  C   UNL     1     -12.721   9.747 -27.454  0.00  0.00    +0.019 A 
ATOM     38  C   UNL     1     -13.542   9.417 -28.608  0.00  0.00    +0.120 A 
ATOM     39  N   UNL     1     -14.916   9.630 -28.565  0.00  0.00    -0.263 NA
ATOM     40  C   UNL     1     -15.563  10.159 -27.438  0.00  0.00    +0.111 A 
ENDBRANCH   4   3
ENDBRANCH  10   9
BRANCH  12  13
ATOM     13  N   UNL     1      -3.982  10.503 -25.451  0.00  0.00    -0.281 N 
ATOM     14  C   UNL     1      -3.646  10.986 -26.705  0.00  0.00    +0.248 C 
ATOM     30  O   UNL     1      -3.991  10.473 -27.758  0.00  0.00    -0.270 OA
ATOM     31  H   UNL     1      -3.473  10.906 -24.664  0.00  0.00    +0.155 HD
BRANCH  14  15
ATOM     15  C   UNL     1      -2.792  12.209 -26.802  0.00  0.00    +0.037 A 
ATOM     16  C   UNL     1      -2.636  12.928 -28.069  0.00  0.00    +0.013 A 
ATOM     17  C   UNL     1      -1.792  14.095 -28.140  0.00  0.00    +0.005 A 
ATOM     18  C   UNL     1      -1.099  14.551 -26.937  0.00  0.00    -0.033 A 
ATOM     28  C   UNL     1      -1.276  13.822 -25.692  0.00  0.00    +0.005 A 
ATOM     29  C   UNL     1      -2.101  12.677 -25.620  0.00  0.00    +0.013 A 
BRANCH  18  19
ATOM     19  C   UNL     1      -0.162  15.773 -26.925  0.00  0.00    +0.119 C 
BRANCH  19  20
ATOM     20  N   UNL     1       1.115  15.664 -27.691  0.00  0.00    -0.302 NA
ATOM     21  C   UNL     1       0.968  16.173 -29.128  0.00  0.00    +0.066 C 
ATOM     22  C   UNL     1       2.319  16.072 -29.908  0.00  0.00    -0.064 C 
ATOM     23  N   UNL     1       2.806  14.622 -29.894  0.00  0.00    +0.379 N 
ATOM     24  C   UNL     1       4.046  14.514 -30.676  0.00  0.00    -0.096 C 
ATOM     25  H   UNL     1       2.031  14.001 -30.401  0.00  0.00    -0.082 HD
ATOM     26  C   UNL     1       2.952  14.107 -28.470  0.00  0.00    -0.064 C 
ATOM     27  C   UNL     1       1.611  14.239 -27.694  0.00  0.00    +0.066 C 
ENDBRANCH  19  20
ENDBRANCH  18  19
ENDBRANCH  14  15
ENDBRANCH  12  13
TORSDOF 6
ENDMDL
MODEL 3
REMARK VINA RESULT:      -8.4      3.410      4.563
REMARK  Name = C:\Users\Docking\Desktop\test protocol\1iep_ligandH.pdb
REMARK  8 active torsions:
REMARK  status: ('A' for Active; 'I' for Inactive)
REMARK    1  A    between atoms: _5  and  _11
REMARK    2  A    between atoms: _19  and  _21
REMARK    3  A    between atoms: _22  and  _66
REMARK    4  A    between atoms: _27  and  _30
REMARK    5  A    between atoms: _32  and  _33
REMARK    6  A    between atoms: _38  and  _43
REMARK    7  A    between atoms: _43  and  _46
REMARK    8  A    between atoms: _53  and  _55
REMARK                            x       y       z     vdW  Elec       q    Type
REMARK                         _______ _______ _______ _____ _____    ______ ____
ROOT
ATOM     10  C   UNL     1      -7.202  11.809 -29.240  0.00  0.00    +0.038 A 
ATOM     11  C   UNL     1      -6.322  11.907 -28.132  0.00  0.00    +0.047 A 
ATOM     12  C   UNL     1      -4.884  12.019 -28.321  0.00  0.00    +0.035 A 
ATOM     32  C   UNL     1      -4.377  12.031 -29.653  0.00  0.00    +0.024 A 
ATOM     33  C   UNL     1      -5.257  11.931 -30.791  0.00  0.00    +0.007 A 
ATOM     34  C   UNL     1      -6.676  11.818 -30.610  0.00  0.00    -0.029 A 
ATOM     35  C   UNL     1      -7.572  11.707 -31.866  0.00  0.00    +0.045 C 
ENDROOT
BRANCH  10   9
ATOM      4  C   UNL     1     -10.999   9.644 -27.256  0.00  0.00    +0.077 A 
ATOM      5  C   UNL     1     -10.183   8.621 -26.669  0.00  0.00    +0.048 A 
ATOM      6  C   UNL     1      -8.792   8.684 -26.907  0.00  0.00    +0.116 A 
ATOM      7  N   UNL     1      -8.267   9.699 -27.677  0.00  0.00    -0.223 NA
ATOM      8  C   UNL     1      -9.082  10.669 -28.230  0.00  0.00    +0.220 A 
ATOM      9  N   UNL     1      -8.574  11.704 -29.001  0.00  0.00    -0.283 N 
ATOM     36  H   UNL     1      -9.210  12.395 -29.398  0.00  0.00    +0.155 HD
ATOM     37  N   UNL     1     -10.414  10.630 -28.018  0.00  0.00    -0.214 NA
BRANCH   4   3
ATOM      1  C   UNL     1     -14.578   9.823 -25.687  0.00  0.00    +0.020 A 
ATOM      2  C   UNL     1     -13.138   9.753 -25.790  0.00  0.00    +0.013 A 
ATOM      3  C   UNL     1     -12.486   9.716 -27.093  0.00  0.00    +0.019 A 
ATOM     38  C   UNL     1     -13.325   9.751 -28.281  0.00  0.00    +0.120 A 
ATOM     39  N   UNL     1     -14.708   9.816 -28.151  0.00  0.00    -0.263 NA
ATOM     40  C   UNL     1     -15.348   9.851 -26.903  0.00  0.00    +0.111 A 
ENDBRANCH   4   3
ENDBRANCH  10   9
BRANCH  12  13
ATOM     13  N   UNL     1      -3.941  12.113 -27.234  0.00  0.00    -0.281 N 
ATOM     14  C   UNL     1      -3.091  11.130 -26.757  0.00  0.00    +0.248 C 
ATOM     30  O   UNL     1      -3.165   9.947 -27.057  0.00  0.00    -0.270 OA
ATOM     31  H   UNL     1      -3.895  13.015 -26.759  0.00  0.00    +0.155 HD
BRANCH  14  15
ATOM     15  C   UNL     1      -2.011  11.512 -25.797  0.00  0.00    +0.037 A 
ATOM     16  C   UNL     1      -2.115  12.724 -24.980  0.00  0.00    +0.013 A 
ATOM     17  C   UNL     1      -1.051  13.079 -24.074  0.00  0.00    +0.005 A 
ATOM     18  C   UNL     1       0.126  12.219 -23.981  0.00  0.00    -0.033 A 
ATOM     28  C   UNL     1       0.201  11.020 -24.799  0.00  0.00    +0.005 A 
ATOM     29  C   UNL     1      -0.839  10.670 -25.689  0.00  0.00    +0.013 A 
BRANCH  18  19
ATOM     19  C   UNL     1       1.319  12.531 -23.057  0.00  0.00    +0.119 C 
BRANCH  19  20
ATOM     20  N   UNL     1       1.031  12.699 -21.601  0.00  0.00    -0.302 NA
ATOM     21  C   UNL     1       1.417  14.091 -21.095  0.00  0.00    +0.066 C 
ATOM     22  C   UNL     1       1.088  14.256 -19.576  0.00  0.00    -0.064 C 
ATOM     23  N   UNL     1       1.813  13.170 -18.779  0.00  0.00    +0.379 N 
ATOM     24  C   UNL     1       1.552  13.358 -17.344  0.00  0.00    -0.096 C 
ATOM     25  H   UNL     1       2.907  13.303 -18.944  0.00  0.00    -0.082 HD
ATOM     26  C   UNL     1       1.436  11.782 -19.278  0.00  0.00    -0.064 C 
ATOM     27  C   UNL     1       1.740  11.638 -20.795  0.00  0.00    +0.066 C 
ENDBRANCH  19  20
ENDBRANCH  18  19
ENDBRANCH  14  15
ENDBRANCH  12  13
TORSDOF 6
ENDMDL
MODEL 4
REMARK VINA RESULT:      -8.2      9.649     15.689
REMARK  Name = C:\Users\Docking\Desktop\test protocol\1iep_ligandH.pdb
REMARK  8 active torsions:
REMARK  status: ('A' for Active; 'I' for Inactive)
REMARK    1  A    between atoms: _5  and  _11
REMARK    2  A    between atoms: _19  and  _21
REMARK    3  A    between atoms: _22  and  _66
REMARK    4  A    between atoms: _27  and  _30
REMARK    5  A    between atoms: _32  and  _33
REMARK    6  A    between atoms: _38  and  _43
REMARK    7  A    between atoms: _43  and  _46
REMARK    8  A    between atoms: _53  and  _55
REMARK                            x       y       z     vdW  Elec       q    Type
REMARK                         _______ _______ _______ _____ _____    ______ ____
ROOT
ATOM     10  C   UNL     1      -4.717   5.968 -18.763  0.00  0.00    +0.038 A 
ATOM     11  C   UNL     1      -4.831   4.606 -18.387  0.00  0.00    +0.047 A 
ATOM     12  C   UNL     1      -3.957   4.028 -17.378  0.00  0.00    +0.035 A 
ATOM     32  C   UNL     1      -2.979   4.868 -16.770  0.00  0.00    +0.024 A 
ATOM     33  C   UNL     1      -2.849   6.255 -17.141  0.00  0.00    +0.007 A 
ATOM     34  C   UNL     1      -3.706   6.830 -18.138  0.00  0.00    -0.029 A 
ATOM     35  C   UNL     1      -3.517   8.321 -18.501  0.00  0.00    +0.045 C 
ENDROOT
BRANCH  10   9
ATOM      4  C   UNL     1      -5.753   7.160 -23.296  0.00  0.00    +0.077 A 
ATOM      5  C   UNL     1      -4.450   6.773 -23.757  0.00  0.00    +0.048 A 
ATOM      6  C   UNL     1      -3.541   6.279 -22.795  0.00  0.00    +0.116 A 
ATOM      7  N   UNL     1      -3.917   6.183 -21.473  0.00  0.00    -0.223 NA
ATOM      8  C   UNL     1      -5.180   6.566 -21.061  0.00  0.00    +0.220 A 
ATOM      9  N   UNL     1      -5.582   6.471 -19.738  0.00  0.00    -0.283 N 
ATOM     36  H   UNL     1      -6.520   6.771 -19.473  0.00  0.00    +0.155 HD
ATOM     37  N   UNL     1      -6.066   7.043 -21.960  0.00  0.00    -0.214 NA
BRANCH   4   3
ATOM      1  C   UNL     1      -8.551   9.424 -24.828  0.00  0.00    +0.020 A 
ATOM      2  C   UNL     1      -7.523   8.949 -23.930  0.00  0.00    +0.013 A 
ATOM      3  C   UNL     1      -6.825   7.697 -24.192  0.00  0.00    +0.019 A 
ATOM     38  C   UNL     1      -7.193   6.943 -25.381  0.00  0.00    +0.120 A 
ATOM     39  N   UNL     1      -8.187   7.425 -26.227  0.00  0.00    -0.263 NA
ATOM     40  C   UNL     1      -8.867   8.627 -25.984  0.00  0.00    +0.111 A 
ENDBRANCH   4   3
ENDBRANCH  10   9
BRANCH  12  13
ATOM     13  N   UNL     1      -4.021   2.649 -16.961  0.00  0.00    -0.281 N 
ATOM     14  C   UNL     1      -4.494   2.143 -15.762  0.00  0.00    +0.248 C 
ATOM     30  O   UNL     1      -4.738   2.820 -14.774  0.00  0.00    -0.270 OA
ATOM     31  H   UNL     1      -3.676   1.962 -17.632  0.00  0.00    +0.155 HD
BRANCH  14  15
ATOM     15  C   UNL     1      -4.714   0.670 -15.636  0.00  0.00    +0.037 A 
ATOM     16  C   UNL     1      -4.214  -0.263 -16.650  0.00  0.00    +0.013 A 
ATOM     17  C   UNL     1      -4.455  -1.677 -16.513  0.00  0.00    +0.005 A 
ATOM     18  C   UNL     1      -5.199  -2.168 -15.355  0.00  0.00    -0.033 A 
ATOM     28  C   UNL     1      -5.679  -1.222 -14.362  0.00  0.00    +0.005 A 
ATOM     29  C   UNL     1      -5.446   0.165 -14.493  0.00  0.00    +0.013 A 
BRANCH  18  19
ATOM     19  C   UNL     1      -5.521  -3.659 -15.139  0.00  0.00    +0.119 C 
BRANCH  19  20
ATOM     20  N   UNL     1      -6.753  -4.194 -15.791  0.00  0.00    -0.302 NA
ATOM     21  C   UNL     1      -7.758  -4.730 -14.767  0.00  0.00    +0.066 C 
ATOM     22  C   UNL     1      -9.051  -5.265 -15.465  0.00  0.00    -0.064 C 
ATOM     23  N   UNL     1      -8.671  -6.353 -16.471  0.00  0.00    +0.379 N 
ATOM     24  C   UNL     1      -9.889  -6.898 -17.087  0.00  0.00    -0.096 C 
ATOM     25  H   UNL     1      -8.178  -7.178 -15.907  0.00  0.00    -0.082 HD
ATOM     26  C   UNL     1      -7.670  -5.829 -17.491  0.00  0.00    -0.064 C 
ATOM     27  C   UNL     1      -6.402  -5.272 -16.786  0.00  0.00    +0.066 C 
ENDBRANCH  19  20
ENDBRANCH  18  19
ENDBRANCH  14  15
ENDBRANCH  12  13
TORSDOF 6
ENDMDL
MODEL 5
REMARK VINA RESULT:      -8.1      4.651      8.582
REMARK  Name = C:\Users\Docking\Desktop\test protocol\1iep_ligandH.pdb
REMARK  8 active torsions:
REMARK  status: ('A' for Active; 'I' for Inactive)
REMARK    1  A    between atoms: _5  and  _11
REMARK    2  A    between atoms: _19  and  _21
REMARK    3  A    between atoms: _22  and  _66
REMARK    4  A    between atoms: _27  and  _30
REMARK    5  A    between atoms: _32  and  _33
REMARK    6  A    between atoms: _38  and  _43
REMARK    7  A    between atoms: _43  and  _46
REMARK    8  A    between atoms: _53  and  _55
REMARK                            x       y       z     vdW  Elec       q    Type
REMARK                         _______ _______ _______ _____ _____    ______ ____
ROOT
ATOM     10  C   UNL     1      -5.985  10.390 -27.787  0.00  0.00    +0.038 A 
ATOM     11  C   UNL     1      -5.948   9.669 -26.567  0.00  0.00    +0.047 A 
ATOM     12  C   UNL     1      -4.723   9.571 -25.788  0.00  0.00    +0.035 A 
ATOM     32  C   UNL     1      -3.555  10.223 -26.280  0.00  0.00    +0.024 A 
ATOM     33  C   UNL     1      -3.575  10.959 -27.519  0.00  0.00    +0.007 A 
ATOM     34  C   UNL     1      -4.779  11.057 -28.294  0.00  0.00    -0.029 A 
ATOM     35  C   UNL     1      -4.741  11.854 -29.618  0.00  0.00    +0.045 C 
ENDROOT
BRANCH  10   9
ATOM      4  C   UNL     1     -10.738   9.805 -28.115  0.00  0.00    +0.077 A 
ATOM      5  C   UNL     1     -10.829   9.309 -26.771  0.00  0.00    +0.048 A 
ATOM      6  C   UNL     1      -9.628   9.214 -26.032  0.00  0.00    +0.116 A 
ATOM      7  N   UNL     1      -8.432   9.589 -26.604  0.00  0.00    -0.223 NA
ATOM      8  C   UNL     1      -8.379  10.061 -27.903  0.00  0.00    +0.220 A 
ATOM      9  N   UNL     1      -7.188  10.451 -28.495  0.00  0.00    -0.283 N 
ATOM     36  H   UNL     1      -7.190  10.787 -29.458  0.00  0.00    +0.155 HD
ATOM     37  N   UNL     1      -9.511  10.160 -28.630  0.00  0.00    -0.214 NA
BRANCH   4   3
ATOM      1  C   UNL     1     -14.370   9.725 -29.564  0.00  0.00    +0.020 A 
ATOM      2  C   UNL     1     -13.264   9.546 -28.652  0.00  0.00    +0.013 A 
ATOM      3  C   UNL     1     -11.918   9.967 -29.021  0.00  0.00    +0.019 A 
ATOM     38  C   UNL     1     -11.724  10.571 -30.330  0.00  0.00    +0.120 A 
ATOM     39  N   UNL     1     -12.808  10.730 -31.188  0.00  0.00    -0.263 NA
ATOM     40  C   UNL     1     -14.107  10.327 -30.845  0.00  0.00    +0.111 A 
ENDBRANCH   4   3
ENDBRANCH  10   9
BRANCH  12  13
ATOM     13  N   UNL     1      -4.623   8.846 -24.545  0.00  0.00    -0.281 N 
ATOM     14  C   UNL     1      -4.947   7.521 -24.304  0.00  0.00    +0.248 C 
ATOM     30  O   UNL     1      -5.576   6.812 -25.075  0.00  0.00    -0.270 OA
ATOM     31  H   UNL     1      -4.271   9.374 -23.747  0.00  0.00    +0.155 HD
BRANCH  14  15
ATOM     15  C   UNL     1      -4.522   6.897 -23.014  0.00  0.00    +0.037 A 
ATOM     16  C   UNL     1      -3.192   6.303 -22.859  0.00  0.00    +0.013 A 
ATOM     17  C   UNL     1      -2.813   5.692 -21.609  0.00  0.00    +0.005 A 
ATOM     18  C   UNL     1      -3.768   5.674 -20.503  0.00  0.00    -0.033 A 
ATOM     28  C   UNL     1      -5.079   6.276 -20.683  0.00  0.00    +0.005 A 
ATOM     29  C   UNL     1      -5.453   6.874 -21.907  0.00  0.00    +0.013 A 
BRANCH  18  19
ATOM     19  C   UNL     1      -3.457   5.026 -19.141  0.00  0.00    +0.119 C 
BRANCH  19  20
ATOM     20  N   UNL     1      -4.258   5.485 -17.967  0.00  0.00    -0.302 NA
ATOM     21  C   UNL     1      -3.597   6.662 -17.245  0.00  0.00    +0.066 C 
ATOM     22  C   UNL     1      -4.459   7.144 -16.033  0.00  0.00    -0.064 C 
ATOM     23  N   UNL     1      -4.681   5.975 -15.072  0.00  0.00    +0.379 N 
ATOM     24  C   UNL     1      -5.442   6.439 -13.903  0.00  0.00    -0.096 C 
ATOM     25  H   UNL     1      -3.681   5.639 -14.713  0.00  0.00    -0.082 HD
ATOM     26  C   UNL     1      -5.336   4.799 -15.782  0.00  0.00    -0.064 C 
ATOM     27  C   UNL     1      -4.485   4.347 -17.003  0.00  0.00    +0.066 C 
ENDBRANCH  19  20
ENDBRANCH  18  19
ENDBRANCH  14  15
ENDBRANCH  12  13
TORSDOF 6
ENDMDL
