MODEL 1
REMARK VINA RESULT:     -12.3      0.000      0.000
REMARK  Name = C:\Users\Docking\Desktop\test protocol\1iep_ligandH.pdb
REMARK  8 active torsions:
REMARK  status: ('A' for Active; 'I' for Inactive)
REMARK    1  A    between atoms: _5  and  _11
REMARK    2  A    between atoms: _19  and  _21
REMARK    3  A    between atoms: _22  and  _66
REMARK    4  A    between atoms: _27  and  _30
REMARK    5  A    between atoms: _32  and  _33
REMARK    6  A    between atoms: _38  and  _43
REMARK    7  A    between atoms: _43  and  _46
REMARK    8  A    between atoms: _53  and  _55
REMARK                            x       y       z     vdW  Elec       q    Type
REMARK                         _______ _______ _______ _____ _____    ______ ____
ROOT
ATOM     10  C   UNL     1       1.413  -3.620  -4.286  0.00  0.00    +0.038 A 
ATOM     11  C   UNL     1       0.631  -3.249  -5.411  0.00  0.00    +0.047 A 
ATOM     12  C   UNL     1       1.251  -2.948  -6.692  0.00  0.00    +0.035 A 
ATOM     32  C   UNL     1       2.670  -3.037  -6.793  0.00  0.00    +0.024 A 
ATOM     33  C   UNL     1       3.480  -3.411  -5.660  0.00  0.00    +0.007 A 
ATOM     34  C   UNL     1       2.874  -3.707  -4.393  0.00  0.00    -0.029 A 
ATOM     35  C   UNL     1       3.792  -4.096  -3.211  0.00  0.00    +0.045 C 
ENDROOT
BRANCH  10   9
ATOM      4  C   UNL     1      -0.676  -2.247  -0.188  0.00  0.00    +0.077 A 
ATOM      5  C   UNL     1      -0.432  -0.860  -0.460  0.00  0.00    +0.048 A 
ATOM      6  C   UNL     1       0.240  -0.542  -1.661  0.00  0.00    +0.116 A 
ATOM      7  N   UNL     1       0.634  -1.545  -2.520  0.00  0.00    -0.223 NA
ATOM      8  C   UNL     1       0.385  -2.873  -2.228  0.00  0.00    +0.220 A 
ATOM      9  N   UNL     1       0.765  -3.898  -3.081  0.00  0.00    -0.283 N 
ATOM     36  H   UNL     1       0.569  -4.866  -2.825  0.00  0.00    +0.155 HD
ATOM     37  N   UNL     1      -0.254  -3.203  -1.086  0.00  0.00    -0.214 NA
BRANCH   4   3
ATOM      1  C   UNL     1      -2.688  -4.476   2.318  0.00  0.00    +0.020 A 
ATOM      2  C   UNL     1      -2.024  -4.046   1.109  0.00  0.00    +0.013 A 
ATOM      3  C   UNL     1      -1.377  -2.742   1.038  0.00  0.00    +0.019 A 
ATOM     38  C   UNL     1      -1.420  -1.891   2.218  0.00  0.00    +0.120 A 
ATOM     39  N   UNL     1      -2.068  -2.331   3.367  0.00  0.00    -0.263 NA
ATOM     40  C   UNL     1      -2.695  -3.583   3.447  0.00  0.00    +0.111 A 
ENDBRANCH   4   3
ENDBRANCH  10   9
BRANCH  12  13
ATOM     13  N   UNL     1       0.510  -2.559  -7.866  0.00  0.00    -0.281 N 
ATOM     14  C   UNL     1       0.389  -3.246  -9.063  0.00  0.00    +0.248 C 
ATOM     30  O   UNL     1       1.078  -4.203  -9.383  0.00  0.00    -0.270 OA
ATOM     31  H   UNL     1       0.015  -1.669  -7.807  0.00  0.00    +0.155 HD
BRANCH  14  15
ATOM     15  C   UNL     1      -0.636  -2.795 -10.053  0.00  0.00    +0.037 A 
ATOM     16  C   UNL     1      -0.260  -2.422 -11.419  0.00  0.00    +0.013 A 
ATOM     17  C   UNL     1      -1.266  -1.974 -12.349  0.00  0.00    +0.005 A 
ATOM     18  C   UNL     1      -2.659  -1.898 -11.916  0.00  0.00    -0.033 A 
ATOM     28  C   UNL     1      -3.005  -2.280 -10.557  0.00  0.00    +0.005 A 
ATOM     29  C   UNL     1      -2.021  -2.718  -9.642  0.00  0.00    +0.013 A 
BRANCH  18  19
ATOM     19  C   UNL     1      -3.795  -1.412 -12.835  0.00  0.00    +0.119 C 
BRANCH  19  20
ATOM     20  N   UNL     1      -3.953  -2.100 -14.151  0.00  0.00    -0.302 NA
ATOM     21  C   UNL     1      -5.208  -1.636 -14.895  0.00  0.00    +0.066 C 
ATOM     22  C   UNL     1      -5.345  -2.350 -16.279  0.00  0.00    -0.064 C 
ATOM     23  N   UNL     1      -5.369  -3.865 -16.069  0.00  0.00    +0.379 N 
ATOM     24  C   UNL     1      -5.556  -4.537 -17.363  0.00  0.00    -0.096 C 
ATOM     25  H   UNL     1      -6.252  -4.104 -15.433  0.00  0.00    -0.082 HD
ATOM     26  C   UNL     1      -4.125  -4.334 -15.327  0.00  0.00    -0.064 C 
ATOM     27  C   UNL     1      -3.983  -3.597 -13.966  0.00  0.00    +0.066 C 
ENDBRANCH  19  20
ENDBRANCH  18  19
ENDBRANCH  14  15
ENDBRANCH  12  13
TORSDOF 6
ENDMDL
MODEL 2
REMARK VINA RESULT:     -11.2      2.714     13.032
REMARK  Name = C:\Users\Docking\Desktop\test protocol\1iep_ligandH.pdb
REMARK  8 active torsions:
REMARK  status: ('A' for Active; 'I' for Inactive)
REMARK    1  A    between atoms: _5  and  _11
REMARK    2  A    between atoms: _19  and  _21
REMARK    3  A    between atoms: _22  and  _66
REMARK    4  A    between atoms: _27  and  _30
REMARK    5  A    between atoms: _32  and  _33
REMARK    6  A    between atoms: _38  and  _43
REMARK    7  A    between atoms: _43  and  _46
REMARK    8  A    between atoms: _53  and  _55
REMARK                            x       y       z     vdW  Elec       q    Type
REMARK                         _______ _______ _______ _____ _____    ______ ____
ROOT
ATOM     10  C   UNL     1       1.739  -3.873  -8.792  0.00  0.00    +0.038 A 
ATOM     11  C   UNL     1       1.047  -3.650  -7.574  0.00  0.00    +0.047 A 
ATOM     12  C   UNL     1       1.633  -2.848  -6.511  0.00  0.00    +0.035 A 
ATOM     32  C   UNL     1       2.926  -2.286  -6.723  0.00  0.00    +0.024 A 
ATOM     33  C   UNL     1       3.644  -2.503  -7.954  0.00  0.00    +0.007 A 
ATOM     34  C   UNL     1       3.072  -3.295  -9.005  0.00  0.00    -0.029 A 
ATOM     35  C   UNL     1       3.890  -3.500 -10.301  0.00  0.00    +0.045 C 
ENDROOT
BRANCH  10   9
ATOM      4  C   UNL     1      -1.019  -4.365 -12.689  0.00  0.00    +0.077 A 
ATOM      5  C   UNL     1      -1.289  -2.958 -12.748  0.00  0.00    +0.048 A 
ATOM      6  C   UNL     1      -0.705  -2.142 -11.753  0.00  0.00    +0.116 A 
ATOM      7  N   UNL     1       0.089  -2.704 -10.776  0.00  0.00    -0.223 NA
ATOM      8  C   UNL     1       0.328  -4.065 -10.747  0.00  0.00    +0.220 A 
ATOM      9  N   UNL     1       1.129  -4.650  -9.779  0.00  0.00    -0.283 N 
ATOM     36  H   UNL     1       1.275  -5.659  -9.787  0.00  0.00    +0.155 HD
ATOM     37  N   UNL     1      -0.219  -4.866 -11.685  0.00  0.00    -0.214 NA
BRANCH   4   3
ATOM      1  C   UNL     1      -2.066  -7.710 -14.425  0.00  0.00    +0.020 A 
ATOM      2  C   UNL     1      -1.529  -6.796 -13.444  0.00  0.00    +0.013 A 
ATOM      3  C   UNL     1      -1.561  -5.356 -13.671  0.00  0.00    +0.019 A 
ATOM     38  C   UNL     1      -2.149  -4.871 -14.911  0.00  0.00    +0.120 A 
ATOM     39  N   UNL     1      -2.658  -5.775 -15.838  0.00  0.00    -0.263 NA
ATOM     40  C   UNL     1      -2.631  -7.163 -15.631  0.00  0.00    +0.111 A 
ENDBRANCH   4   3
ENDBRANCH  10   9
BRANCH  12  13
ATOM     13  N   UNL     1       0.981  -2.595  -5.250  0.00  0.00    -0.281 N 
ATOM     14  C   UNL     1       1.275  -3.144  -4.013  0.00  0.00    +0.248 C 
ATOM     30  O   UNL     1       2.011  -4.105  -3.841  0.00  0.00    -0.270 OA
ATOM     31  H   UNL     1       0.208  -1.929  -5.272  0.00  0.00    +0.155 HD
BRANCH  14  15
ATOM     15  C   UNL     1       0.651  -2.551  -2.792  0.00  0.00    +0.037 A 
ATOM     16  C   UNL     1       0.387  -1.113  -2.696  0.00  0.00    +0.013 A 
ATOM     17  C   UNL     1      -0.200  -0.563  -1.500  0.00  0.00    +0.005 A 
ATOM     18  C   UNL     1      -0.530  -1.454  -0.390  0.00  0.00    -0.033 A 
ATOM     28  C   UNL     1      -0.262  -2.878  -0.514  0.00  0.00    +0.005 A 
ATOM     29  C   UNL     1       0.314  -3.419  -1.684  0.00  0.00    +0.013 A 
BRANCH  18  19
ATOM     19  C   UNL     1      -1.140  -0.952   0.933  0.00  0.00    +0.119 C 
BRANCH  19  20
ATOM     20  N   UNL     1      -0.192  -0.587   2.027  0.00  0.00    -0.302 NA
ATOM     21  C   UNL     1       1.236  -1.054   1.731  0.00  0.00    +0.066 C 
ATOM     22  C   UNL     1       2.218  -0.643   2.876  0.00  0.00    -0.064 C 
ATOM     23  N   UNL     1       1.722  -1.223   4.202  0.00  0.00    +0.379 N 
ATOM     24  C   UNL     1       2.674  -0.887   5.271  0.00  0.00    -0.096 C 
ATOM     25  H   UNL     1       1.705  -2.333   4.100  0.00  0.00    -0.082 HD
ATOM     26  C   UNL     1       0.302  -0.765   4.503  0.00  0.00    -0.064 C 
ATOM     27  C   UNL     1      -0.660  -1.153   3.345  0.00  0.00    +0.066 C 
ENDBRANCH  19  20
ENDBRANCH  18  19
ENDBRANCH  14  15
ENDBRANCH  12  13
TORSDOF 6
ENDMDL
MODEL 3
REMARK VINA RESULT:     -11.2      2.534     12.380
REMARK  Name = C:\Users\Docking\Desktop\test protocol\1iep_ligandH.pdb
REMARK  8 active torsions:
REMARK  status: ('A' for Active; 'I' for Inactive)
REMARK    1  A    between atoms: _5  and  _11
REMARK    2  A    between atoms: _19  and  _21
REMARK    3  A    between atoms: _22  and  _66
REMARK    4  A    between atoms: _27  and  _30
REMARK    5  A    between atoms: _32  and  _33
REMARK    6  A    between atoms: _38  and  _43
REMARK    7  A    between atoms: _43  and  _46
REMARK    8  A    between atoms: _53  and  _55
REMARK                            x       y       z     vdW  Elec       q    Type
REMARK                         _______ _______ _______ _____ _____    ______ ____
ROOT
ATOM     10  C   UNL     1       1.717  -3.884  -8.979  0.00  0.00    +0.038 A 
ATOM     11  C   UNL     1       1.035  -3.718  -7.746  0.00  0.00    +0.047 A 
ATOM     12  C   UNL     1       1.608  -2.923  -6.671  0.00  0.00    +0.035 A 
ATOM     32  C   UNL     1       2.876  -2.309  -6.886  0.00  0.00    +0.024 A 
ATOM     33  C   UNL     1       3.583  -2.468  -8.133  0.00  0.00    +0.007 A 
ATOM     34  C   UNL     1       3.024  -3.253  -9.196  0.00  0.00    -0.029 A 
ATOM     35  C   UNL     1       3.830  -3.395 -10.509  0.00  0.00    +0.045 C 
ENDROOT
BRANCH  10   9
ATOM      4  C   UNL     1      -1.104  -4.382 -12.830  0.00  0.00    +0.077 A 
ATOM      5  C   UNL     1      -1.439  -2.987 -12.838  0.00  0.00    +0.048 A 
ATOM      6  C   UNL     1      -0.870  -2.177 -11.830  0.00  0.00    +0.116 A 
ATOM      7  N   UNL     1      -0.030  -2.731 -10.889  0.00  0.00    -0.223 NA
ATOM      8  C   UNL     1       0.271  -4.081 -10.909  0.00  0.00    +0.220 A 
ATOM      9  N   UNL     1       1.120  -4.658  -9.977  0.00  0.00    -0.283 N 
ATOM     36  H   UNL     1       1.312  -5.658 -10.021  0.00  0.00    +0.155 HD
ATOM     37  N   UNL     1      -0.260  -4.876 -11.860  0.00  0.00    -0.214 NA
BRANCH   4   3
ATOM      1  C   UNL     1      -2.165  -7.710 -14.590  0.00  0.00    +0.020 A 
ATOM      2  C   UNL     1      -1.653  -6.802 -13.589  0.00  0.00    +0.013 A 
ATOM      3  C   UNL     1      -1.623  -5.366 -13.832  0.00  0.00    +0.019 A 
ATOM     38  C   UNL     1      -2.123  -4.875 -15.108  0.00  0.00    +0.120 A 
ATOM     39  N   UNL     1      -2.608  -5.773 -16.053  0.00  0.00    -0.263 NA
ATOM     40  C   UNL     1      -2.641  -7.158 -15.832  0.00  0.00    +0.111 A 
ENDBRANCH   4   3
ENDBRANCH  10   9
BRANCH  12  13
ATOM     13  N   UNL     1       0.966  -2.725  -5.395  0.00  0.00    -0.281 N 
ATOM     14  C   UNL     1       1.396  -3.155  -4.150  0.00  0.00    +0.248 C 
ATOM     30  O   UNL     1       2.294  -3.964  -3.970  0.00  0.00    -0.270 OA
ATOM     31  H   UNL     1       0.089  -2.205  -5.411  0.00  0.00    +0.155 HD
BRANCH  14  15
ATOM     15  C   UNL     1       0.720  -2.620  -2.929  0.00  0.00    +0.037 A 
ATOM     16  C   UNL     1       0.387  -1.199  -2.805  0.00  0.00    +0.013 A 
ATOM     17  C   UNL     1      -0.249  -0.706  -1.609  0.00  0.00    +0.005 A 
ATOM     18  C   UNL     1      -0.557  -1.637  -0.527  0.00  0.00    -0.033 A 
ATOM     28  C   UNL     1      -0.221  -3.043  -0.677  0.00  0.00    +0.005 A 
ATOM     29  C   UNL     1       0.404  -3.530  -1.848  0.00  0.00    +0.013 A 
BRANCH  18  19
ATOM     19  C   UNL     1      -1.216  -1.196   0.794  0.00  0.00    +0.119 C 
BRANCH  19  20
ATOM     20  N   UNL     1      -2.377  -1.999   1.281  0.00  0.00    -0.302 NA
ATOM     21  C   UNL     1      -3.646  -1.726   0.467  0.00  0.00    +0.066 C 
ATOM     22  C   UNL     1      -4.845  -2.591   0.976  0.00  0.00    -0.064 C 
ATOM     23  N   UNL     1      -5.081  -2.307   2.460  0.00  0.00    +0.379 N 
ATOM     24  C   UNL     1      -6.245  -3.076   2.927  0.00  0.00    -0.096 C 
ATOM     25  H   UNL     1      -5.328  -1.225   2.562  0.00  0.00    -0.082 HD
ATOM     26  C   UNL     1      -3.824  -2.573   3.276  0.00  0.00    -0.064 C 
ATOM     27  C   UNL     1      -2.631  -1.731   2.744  0.00  0.00    +0.066 C 
ENDBRANCH  19  20
ENDBRANCH  18  19
ENDBRANCH  14  15
ENDBRANCH  12  13
TORSDOF 6
ENDMDL
MODEL 4
REMARK VINA RESULT:     -11.1      4.487     15.035
REMARK  Name = C:\Users\Docking\Desktop\test protocol\1iep_ligandH.pdb
REMARK  8 active torsions:
REMARK  status: ('A' for Active; 'I' for Inactive)
REMARK    1  A    between atoms: _5  and  _11
REMARK    2  A    between atoms: _19  and  _21
REMARK    3  A    between atoms: _22  and  _66
REMARK    4  A    between atoms: _27  and  _30
REMARK    5  A    between atoms: _32  and  _33
REMARK    6  A    between atoms: _38  and  _43
REMARK    7  A    between atoms: _43  and  _46
REMARK    8  A    between atoms: _53  and  _55
REMARK                            x       y       z     vdW  Elec       q    Type
REMARK                         _______ _______ _______ _____ _____    ______ ____
ROOT
ATOM     10  C   UNL     1      -6.478  -0.750 -16.595  0.00  0.00    +0.038 A 
ATOM     11  C   UNL     1      -5.922  -1.351 -15.437  0.00  0.00    +0.047 A 
ATOM     12  C   UNL     1      -4.962  -0.639 -14.607  0.00  0.00    +0.035 A 
ATOM     32  C   UNL     1      -4.593   0.685 -14.985  0.00  0.00    +0.024 A 
ATOM     33  C   UNL     1      -5.147   1.310 -16.160  0.00  0.00    +0.007 A 
ATOM     34  C   UNL     1      -6.093   0.612 -16.984  0.00  0.00    -0.029 A 
ATOM     35  C   UNL     1      -6.650   1.329 -18.235  0.00  0.00    +0.045 C 
ENDROOT
BRANCH  10   9
ATOM      4  C   UNL     1      -7.857  -4.738 -18.883  0.00  0.00    +0.077 A 
ATOM      5  C   UNL     1      -6.636  -5.417 -18.559  0.00  0.00    +0.048 A 
ATOM      6  C   UNL     1      -5.675  -4.702 -17.808  0.00  0.00    +0.116 A 
ATOM      7  N   UNL     1      -5.929  -3.406 -17.416  0.00  0.00    -0.223 NA
ATOM      8  C   UNL     1      -7.116  -2.780 -17.746  0.00  0.00    +0.220 A 
ATOM      9  N   UNL     1      -7.395  -1.479 -17.355  0.00  0.00    -0.283 N 
ATOM     36  H   UNL     1      -8.280  -1.050 -17.625  0.00  0.00    +0.155 HD
ATOM     37  N   UNL     1      -8.049  -3.440 -18.464  0.00  0.00    -0.214 NA
BRANCH   4   3
ATOM      1  C   UNL     1      -9.877  -7.047 -21.310  0.00  0.00    +0.020 A 
ATOM      2  C   UNL     1      -8.768  -6.482 -20.576  0.00  0.00    +0.013 A 
ATOM      3  C   UNL     1      -8.970  -5.360 -19.667  0.00  0.00    +0.019 A 
ATOM     38  C   UNL     1     -10.318  -4.831 -19.522  0.00  0.00    +0.120 A 
ATOM     39  N   UNL     1     -11.366  -5.394 -20.242  0.00  0.00    -0.263 NA
ATOM     40  C   UNL     1     -11.183  -6.472 -21.121  0.00  0.00    +0.111 A 
ENDBRANCH   4   3
ENDBRANCH  10   9
BRANCH  12  13
ATOM     13  N   UNL     1      -4.358  -1.200 -13.424  0.00  0.00    -0.281 N 
ATOM     14  C   UNL     1      -3.083  -1.724 -13.286  0.00  0.00    +0.248 C 
ATOM     30  O   UNL     1      -2.338  -1.985 -14.219  0.00  0.00    -0.270 OA
ATOM     31  H   UNL     1      -4.941  -1.213 -12.587  0.00  0.00    +0.155 HD
BRANCH  14  15
ATOM     15  C   UNL     1      -2.566  -2.013 -11.914  0.00  0.00    +0.037 A 
ATOM     16  C   UNL     1      -1.129  -2.124 -11.651  0.00  0.00    +0.013 A 
ATOM     17  C   UNL     1      -0.658  -2.420 -10.321  0.00  0.00    +0.005 A 
ATOM     18  C   UNL     1      -1.626  -2.606  -9.243  0.00  0.00    -0.033 A 
ATOM     28  C   UNL     1      -3.046  -2.485  -9.531  0.00  0.00    +0.005 A 
ATOM     29  C   UNL     1      -3.511  -2.196 -10.833  0.00  0.00    +0.013 A 
BRANCH  18  19
ATOM     19  C   UNL     1      -1.214  -2.945  -7.798  0.00  0.00    +0.119 C 
BRANCH  19  20
ATOM     20  N   UNL     1       0.231  -2.807  -7.449  0.00  0.00    -0.302 NA
ATOM     21  C   UNL     1       1.101  -3.831  -8.183  0.00  0.00    +0.066 C 
ATOM     22  C   UNL     1       2.612  -3.658  -7.823  0.00  0.00    -0.064 C 
ATOM     23  N   UNL     1       2.791  -3.782  -6.309  0.00  0.00    +0.379 N 
ATOM     24  C   UNL     1       4.218  -3.677  -5.973  0.00  0.00    -0.096 C 
ATOM     25  H   UNL     1       2.447  -4.800  -6.011  0.00  0.00    -0.082 HD
ATOM     26  C   UNL     1       1.928  -2.769  -5.571  0.00  0.00    -0.064 C 
ATOM     27  C   UNL     1       0.431  -2.931  -5.958  0.00  0.00    +0.066 C 
ENDBRANCH  19  20
ENDBRANCH  18  19
ENDBRANCH  14  15
ENDBRANCH  12  13
TORSDOF 6
ENDMDL
MODEL 5
REMARK VINA RESULT:     -10.9      3.075     12.310
REMARK  Name = C:\Users\Docking\Desktop\test protocol\1iep_ligandH.pdb
REMARK  8 active torsions:
REMARK  status: ('A' for Active; 'I' for Inactive)
REMARK    1  A    between atoms: _5  and  _11
REMARK    2  A    between atoms: _19  and  _21
REMARK    3  A    between atoms: _22  and  _66
REMARK    4  A    between atoms: _27  and  _30
REMARK    5  A    between atoms: _32  and  _33
REMARK    6  A    between atoms: _38  and  _43
REMARK    7  A    between atoms: _43  and  _46
REMARK    8  A    between atoms: _53  and  _55
REMARK                            x       y       z     vdW  Elec       q    Type
REMARK                         _______ _______ _______ _____ _____    ______ ____
ROOT
ATOM     10  C   UNL     1       1.712  -3.864  -8.828  0.00  0.00    +0.038 A 
ATOM     11  C   UNL     1       1.026  -3.650  -7.605  0.00  0.00    +0.047 A 
ATOM     12  C   UNL     1       1.600  -2.825  -6.554  0.00  0.00    +0.035 A 
ATOM     32  C   UNL     1       2.875  -2.230  -6.783  0.00  0.00    +0.024 A 
ATOM     33  C   UNL     1       3.587  -2.438  -8.019  0.00  0.00    +0.007 A 
ATOM     34  C   UNL     1       3.026  -3.253  -9.059  0.00  0.00    -0.029 A 
ATOM     35  C   UNL     1       3.837  -3.446 -10.362  0.00  0.00    +0.045 C 
ENDROOT
BRANCH  10   9
ATOM      4  C   UNL     1      -1.041  -4.456 -12.715  0.00  0.00    +0.077 A 
ATOM      5  C   UNL     1      -1.334  -3.054 -12.794  0.00  0.00    +0.048 A 
ATOM      6  C   UNL     1      -0.762  -2.215 -11.811  0.00  0.00    +0.116 A 
ATOM      7  N   UNL     1       0.041  -2.750 -10.827  0.00  0.00    -0.223 NA
ATOM      8  C   UNL     1       0.302  -4.107 -10.779  0.00  0.00    +0.220 A 
ATOM      9  N   UNL     1       1.114  -4.665  -9.803  0.00  0.00    -0.283 N 
ATOM     36  H   UNL     1       1.276  -5.672  -9.797  0.00  0.00    +0.155 HD
ATOM     37  N   UNL     1      -0.233  -4.929 -11.705  0.00  0.00    -0.214 NA
BRANCH   4   3
ATOM      1  C   UNL     1      -1.970  -7.843 -14.437  0.00  0.00    +0.020 A 
ATOM      2  C   UNL     1      -1.443  -6.906 -13.472  0.00  0.00    +0.013 A 
ATOM      3  C   UNL     1      -1.568  -5.470 -13.683  0.00  0.00    +0.019 A 
ATOM     38  C   UNL     1      -2.238  -5.010 -14.890  0.00  0.00    +0.120 A 
ATOM     39  N   UNL     1      -2.735  -5.935 -15.802  0.00  0.00    -0.263 NA
ATOM     40  C   UNL     1      -2.618  -7.320 -15.611  0.00  0.00    +0.111 A 
ENDBRANCH   4   3
ENDBRANCH  10   9
BRANCH  12  13
ATOM     13  N   UNL     1       0.953  -2.579  -5.289  0.00  0.00    -0.281 N 
ATOM     14  C   UNL     1       1.231  -3.162  -4.063  0.00  0.00    +0.248 C 
ATOM     30  O   UNL     1       1.939  -4.146  -3.910  0.00  0.00    -0.270 OA
ATOM     31  H   UNL     1       0.200  -1.891  -5.298  0.00  0.00    +0.155 HD
BRANCH  14  15
ATOM     15  C   UNL     1       0.621  -2.576  -2.831  0.00  0.00    +0.037 A 
ATOM     16  C   UNL     1       0.290  -3.413  -1.675  0.00  0.00    +0.013 A 
ATOM     17  C   UNL     1      -0.313  -2.825  -0.505  0.00  0.00    +0.005 A 
ATOM     18  C   UNL     1      -0.587  -1.390  -0.485  0.00  0.00    -0.033 A 
ATOM     28  C   UNL     1      -0.244  -0.582  -1.643  0.00  0.00    +0.005 A 
ATOM     29  C   UNL     1       0.346  -1.155  -2.792  0.00  0.00    +0.013 A 
BRANCH  18  19
ATOM     19  C   UNL     1      -1.247  -0.682   0.712  0.00  0.00    +0.119 C 
BRANCH  19  20
ATOM     20  N   UNL     1      -1.940   0.614   0.443  0.00  0.00    -0.302 NA
ATOM     21  C   UNL     1      -1.256   1.788   1.148  0.00  0.00    +0.066 C 
ATOM     22  C   UNL     1      -1.980   3.139   0.838  0.00  0.00    -0.064 C 
ATOM     23  N   UNL     1      -3.447   3.036   1.258  0.00  0.00    +0.379 N 
ATOM     24  C   UNL     1      -4.117   4.323   1.020  0.00  0.00    -0.096 C 
ATOM     25  H   UNL     1      -3.472   2.838   2.354  0.00  0.00    -0.082 HD
ATOM     26  C   UNL     1      -4.135   1.869   0.563  0.00  0.00    -0.064 C 
ATOM     27  C   UNL     1      -3.390   0.536   0.854  0.00  0.00    +0.066 C 
ENDBRANCH  19  20
ENDBRANCH  18  19
ENDBRANCH  14  15
ENDBRANCH  12  13
TORSDOF 6
ENDMDL
