MODEL 1
REMARK VINA RESULT:      -9.1      0.000      0.000
REMARK  Name = C:\Users\Docking\Desktop\test protocol\1iep_ligandH.pdb
REMARK  8 active torsions:
REMARK  status: ('A' for Active; 'I' for Inactive)
REMARK    1  A    between atoms: _5  and  _11
REMARK    2  A    between atoms: _19  and  _21
REMARK    3  A    between atoms: _22  and  _66
REMARK    4  A    between atoms: _27  and  _30
REMARK    5  A    between atoms: _32  and  _33
REMARK    6  A    between atoms: _38  and  _43
REMARK    7  A    between atoms: _43  and  _46
REMARK    8  A    between atoms: _53  and  _55
REMARK                            x       y       z     vdW  Elec       q    Type
REMARK                         _______ _______ _______ _____ _____    ______ ____
ROOT
ATOM     10  C   UNL     1      28.093  36.558  70.119  0.00  0.00    +0.038 A 
ATOM     11  C   UNL     1      27.891  35.468  71.004  0.00  0.00    +0.047 A 
ATOM     12  C   UNL     1      27.613  34.132  70.502  0.00  0.00    +0.035 A 
ATOM     32  C   UNL     1      27.550  33.940  69.090  0.00  0.00    +0.024 A 
ATOM     33  C   UNL     1      27.752  35.037  68.176  0.00  0.00    +0.007 A 
ATOM     34  C   UNL     1      28.024  36.358  68.667  0.00  0.00    -0.029 A 
ATOM     35  C   UNL     1      28.226  37.497  67.641  0.00  0.00    +0.045 C 
ENDROOT
BRANCH  10   9
ATOM      4  C   UNL     1      26.817  40.430  72.652  0.00  0.00    +0.077 A 
ATOM      5  C   UNL     1      25.505  39.907  72.903  0.00  0.00    +0.048 A 
ATOM      6  C   UNL     1      25.196  38.641  72.356  0.00  0.00    +0.116 A 
ATOM      7  N   UNL     1      26.137  37.958  71.616  0.00  0.00    -0.223 NA
ATOM      8  C   UNL     1      27.392  38.492  71.392  0.00  0.00    +0.220 A 
ATOM      9  N   UNL     1      28.356  37.820  70.657  0.00  0.00    -0.283 N 
ATOM     36  H   UNL     1      29.268  38.251  70.507  0.00  0.00    +0.155 HD
ATOM     37  N   UNL     1      27.711  39.700  71.901  0.00  0.00    -0.214 NA
BRANCH   4   3
ATOM      1  C   UNL     1      27.512  43.508  74.964  0.00  0.00    +0.020 A 
ATOM      2  C   UNL     1      27.028  42.222  74.519  0.00  0.00    +0.013 A 
ATOM      3  C   UNL     1      27.295  41.753  73.165  0.00  0.00    +0.019 A 
ATOM     38  C   UNL     1      28.062  42.617  72.280  0.00  0.00    +0.120 A 
ATOM     39  N   UNL     1      28.514  43.851  72.736  0.00  0.00    -0.263 NA
ATOM     40  C   UNL     1      28.262  44.313  74.037  0.00  0.00    +0.111 A 
ENDBRANCH   4   3
ENDBRANCH  10   9
BRANCH  12  13
ATOM     13  N   UNL     1      27.391  32.989  71.352  0.00  0.00    -0.281 N 
ATOM     14  C   UNL     1      26.205  32.585  71.944  0.00  0.00    +0.248 C 
ATOM     30  O   UNL     1      25.195  33.270  72.006  0.00  0.00    -0.270 OA
ATOM     31  H   UNL     1      28.207  32.406  71.540  0.00  0.00    +0.155 HD
BRANCH  14  15
ATOM     15  C   UNL     1      26.136  31.230  72.572  0.00  0.00    +0.037 A 
ATOM     16  C   UNL     1      25.852  31.067  73.999  0.00  0.00    +0.013 A 
ATOM     17  C   UNL     1      25.808  29.750  74.583  0.00  0.00    +0.005 A 
ATOM     18  C   UNL     1      26.048  28.584  73.736  0.00  0.00    -0.033 A 
ATOM     28  C   UNL     1      26.323  28.774  72.322  0.00  0.00    +0.005 A 
ATOM     29  C   UNL     1      26.368  30.063  71.747  0.00  0.00    +0.013 A 
BRANCH  18  19
ATOM     19  C   UNL     1      26.042  27.142  74.278  0.00  0.00    +0.119 C 
BRANCH  19  20
ATOM     20  N   UNL     1      27.334  26.394  74.246  0.00  0.00    -0.302 NA
ATOM     21  C   UNL     1      27.182  25.013  73.602  0.00  0.00    +0.066 C 
ATOM     22  C   UNL     1      28.548  24.253  73.556  0.00  0.00    -0.064 C 
ATOM     23  N   UNL     1      29.108  24.131  74.974  0.00  0.00    +0.379 N 
ATOM     24  C   UNL     1      30.363  23.366  74.942  0.00  0.00    -0.096 C 
ATOM     25  H   UNL     1      28.373  23.549  75.579  0.00  0.00    -0.082 HD
ATOM     26  C   UNL     1      29.259  25.499  75.623  0.00  0.00    -0.064 C 
ATOM     27  C   UNL     1      27.903  26.258  75.637  0.00  0.00    +0.066 C 
ENDBRANCH  19  20
ENDBRANCH  18  19
ENDBRANCH  14  15
ENDBRANCH  12  13
TORSDOF 6
ENDMDL
MODEL 2
REMARK VINA RESULT:      -9.0     30.476     32.435
REMARK  Name = C:\Users\Docking\Desktop\test protocol\1iep_ligandH.pdb
REMARK  8 active torsions:
REMARK  status: ('A' for Active; 'I' for Inactive)
REMARK    1  A    between atoms: _5  and  _11
REMARK    2  A    between atoms: _19  and  _21
REMARK    3  A    between atoms: _22  and  _66
REMARK    4  A    between atoms: _27  and  _30
REMARK    5  A    between atoms: _32  and  _33
REMARK    6  A    between atoms: _38  and  _43
REMARK    7  A    between atoms: _43  and  _46
REMARK    8  A    between atoms: _53  and  _55
REMARK                            x       y       z     vdW  Elec       q    Type
REMARK                         _______ _______ _______ _____ _____    ______ ____
ROOT
ATOM     10  C   UNL     1      54.591  41.593  55.735  0.00  0.00    +0.038 A 
ATOM     11  C   UNL     1      54.993  41.822  57.075  0.00  0.00    +0.047 A 
ATOM     12  C   UNL     1      55.726  40.812  57.824  0.00  0.00    +0.035 A 
ATOM     32  C   UNL     1      56.033  39.581  57.175  0.00  0.00    +0.024 A 
ATOM     33  C   UNL     1      55.630  39.331  55.814  0.00  0.00    +0.007 A 
ATOM     34  C   UNL     1      54.906  40.322  55.071  0.00  0.00    -0.029 A 
ATOM     35  C   UNL     1      54.494  39.997  53.616  0.00  0.00    +0.045 C 
ENDROOT
BRANCH  10   9
ATOM      4  C   UNL     1      50.512  43.632  54.238  0.00  0.00    +0.077 A 
ATOM      5  C   UNL     1      49.710  42.596  54.821  0.00  0.00    +0.048 A 
ATOM      6  C   UNL     1      50.386  41.552  55.491  0.00  0.00    +0.116 A 
ATOM      7  N   UNL     1      51.762  41.555  55.567  0.00  0.00    -0.223 NA
ATOM      8  C   UNL     1      52.506  42.569  54.992  0.00  0.00    +0.220 A 
ATOM      9  N   UNL     1      53.890  42.597  55.063  0.00  0.00    -0.283 N 
ATOM     36  H   UNL     1      54.402  43.359  54.619  0.00  0.00    +0.155 HD
ATOM     37  N   UNL     1      51.884  43.577  54.345  0.00  0.00    -0.214 NA
BRANCH   4   3
ATOM      1  C   UNL     1      50.036  46.576  51.706  0.00  0.00    +0.020 A 
ATOM      2  C   UNL     1      50.629  45.447  52.385  0.00  0.00    +0.013 A 
ATOM      3  C   UNL     1      49.944  44.805  53.500  0.00  0.00    +0.019 A 
ATOM     38  C   UNL     1      48.650  45.334  53.906  0.00  0.00    +0.120 A 
ATOM     39  N   UNL     1      48.105  46.423  53.234  0.00  0.00    -0.263 NA
ATOM     40  C   UNL     1      48.756  47.050  52.160  0.00  0.00    +0.111 A 
ENDBRANCH   4   3
ENDBRANCH  10   9
BRANCH  12  13
ATOM     13  N   UNL     1      56.154  40.985  59.190  0.00  0.00    -0.281 N 
ATOM     14  C   UNL     1      56.885  42.032  59.727  0.00  0.00    +0.248 C 
ATOM     30  O   UNL     1      57.468  42.879  59.066  0.00  0.00    -0.270 OA
ATOM     31  H   UNL     1      55.885  40.246  59.840  0.00  0.00    +0.155 HD
BRANCH  14  15
ATOM     15  C   UNL     1      56.996  42.147  61.213  0.00  0.00    +0.037 A 
ATOM     16  C   UNL     1      56.154  41.343  62.103  0.00  0.00    +0.013 A 
ATOM     17  C   UNL     1      56.270  41.486  63.533  0.00  0.00    +0.005 A 
ATOM     18  C   UNL     1      57.234  42.437  64.081  0.00  0.00    -0.033 A 
ATOM     28  C   UNL     1      58.061  43.218  63.176  0.00  0.00    +0.005 A 
ATOM     29  C   UNL     1      57.949  43.081  61.774  0.00  0.00    +0.013 A 
BRANCH  18  19
ATOM     19  C   UNL     1      57.411  42.670  65.594  0.00  0.00    +0.119 C 
BRANCH  19  20
ATOM     20  N   UNL     1      57.867  41.510  66.416  0.00  0.00    -0.302 NA
ATOM     21  C   UNL     1      56.720  40.890  67.220  0.00  0.00    +0.066 C 
ATOM     22  C   UNL     1      57.210  39.664  68.057  0.00  0.00    -0.064 C 
ATOM     23  N   UNL     1      58.346  40.102  68.983  0.00  0.00    +0.379 N 
ATOM     24  C   UNL     1      58.769  38.965  69.812  0.00  0.00    -0.096 C 
ATOM     25  H   UNL     1      57.942  40.887  69.664  0.00  0.00    -0.082 HD
ATOM     26  C   UNL     1      59.489  40.722  68.192  0.00  0.00    -0.064 C 
ATOM     27  C   UNL     1      58.985  41.922  67.341  0.00  0.00    +0.066 C 
ENDBRANCH  19  20
ENDBRANCH  18  19
ENDBRANCH  14  15
ENDBRANCH  12  13
TORSDOF 6
ENDMDL
MODEL 3
REMARK VINA RESULT:      -8.9     29.504     30.671
REMARK  Name = C:\Users\Docking\Desktop\test protocol\1iep_ligandH.pdb
REMARK  8 active torsions:
REMARK  status: ('A' for Active; 'I' for Inactive)
REMARK    1  A    between atoms: _5  and  _11
REMARK    2  A    between atoms: _19  and  _21
REMARK    3  A    between atoms: _22  and  _66
REMARK    4  A    between atoms: _27  and  _30
REMARK    5  A    between atoms: _32  and  _33
REMARK    6  A    between atoms: _38  and  _43
REMARK    7  A    between atoms: _43  and  _46
REMARK    8  A    between atoms: _53  and  _55
REMARK                            x       y       z     vdW  Elec       q    Type
REMARK                         _______ _______ _______ _____ _____    ______ ____
ROOT
ATOM     10  C   UNL     1      49.060  39.849  52.999  0.00  0.00    +0.038 A 
ATOM     11  C   UNL     1      48.156  39.026  52.280  0.00  0.00    +0.047 A 
ATOM     12  C   UNL     1      48.526  37.680  51.870  0.00  0.00    +0.035 A 
ATOM     32  C   UNL     1      49.825  37.203  52.212  0.00  0.00    +0.024 A 
ATOM     33  C   UNL     1      50.757  38.027  52.941  0.00  0.00    +0.007 A 
ATOM     34  C   UNL     1      50.398  39.356  53.345  0.00  0.00    -0.029 A 
ATOM     35  C   UNL     1      51.440  40.197  54.119  0.00  0.00    +0.045 C 
ENDROOT
BRANCH  10   9
ATOM      4  C   UNL     1      48.267  44.481  52.023  0.00  0.00    +0.077 A 
ATOM      5  C   UNL     1      48.730  44.337  50.673  0.00  0.00    +0.048 A 
ATOM      6  C   UNL     1      49.171  43.056  50.271  0.00  0.00    +0.116 A 
ATOM      7  N   UNL     1      49.145  42.005  51.162  0.00  0.00    -0.223 NA
ATOM      8  C   UNL     1      48.694  42.178  52.457  0.00  0.00    +0.220 A 
ATOM      9  N   UNL     1      48.652  41.133  53.367  0.00  0.00    -0.283 N 
ATOM     36  H   UNL     1      48.319  41.303  54.316  0.00  0.00    +0.155 HD
ATOM     37  N   UNL     1      48.269  43.392  52.866  0.00  0.00    -0.214 NA
BRANCH   4   3
ATOM      1  C   UNL     1      45.946  47.455  53.058  0.00  0.00    +0.020 A 
ATOM      2  C   UNL     1      46.378  46.200  52.487  0.00  0.00    +0.013 A 
ATOM      3  C   UNL     1      47.767  45.771  52.595  0.00  0.00    +0.019 A 
ATOM     38  C   UNL     1      48.700  46.641  53.294  0.00  0.00    +0.120 A 
ATOM     39  N   UNL     1      48.256  47.845  53.832  0.00  0.00    -0.263 NA
ATOM     40  C   UNL     1      46.923  48.269  53.733  0.00  0.00    +0.111 A 
ENDBRANCH   4   3
ENDBRANCH  10   9
BRANCH  12  13
ATOM     13  N   UNL     1      47.653  36.801  51.132  0.00  0.00    -0.281 N 
ATOM     14  C   UNL     1      47.309  36.871  49.792  0.00  0.00    +0.248 C 
ATOM     30  O   UNL     1      47.534  37.830  49.070  0.00  0.00    -0.270 OA
ATOM     31  H   UNL     1      47.238  36.035  51.662  0.00  0.00    +0.155 HD
BRANCH  14  15
ATOM     15  C   UNL     1      46.601  35.713  49.167  0.00  0.00    +0.037 A 
ATOM     16  C   UNL     1      46.411  34.455  49.895  0.00  0.00    +0.013 A 
ATOM     17  C   UNL     1      45.739  33.348  49.263  0.00  0.00    +0.005 A 
ATOM     18  C   UNL     1      45.250  33.494  47.894  0.00  0.00    -0.033 A 
ATOM     28  C   UNL     1      45.447  34.754  47.197  0.00  0.00    +0.005 A 
ATOM     29  C   UNL     1      46.106  35.841  47.813  0.00  0.00    +0.013 A 
BRANCH  18  19
ATOM     19  C   UNL     1      44.540  32.358  47.134  0.00  0.00    +0.119 C 
BRANCH  19  20
ATOM     20  N   UNL     1      45.385  31.224  46.654  0.00  0.00    -0.302 NA
ATOM     21  C   UNL     1      45.805  30.296  47.798  0.00  0.00    +0.066 C 
ATOM     22  C   UNL     1      46.669  29.103  47.275  0.00  0.00    -0.064 C 
ATOM     23  N   UNL     1      47.896  29.649  46.543  0.00  0.00    +0.379 N 
ATOM     24  C   UNL     1      48.741  28.530  46.101  0.00  0.00    -0.096 C 
ATOM     25  H   UNL     1      48.486  30.250  47.273  0.00  0.00    -0.082 HD
ATOM     26  C   UNL     1      47.488  30.574  45.405  0.00  0.00    -0.064 C 
ATOM     27  C   UNL     1      46.605  31.740  45.931  0.00  0.00    +0.066 C 
ENDBRANCH  19  20
ENDBRANCH  18  19
ENDBRANCH  14  15
ENDBRANCH  12  13
TORSDOF 6
ENDMDL
MODEL 4
REMARK VINA RESULT:      -8.8     30.685     32.804
REMARK  Name = C:\Users\Docking\Desktop\test protocol\1iep_ligandH.pdb
REMARK  8 active torsions:
REMARK  status: ('A' for Active; 'I' for Inactive)
REMARK    1  A    between atoms: _5  and  _11
REMARK    2  A    between atoms: _19  and  _21
REMARK    3  A    between atoms: _22  and  _66
REMARK    4  A    between atoms: _27  and  _30
REMARK    5  A    between atoms: _32  and  _33
REMARK    6  A    between atoms: _38  and  _43
REMARK    7  A    between atoms: _43  and  _46
REMARK    8  A    between atoms: _53  and  _55
REMARK                            x       y       z     vdW  Elec       q    Type
REMARK                         _______ _______ _______ _____ _____    ______ ____
ROOT
ATOM     10  C   UNL     1      52.138  41.565  56.073  0.00  0.00    +0.038 A 
ATOM     11  C   UNL     1      53.017  41.920  57.128  0.00  0.00    +0.047 A 
ATOM     12  C   UNL     1      54.101  41.038  57.533  0.00  0.00    +0.035 A 
ATOM     32  C   UNL     1      54.262  39.803  56.840  0.00  0.00    +0.024 A 
ATOM     33  C   UNL     1      53.376  39.426  55.766  0.00  0.00    +0.007 A 
ATOM     34  C   UNL     1      52.304  40.290  55.364  0.00  0.00    -0.029 A 
ATOM     35  C   UNL     1      51.381  39.832  54.211  0.00  0.00    +0.045 C 
ENDROOT
BRANCH  10   9
ATOM      4  C   UNL     1      50.237  44.931  53.228  0.00  0.00    +0.077 A 
ATOM      5  C   UNL     1      51.392  44.948  52.377  0.00  0.00    +0.048 A 
ATOM      6  C   UNL     1      52.456  44.080  52.710  0.00  0.00    +0.116 A 
ATOM      7  N   UNL     1      52.362  43.261  53.814  0.00  0.00    -0.223 NA
ATOM      8  C   UNL     1      51.234  43.271  54.615  0.00  0.00    +0.220 A 
ATOM      9  N   UNL     1      51.114  42.450  55.726  0.00  0.00    -0.283 N 
ATOM     36  H   UNL     1      50.270  42.492  56.295  0.00  0.00    +0.155 HD
ATOM     37  N   UNL     1      50.205  44.091  54.319  0.00  0.00    -0.214 NA
BRANCH   4   3
ATOM      1  C   UNL     1      47.569  47.264  51.573  0.00  0.00    +0.020 A 
ATOM      2  C   UNL     1      48.750  46.447  51.736  0.00  0.00    +0.013 A 
ATOM      3  C   UNL     1      49.030  45.788  53.005  0.00  0.00    +0.019 A 
ATOM     38  C   UNL     1      48.087  45.975  54.098  0.00  0.00    +0.120 A 
ATOM     39  N   UNL     1      46.959  46.769  53.912  0.00  0.00    -0.263 NA
ATOM     40  C   UNL     1      46.680  47.410  52.696  0.00  0.00    +0.111 A 
ENDBRANCH   4   3
ENDBRANCH  10   9
BRANCH  12  13
ATOM     13  N   UNL     1      55.020  41.341  58.601  0.00  0.00    -0.281 N 
ATOM     14  C   UNL     1      56.135  42.162  58.559  0.00  0.00    +0.248 C 
ATOM     30  O   UNL     1      56.636  42.595  57.531  0.00  0.00    -0.270 OA
ATOM     31  H   UNL     1      54.825  40.896  59.499  0.00  0.00    +0.155 HD
BRANCH  14  15
ATOM     15  C   UNL     1      56.799  42.547  59.841  0.00  0.00    +0.037 A 
ATOM     16  C   UNL     1      57.367  43.884  60.032  0.00  0.00    +0.013 A 
ATOM     17  C   UNL     1      58.016  44.223  61.274  0.00  0.00    +0.005 A 
ATOM     18  C   UNL     1      58.100  43.223  62.335  0.00  0.00    -0.033 A 
ATOM     28  C   UNL     1      57.523  41.906  62.121  0.00  0.00    +0.005 A 
ATOM     29  C   UNL     1      56.887  41.569  60.905  0.00  0.00    +0.013 A 
BRANCH  18  19
ATOM     19  C   UNL     1      58.793  43.491  63.684  0.00  0.00    +0.119 C 
BRANCH  19  20
ATOM     20  N   UNL     1      58.015  44.239  64.716  0.00  0.00    -0.302 NA
ATOM     21  C   UNL     1      58.192  45.754  64.582  0.00  0.00    +0.066 C 
ATOM     22  C   UNL     1      57.353  46.522  65.656  0.00  0.00    -0.064 C 
ATOM     23  N   UNL     1      57.763  46.050  67.052  0.00  0.00    +0.379 N 
ATOM     24  C   UNL     1      57.017  46.811  68.065  0.00  0.00    -0.096 C 
ATOM     25  H   UNL     1      58.845  46.281  67.183  0.00  0.00    -0.082 HD
ATOM     26  C   UNL     1      57.592  44.544  67.193  0.00  0.00    -0.064 C 
ATOM     27  C   UNL     1      58.406  43.791  66.103  0.00  0.00    +0.066 C 
ENDBRANCH  19  20
ENDBRANCH  18  19
ENDBRANCH  14  15
ENDBRANCH  12  13
TORSDOF 6
ENDMDL
MODEL 5
REMARK VINA RESULT:      -8.7     29.880     36.429
REMARK  Name = C:\Users\Docking\Desktop\test protocol\1iep_ligandH.pdb
REMARK  8 active torsions:
REMARK  status: ('A' for Active; 'I' for Inactive)
REMARK    1  A    between atoms: _5  and  _11
REMARK    2  A    between atoms: _19  and  _21
REMARK    3  A    between atoms: _22  and  _66
REMARK    4  A    between atoms: _27  and  _30
REMARK    5  A    between atoms: _32  and  _33
REMARK    6  A    between atoms: _38  and  _43
REMARK    7  A    between atoms: _43  and  _46
REMARK    8  A    between atoms: _53  and  _55
REMARK                            x       y       z     vdW  Elec       q    Type
REMARK                         _______ _______ _______ _____ _____    ______ ____
ROOT
ATOM     10  C   UNL     1      49.333  55.303  65.455  0.00  0.00    +0.038 A 
ATOM     11  C   UNL     1      50.199  56.400  65.695  0.00  0.00    +0.047 A 
ATOM     12  C   UNL     1      49.701  57.638  66.277  0.00  0.00    +0.035 A 
ATOM     32  C   UNL     1      48.317  57.721  66.605  0.00  0.00    +0.024 A 
ATOM     33  C   UNL     1      47.423  56.616  66.367  0.00  0.00    +0.007 A 
ATOM     34  C   UNL     1      47.907  55.394  65.791  0.00  0.00    -0.029 A 
ATOM     35  C   UNL     1      46.902  54.243  65.552  0.00  0.00    +0.045 C 
ENDROOT
BRANCH  10   9
ATOM      4  C   UNL     1      51.162  50.880  65.824  0.00  0.00    +0.077 A 
ATOM      5  C   UNL     1      51.078  50.901  67.256  0.00  0.00    +0.048 A 
ATOM      6  C   UNL     1      50.565  52.071  67.859  0.00  0.00    +0.116 A 
ATOM      7  N   UNL     1      50.168  53.135  67.078  0.00  0.00    -0.223 NA
ATOM      8  C   UNL     1      50.264  53.083  65.700  0.00  0.00    +0.220 A 
ATOM      9  N   UNL     1      49.864  54.139  64.895  0.00  0.00    -0.283 N 
ATOM     36  H   UNL     1      49.958  54.064  63.882  0.00  0.00    +0.155 HD
ATOM     37  N   UNL     1      50.752  51.978  65.100  0.00  0.00    -0.214 NA
BRANCH   4   3
ATOM      1  C   UNL     1      51.984  48.420  62.897  0.00  0.00    +0.020 A 
ATOM      2  C   UNL     1      51.463  49.565  63.607  0.00  0.00    +0.013 A 
ATOM      3  C   UNL     1      51.679  49.715  65.040  0.00  0.00    +0.019 A 
ATOM     38  C   UNL     1      52.434  48.680  65.731  0.00  0.00    +0.120 A 
ATOM     39  N   UNL     1      52.923  47.587  65.021  0.00  0.00    -0.263 NA
ATOM     40  C   UNL     1      52.719  47.432  63.642  0.00  0.00    +0.111 A 
ENDBRANCH   4   3
ENDBRANCH  10   9
BRANCH  12  13
ATOM     13  N   UNL     1      50.531  58.788  66.535  0.00  0.00    -0.281 N 
ATOM     14  C   UNL     1      50.848  59.822  65.669  0.00  0.00    +0.248 C 
ATOM     30  O   UNL     1      50.637  59.804  64.466  0.00  0.00    -0.270 OA
ATOM     31  H   UNL     1      50.934  58.848  67.471  0.00  0.00    +0.155 HD
BRANCH  14  15
ATOM     15  C   UNL     1      51.507  61.046  66.217  0.00  0.00    +0.037 A 
ATOM     16  C   UNL     1      51.692  61.230  67.659  0.00  0.00    +0.013 A 
ATOM     17  C   UNL     1      52.315  62.428  68.161  0.00  0.00    +0.005 A 
ATOM     18  C   UNL     1      52.761  63.453  67.220  0.00  0.00    -0.033 A 
ATOM     28  C   UNL     1      52.570  63.243  65.794  0.00  0.00    +0.005 A 
ATOM     29  C   UNL     1      51.958  62.070  65.298  0.00  0.00    +0.013 A 
BRANCH  18  19
ATOM     19  C   UNL     1      53.417  64.772  67.668  0.00  0.00    +0.119 C 
BRANCH  19  20
ATOM     20  N   UNL     1      53.489  65.036  69.136  0.00  0.00    -0.302 NA
ATOM     21  C   UNL     1      52.212  65.695  69.665  0.00  0.00    +0.066 C 
ATOM     22  C   UNL     1      52.295  65.943  71.206  0.00  0.00    -0.064 C 
ATOM     23  N   UNL     1      53.519  66.807  71.515  0.00  0.00    +0.379 N 
ATOM     24  C   UNL     1      53.567  67.091  72.957  0.00  0.00    -0.096 C 
ATOM     25  H   UNL     1      53.389  67.779  70.984  0.00  0.00    -0.082 HD
ATOM     26  C   UNL     1      54.793  66.160  70.991  0.00  0.00    -0.064 C 
ATOM     27  C   UNL     1      54.688  65.891  69.464  0.00  0.00    +0.066 C 
ENDBRANCH  19  20
ENDBRANCH  18  19
ENDBRANCH  14  15
ENDBRANCH  12  13
TORSDOF 6
ENDMDL
