MODEL 1
REMARK VINA RESULT:      -9.4      0.000      0.000
REMARK  Name = C:\Users\Docking\Desktop\test protocol\1iep_ligandH.pdb
REMARK  8 active torsions:
REMARK  status: ('A' for Active; 'I' for Inactive)
REMARK    1  A    between atoms: _5  and  _11
REMARK    2  A    between atoms: _19  and  _21
REMARK    3  A    between atoms: _22  and  _66
REMARK    4  A    between atoms: _27  and  _30
REMARK    5  A    between atoms: _32  and  _33
REMARK    6  A    between atoms: _38  and  _43
REMARK    7  A    between atoms: _43  and  _46
REMARK    8  A    between atoms: _53  and  _55
REMARK                            x       y       z     vdW  Elec       q    Type
REMARK                         _______ _______ _______ _____ _____    ______ ____
ROOT
ATOM     10  C   UNL     1      20.029  11.908  14.916  0.00  0.00    +0.038 A 
ATOM     11  C   UNL     1      19.961  12.765  16.044  0.00  0.00    +0.047 A 
ATOM     12  C   UNL     1      21.147  13.073  16.828  0.00  0.00    +0.035 A 
ATOM     32  C   UNL     1      22.387  12.491  16.434  0.00  0.00    +0.024 A 
ATOM     33  C   UNL     1      22.474  11.616  15.291  0.00  0.00    +0.007 A 
ATOM     34  C   UNL     1      21.307  11.308  14.515  0.00  0.00    -0.029 A 
ATOM     35  C   UNL     1      21.459  10.358  13.304  0.00  0.00    +0.045 C 
ENDROOT
BRANCH  10   9
ATOM      4  C   UNL     1      15.942   9.489  14.219  0.00  0.00    +0.077 A 
ATOM      5  C   UNL     1      16.170   8.657  15.366  0.00  0.00    +0.048 A 
ATOM      6  C   UNL     1      17.354   8.879  16.103  0.00  0.00    +0.116 A 
ATOM      7  N   UNL     1      18.237   9.863  15.715  0.00  0.00    -0.223 NA
ATOM      8  C   UNL     1      17.989  10.647  14.603  0.00  0.00    +0.220 A 
ATOM      9  N   UNL     1      18.859  11.647  14.199  0.00  0.00    -0.283 N 
ATOM     36  H   UNL     1      18.643  12.198  13.369  0.00  0.00    +0.155 HD
ATOM     37  N   UNL     1      16.865  10.453  13.881  0.00  0.00    -0.214 NA
BRANCH   4   3
ATOM      1  C   UNL     1      12.360   9.958  12.720  0.00  0.00    +0.020 A 
ATOM      2  C   UNL     1      13.496  10.100  13.601  0.00  0.00    +0.013 A 
ATOM      3  C   UNL     1      14.735   9.379  13.340  0.00  0.00    +0.019 A 
ATOM     38  C   UNL     1      14.792   8.516  12.170  0.00  0.00    +0.120 A 
ATOM     39  N   UNL     1      13.681   8.398  11.340  0.00  0.00    -0.263 NA
ATOM     40  C   UNL     1      12.483   9.086  11.582  0.00  0.00    +0.111 A 
ENDBRANCH   4   3
ENDBRANCH  10   9
BRANCH  12  13
ATOM     13  N   UNL     1      21.137  13.930  17.987  0.00  0.00    -0.281 N 
ATOM     14  C   UNL     1      21.844  15.105  18.184  0.00  0.00    +0.248 C 
ATOM     30  O   UNL     1      22.761  15.486  17.472  0.00  0.00    -0.270 OA
ATOM     31  H   UNL     1      20.535  13.635  18.757  0.00  0.00    +0.155 HD
BRANCH  14  15
ATOM     15  C   UNL     1      21.491  15.974  19.347  0.00  0.00    +0.037 A 
ATOM     16  C   UNL     1      21.637  17.431  19.279  0.00  0.00    +0.013 A 
ATOM     17  C   UNL     1      21.306  18.245  20.422  0.00  0.00    +0.005 A 
ATOM     18  C   UNL     1      20.823  17.603  21.642  0.00  0.00    -0.033 A 
ATOM     28  C   UNL     1      20.683  16.157  21.681  0.00  0.00    +0.005 A 
ATOM     29  C   UNL     1      21.008  15.356  20.563  0.00  0.00    +0.013 A 
BRANCH  18  19
ATOM     19  C   UNL     1      20.466  18.391  22.917  0.00  0.00    +0.119 C 
BRANCH  19  20
ATOM     20  N   UNL     1      19.914  19.767  22.737  0.00  0.00    -0.302 NA
ATOM     21  C   UNL     1      20.193  20.661  23.949  0.00  0.00    +0.066 C 
ATOM     22  C   UNL     1      19.629  22.103  23.735  0.00  0.00    -0.064 C 
ATOM     23  N   UNL     1      18.127  22.024  23.454  0.00  0.00    +0.379 N 
ATOM     24  C   UNL     1      17.583  23.382  23.310  0.00  0.00    -0.096 C 
ATOM     25  H   UNL     1      17.642  21.557  24.343  0.00  0.00    -0.082 HD
ATOM     26  C   UNL     1      17.841  21.135  22.252  0.00  0.00    -0.064 C 
ATOM     27  C   UNL     1      18.431  19.713  22.463  0.00  0.00    +0.066 C 
ENDBRANCH  19  20
ENDBRANCH  18  19
ENDBRANCH  14  15
ENDBRANCH  12  13
TORSDOF 6
ENDMDL
MODEL 2
REMARK VINA RESULT:      -8.9      3.485      6.954
REMARK  Name = C:\Users\Docking\Desktop\test protocol\1iep_ligandH.pdb
REMARK  8 active torsions:
REMARK  status: ('A' for Active; 'I' for Inactive)
REMARK    1  A    between atoms: _5  and  _11
REMARK    2  A    between atoms: _19  and  _21
REMARK    3  A    between atoms: _22  and  _66
REMARK    4  A    between atoms: _27  and  _30
REMARK    5  A    between atoms: _32  and  _33
REMARK    6  A    between atoms: _38  and  _43
REMARK    7  A    between atoms: _43  and  _46
REMARK    8  A    between atoms: _53  and  _55
REMARK                            x       y       z     vdW  Elec       q    Type
REMARK                         _______ _______ _______ _____ _____    ______ ____
ROOT
ATOM     10  C   UNL     1      14.215  10.036  13.243  0.00  0.00    +0.038 A 
ATOM     11  C   UNL     1      15.358  10.579  13.883  0.00  0.00    +0.047 A 
ATOM     12  C   UNL     1      16.030   9.863  14.956  0.00  0.00    +0.035 A 
ATOM     32  C   UNL     1      15.512   8.594  15.350  0.00  0.00    +0.024 A 
ATOM     33  C   UNL     1      14.350   8.029  14.711  0.00  0.00    +0.007 A 
ATOM     34  C   UNL     1      13.682   8.732  13.653  0.00  0.00    -0.029 A 
ATOM     35  C   UNL     1      12.436   8.080  13.008  0.00  0.00    +0.045 C 
ENDROOT
BRANCH  10   9
ATOM      4  C   UNL     1      10.708  12.839  11.546  0.00  0.00    +0.077 A 
ATOM      5  C   UNL     1      10.009  12.825  12.799  0.00  0.00    +0.048 A 
ATOM      6  C   UNL     1      10.583  12.079  13.853  0.00  0.00    +0.116 A 
ATOM      7  N   UNL     1      11.766  11.401  13.657  0.00  0.00    -0.223 NA
ATOM      8  C   UNL     1      12.413  11.434  12.435  0.00  0.00    +0.220 A 
ATOM      9  N   UNL     1      13.609  10.767  12.218  0.00  0.00    -0.283 N 
ATOM     36  H   UNL     1      14.051  10.810  11.300  0.00  0.00    +0.155 HD
ATOM     37  N   UNL     1      11.886  12.139  11.412  0.00  0.00    -0.214 NA
BRANCH   4   3
ATOM      1  C   UNL     1       9.150  13.696   8.061  0.00  0.00    +0.020 A 
ATOM      2  C   UNL     1       9.593  12.930   9.203  0.00  0.00    +0.013 A 
ATOM      3  C   UNL     1      10.231  13.585  10.338  0.00  0.00    +0.019 A 
ATOM     38  C   UNL     1      10.405  15.029  10.287  0.00  0.00    +0.120 A 
ATOM     39  N   UNL     1       9.970  15.741   9.173  0.00  0.00    -0.263 NA
ATOM     40  C   UNL     1       9.357  15.121   8.074  0.00  0.00    +0.111 A 
ENDBRANCH   4   3
ENDBRANCH  10   9
BRANCH  12  13
ATOM     13  N   UNL     1      17.190  10.367  15.649  0.00  0.00    -0.281 N 
ATOM     14  C   UNL     1      18.433  10.670  15.119  0.00  0.00    +0.248 C 
ATOM     30  O   UNL     1      18.804  10.349  14.000  0.00  0.00    -0.270 OA
ATOM     31  H   UNL     1      17.081  10.519  16.652  0.00  0.00    +0.155 HD
BRANCH  14  15
ATOM     15  C   UNL     1      19.412  11.426  15.959  0.00  0.00    +0.037 A 
ATOM     16  C   UNL     1      19.795  10.951  17.291  0.00  0.00    +0.013 A 
ATOM     17  C   UNL     1      20.728  11.708  18.088  0.00  0.00    +0.005 A 
ATOM     18  C   UNL     1      21.285  12.948  17.553  0.00  0.00    -0.033 A 
ATOM     28  C   UNL     1      20.891  13.393  16.226  0.00  0.00    +0.005 A 
ATOM     29  C   UNL     1      19.976  12.654  15.443  0.00  0.00    +0.013 A 
BRANCH  18  19
ATOM     19  C   UNL     1      22.271  13.831  18.341  0.00  0.00    +0.119 C 
BRANCH  19  20
ATOM     20  N   UNL     1      21.876  15.251  18.580  0.00  0.00    -0.302 NA
ATOM     21  C   UNL     1      22.986  16.230  18.189  0.00  0.00    +0.066 C 
ATOM     22  C   UNL     1      22.547  17.712  18.425  0.00  0.00    -0.064 C 
ATOM     23  N   UNL     1      22.154  17.898  19.891  0.00  0.00    +0.379 N 
ATOM     24  C   UNL     1      21.797  19.304  20.129  0.00  0.00    -0.096 C 
ATOM     25  H   UNL     1      23.050  17.666  20.513  0.00  0.00    -0.082 HD
ATOM     26  C   UNL     1      21.052  16.926  20.290  0.00  0.00    -0.064 C 
ATOM     27  C   UNL     1      21.487  15.458  20.024  0.00  0.00    +0.066 C 
ENDBRANCH  19  20
ENDBRANCH  18  19
ENDBRANCH  14  15
ENDBRANCH  12  13
TORSDOF 6
ENDMDL
MODEL 3
REMARK VINA RESULT:      -8.7      3.353     11.955
REMARK  Name = C:\Users\Docking\Desktop\test protocol\1iep_ligandH.pdb
REMARK  8 active torsions:
REMARK  status: ('A' for Active; 'I' for Inactive)
REMARK    1  A    between atoms: _5  and  _11
REMARK    2  A    between atoms: _19  and  _21
REMARK    3  A    between atoms: _22  and  _66
REMARK    4  A    between atoms: _27  and  _30
REMARK    5  A    between atoms: _32  and  _33
REMARK    6  A    between atoms: _38  and  _43
REMARK    7  A    between atoms: _43  and  _46
REMARK    8  A    between atoms: _53  and  _55
REMARK                            x       y       z     vdW  Elec       q    Type
REMARK                         _______ _______ _______ _____ _____    ______ ____
ROOT
ATOM     10  C   UNL     1      21.712  12.510  18.563  0.00  0.00    +0.038 A 
ATOM     11  C   UNL     1      20.464  12.215  17.957  0.00  0.00    +0.047 A 
ATOM     12  C   UNL     1      20.155  10.875  17.484  0.00  0.00    +0.035 A 
ATOM     32  C   UNL     1      21.140   9.857  17.647  0.00  0.00    +0.024 A 
ATOM     33  C   UNL     1      22.414  10.140  18.259  0.00  0.00    +0.007 A 
ATOM     34  C   UNL     1      22.725  11.461  18.726  0.00  0.00    -0.029 A 
ATOM     35  C   UNL     1      24.110  11.708  19.369  0.00  0.00    +0.045 C 
ENDROOT
BRANCH  10   9
ATOM      4  C   UNL     1      22.033  17.238  17.799  0.00  0.00    +0.077 A 
ATOM      5  C   UNL     1      21.716  17.094  16.407  0.00  0.00    +0.048 A 
ATOM      6  C   UNL     1      21.484  15.786  15.926  0.00  0.00    +0.116 A 
ATOM      7  N   UNL     1      21.565  14.709  16.782  0.00  0.00    -0.223 NA
ATOM      8  C   UNL     1      21.875  14.882  18.118  0.00  0.00    +0.220 A 
ATOM      9  N   UNL     1      21.955  13.814  18.999  0.00  0.00    -0.283 N 
ATOM     36  H   UNL     1      22.194  13.983  19.976  0.00  0.00    +0.155 HD
ATOM     37  N   UNL     1      22.103  16.121  18.602  0.00  0.00    -0.214 NA
BRANCH   4   3
ATOM      1  C   UNL     1      22.048  21.059  18.633  0.00  0.00    +0.020 A 
ATOM      2  C   UNL     1      21.759  19.814  17.960  0.00  0.00    +0.013 A 
ATOM      3  C   UNL     1      22.301  18.555  18.457  0.00  0.00    +0.019 A 
ATOM     38  C   UNL     1      23.138  18.592  19.647  0.00  0.00    +0.120 A 
ATOM     39  N   UNL     1      23.401  19.806  20.273  0.00  0.00    -0.263 NA
ATOM     40  C   UNL     1      22.886  21.024  19.803  0.00  0.00    +0.111 A 
ENDBRANCH   4   3
ENDBRANCH  10   9
BRANCH  12  13
ATOM     13  N   UNL     1      18.909  10.518  16.853  0.00  0.00    -0.281 N 
ATOM     14  C   UNL     1      18.695  10.153  15.534  0.00  0.00    +0.248 C 
ATOM     30  O   UNL     1      19.516  10.286  14.639  0.00  0.00    -0.270 OA
ATOM     31  H   UNL     1      18.083  10.536  17.453  0.00  0.00    +0.155 HD
BRANCH  14  15
ATOM     15  C   UNL     1      17.373   9.570  15.151  0.00  0.00    +0.037 A 
ATOM     16  C   UNL     1      17.138   9.039  13.806  0.00  0.00    +0.013 A 
ATOM     17  C   UNL     1      15.848   8.498  13.457  0.00  0.00    +0.005 A 
ATOM     18  C   UNL     1      14.784   8.483  14.457  0.00  0.00    -0.033 A 
ATOM     28  C   UNL     1      15.046   9.011  15.786  0.00  0.00    +0.005 A 
ATOM     29  C   UNL     1      16.308   9.544  16.131  0.00  0.00    +0.013 A 
BRANCH  18  19
ATOM     19  C   UNL     1      13.371   7.944  14.167  0.00  0.00    +0.119 C 
BRANCH  19  20
ATOM     20  N   UNL     1      12.557   8.672  13.148  0.00  0.00    -0.302 NA
ATOM     21  C   UNL     1      12.889   8.226  11.722  0.00  0.00    +0.066 C 
ATOM     22  C   UNL     1      12.013   8.981  10.670  0.00  0.00    -0.064 C 
ATOM     23  N   UNL     1      12.219  10.489  10.827  0.00  0.00    +0.379 N 
ATOM     24  C   UNL     1      11.441  11.200   9.802  0.00  0.00    -0.096 C 
ATOM     25  H   UNL     1      13.297  10.703  10.643  0.00  0.00    -0.082 HD
ATOM     26  C   UNL     1      11.894  10.941  12.244  0.00  0.00    -0.064 C 
ATOM     27  C   UNL     1      12.749  10.163  13.283  0.00  0.00    +0.066 C 
ENDBRANCH  19  20
ENDBRANCH  18  19
ENDBRANCH  14  15
ENDBRANCH  12  13
TORSDOF 6
ENDMDL
MODEL 4
REMARK VINA RESULT:      -8.6      1.659      2.539
REMARK  Name = C:\Users\Docking\Desktop\test protocol\1iep_ligandH.pdb
REMARK  8 active torsions:
REMARK  status: ('A' for Active; 'I' for Inactive)
REMARK    1  A    between atoms: _5  and  _11
REMARK    2  A    between atoms: _19  and  _21
REMARK    3  A    between atoms: _22  and  _66
REMARK    4  A    between atoms: _27  and  _30
REMARK    5  A    between atoms: _32  and  _33
REMARK    6  A    between atoms: _38  and  _43
REMARK    7  A    between atoms: _43  and  _46
REMARK    8  A    between atoms: _53  and  _55
REMARK                            x       y       z     vdW  Elec       q    Type
REMARK                         _______ _______ _______ _____ _____    ______ ____
ROOT
ATOM     10  C   UNL     1      20.117  11.962  14.959  0.00  0.00    +0.038 A 
ATOM     11  C   UNL     1      20.085  12.879  16.041  0.00  0.00    +0.047 A 
ATOM     12  C   UNL     1      21.286  13.184  16.804  0.00  0.00    +0.035 A 
ATOM     32  C   UNL     1      22.503  12.541  16.435  0.00  0.00    +0.024 A 
ATOM     33  C   UNL     1      22.553  11.606  15.338  0.00  0.00    +0.007 A 
ATOM     34  C   UNL     1      21.372  11.298  14.584  0.00  0.00    -0.029 A 
ATOM     35  C   UNL     1      21.483  10.283  13.422  0.00  0.00    +0.045 C 
ENDROOT
BRANCH  10   9
ATOM      4  C   UNL     1      16.002   9.571  14.337  0.00  0.00    +0.077 A 
ATOM      5  C   UNL     1      16.241   8.744  15.485  0.00  0.00    +0.048 A 
ATOM      6  C   UNL     1      17.438   8.961  16.204  0.00  0.00    +0.116 A 
ATOM      7  N   UNL     1      18.323   9.936  15.797  0.00  0.00    -0.223 NA
ATOM      8  C   UNL     1      18.063  10.715  14.684  0.00  0.00    +0.220 A 
ATOM      9  N   UNL     1      18.935  11.706  14.261  0.00  0.00    -0.283 N 
ATOM     36  H   UNL     1      18.711  12.254  13.430  0.00  0.00    +0.155 HD
ATOM     37  N   UNL     1      16.928  10.526  13.980  0.00  0.00    -0.214 NA
BRANCH   4   3
ATOM      1  C   UNL     1      12.454  10.164  12.802  0.00  0.00    +0.020 A 
ATOM      2  C   UNL     1      13.607  10.307  13.660  0.00  0.00    +0.013 A 
ATOM      3  C   UNL     1      14.782   9.464  13.477  0.00  0.00    +0.019 A 
ATOM     38  C   UNL     1      14.757   8.478  12.407  0.00  0.00    +0.120 A 
ATOM     39  N   UNL     1      13.632   8.361  11.597  0.00  0.00    -0.263 NA
ATOM     40  C   UNL     1      12.496   9.166  11.765  0.00  0.00    +0.111 A 
ENDBRANCH   4   3
ENDBRANCH  10   9
BRANCH  12  13
ATOM     13  N   UNL     1      21.312  14.100  17.917  0.00  0.00    -0.281 N 
ATOM     14  C   UNL     1      21.853  15.374  17.959  0.00  0.00    +0.248 C 
ATOM     30  O   UNL     1      22.589  15.841  17.103  0.00  0.00    -0.270 OA
ATOM     31  H   UNL     1      20.880  13.768  18.779  0.00  0.00    +0.155 HD
BRANCH  14  15
ATOM     15  C   UNL     1      21.543  16.252  19.128  0.00  0.00    +0.037 A 
ATOM     16  C   UNL     1      21.774  17.698  19.075  0.00  0.00    +0.013 A 
ATOM     17  C   UNL     1      21.482  18.520  20.223  0.00  0.00    +0.005 A 
ATOM     18  C   UNL     1      20.954  17.896  21.434  0.00  0.00    -0.033 A 
ATOM     28  C   UNL     1      20.730  16.460  21.458  0.00  0.00    +0.005 A 
ATOM     29  C   UNL     1      21.016  15.652  20.335  0.00  0.00    +0.013 A 
BRANCH  18  19
ATOM     19  C   UNL     1      20.635  18.692  22.714  0.00  0.00    +0.119 C 
BRANCH  19  20
ATOM     20  N   UNL     1      21.144  18.144  24.006  0.00  0.00    -0.302 NA
ATOM     21  C   UNL     1      20.651  18.954  25.208  0.00  0.00    +0.066 C 
ATOM     22  C   UNL     1      21.175  18.353  26.553  0.00  0.00    -0.064 C 
ATOM     23  N   UNL     1      22.704  18.301  26.524  0.00  0.00    +0.379 N 
ATOM     24  C   UNL     1      23.201  17.790  27.810  0.00  0.00    -0.096 C 
ATOM     25  H   UNL     1      23.075  19.346  26.408  0.00  0.00    -0.082 HD
ATOM     26  C   UNL     1      23.202  17.499  25.330  0.00  0.00    -0.064 C 
ATOM     27  C   UNL     1      22.652  18.087  24.001  0.00  0.00    +0.066 C 
ENDBRANCH  19  20
ENDBRANCH  18  19
ENDBRANCH  14  15
ENDBRANCH  12  13
TORSDOF 6
ENDMDL
MODEL 5
REMARK VINA RESULT:      -8.6      4.331     12.227
REMARK  Name = C:\Users\Docking\Desktop\test protocol\1iep_ligandH.pdb
REMARK  8 active torsions:
REMARK  status: ('A' for Active; 'I' for Inactive)
REMARK    1  A    between atoms: _5  and  _11
REMARK    2  A    between atoms: _19  and  _21
REMARK    3  A    between atoms: _22  and  _66
REMARK    4  A    between atoms: _27  and  _30
REMARK    5  A    between atoms: _32  and  _33
REMARK    6  A    between atoms: _38  and  _43
REMARK    7  A    between atoms: _43  and  _46
REMARK    8  A    between atoms: _53  and  _55
REMARK                            x       y       z     vdW  Elec       q    Type
REMARK                         _______ _______ _______ _____ _____    ______ ____
ROOT
ATOM     10  C   UNL     1      20.456  12.331  16.946  0.00  0.00    +0.038 A 
ATOM     11  C   UNL     1      19.423  11.841  16.108  0.00  0.00    +0.047 A 
ATOM     12  C   UNL     1      19.196  10.413  15.951  0.00  0.00    +0.035 A 
ATOM     32  C   UNL     1      20.038   9.512  16.665  0.00  0.00    +0.024 A 
ATOM     33  C   UNL     1      21.094   9.993  17.521  0.00  0.00    +0.007 A 
ATOM     34  C   UNL     1      21.324  11.401  17.678  0.00  0.00    -0.029 A 
ATOM     35  C   UNL     1      22.474  11.860  18.604  0.00  0.00    +0.045 C 
ENDROOT
BRANCH  10   9
ATOM      4  C   UNL     1      22.300  16.503  15.452  0.00  0.00    +0.077 A 
ATOM      5  C   UNL     1      22.999  15.874  14.368  0.00  0.00    +0.048 A 
ATOM      6  C   UNL     1      22.863  14.474  14.235  0.00  0.00    +0.116 A 
ATOM      7  N   UNL     1      22.084  13.766  15.124  0.00  0.00    -0.223 NA
ATOM      8  C   UNL     1      21.425  14.404  16.159  0.00  0.00    +0.220 A 
ATOM      9  N   UNL     1      20.630  13.713  17.060  0.00  0.00    -0.283 N 
ATOM     36  H   UNL     1      20.166  14.218  17.815  0.00  0.00    +0.155 HD
ATOM     37  N   UNL     1      21.540  15.739  16.309  0.00  0.00    -0.214 NA
BRANCH   4   3
ATOM      1  C   UNL     1      21.875  19.999  17.154  0.00  0.00    +0.020 A 
ATOM      2  C   UNL     1      21.809  18.572  16.941  0.00  0.00    +0.013 A 
ATOM      3  C   UNL     1      22.342  17.975  15.723  0.00  0.00    +0.019 A 
ATOM     38  C   UNL     1      22.942  18.857  14.733  0.00  0.00    +0.120 A 
ATOM     39  N   UNL     1      22.990  20.228  14.965  0.00  0.00    -0.263 NA
ATOM     40  C   UNL     1      22.478  20.814  16.132  0.00  0.00    +0.111 A 
ENDBRANCH   4   3
ENDBRANCH  10   9
BRANCH  12  13
ATOM     13  N   UNL     1      18.168   9.856  15.107  0.00  0.00    -0.281 N 
ATOM     14  C   UNL     1      16.849   9.586  15.436  0.00  0.00    +0.248 C 
ATOM     30  O   UNL     1      16.408   9.584  16.575  0.00  0.00    -0.270 OA
ATOM     31  H   UNL     1      18.445   9.634  14.151  0.00  0.00    +0.155 HD
BRANCH  14  15
ATOM     15  C   UNL     1      15.885   9.256  14.342  0.00  0.00    +0.037 A 
ATOM     16  C   UNL     1      16.346   8.723  13.058  0.00  0.00    +0.013 A 
ATOM     17  C   UNL     1      15.396   8.429  12.014  0.00  0.00    +0.005 A 
ATOM     18  C   UNL     1      13.975   8.667  12.252  0.00  0.00    -0.033 A 
ATOM     28  C   UNL     1      13.544   9.192  13.537  0.00  0.00    +0.005 A 
ATOM     29  C   UNL     1      14.472   9.482  14.562  0.00  0.00    +0.013 A 
BRANCH  18  19
ATOM     19  C   UNL     1      12.893   8.402  11.187  0.00  0.00    +0.119 C 
BRANCH  19  20
ATOM     20  N   UNL     1      12.080   9.570  10.734  0.00  0.00    -0.302 NA
ATOM     21  C   UNL     1      11.032   9.170   9.692  0.00  0.00    +0.066 C 
ATOM     22  C   UNL     1      10.175  10.399   9.245  0.00  0.00    -0.064 C 
ATOM     23  N   UNL     1      11.098  11.488   8.695  0.00  0.00    +0.379 N 
ATOM     24  C   UNL     1      10.291  12.622   8.221  0.00  0.00    -0.096 C 
ATOM     25  H   UNL     1      11.635  11.063   7.815  0.00  0.00    -0.082 HD
ATOM     26  C   UNL     1      12.145  11.890   9.725  0.00  0.00    -0.064 C 
ATOM     27  C   UNL     1      12.971  10.656  10.183  0.00  0.00    +0.066 C 
ENDBRANCH  19  20
ENDBRANCH  18  19
ENDBRANCH  14  15
ENDBRANCH  12  13
TORSDOF 6
ENDMDL
