MODEL 1
REMARK VINA RESULT:      -7.5      0.000      0.000
REMARK  Name = C:\Users\Docking\Desktop\test protocol\1iep_ligandH.pdb
REMARK  8 active torsions:
REMARK  status: ('A' for Active; 'I' for Inactive)
REMARK    1  A    between atoms: _5  and  _11
REMARK    2  A    between atoms: _19  and  _21
REMARK    3  A    between atoms: _22  and  _66
REMARK    4  A    between atoms: _27  and  _30
REMARK    5  A    between atoms: _32  and  _33
REMARK    6  A    between atoms: _38  and  _43
REMARK    7  A    between atoms: _43  and  _46
REMARK    8  A    between atoms: _53  and  _55
REMARK                            x       y       z     vdW  Elec       q    Type
REMARK                         _______ _______ _______ _____ _____    ______ ____
ROOT
ATOM     10  C   UNL     1       9.624   6.374   7.428  0.00  0.00    +0.038 A 
ATOM     11  C   UNL     1       9.851   4.992   7.654  0.00  0.00    +0.047 A 
ATOM     12  C   UNL     1       9.817   4.035   6.559  0.00  0.00    +0.035 A 
ATOM     32  C   UNL     1       9.551   4.521   5.246  0.00  0.00    +0.024 A 
ATOM     33  C   UNL     1       9.316   5.922   4.998  0.00  0.00    +0.007 A 
ATOM     34  C   UNL     1       9.346   6.870   6.075  0.00  0.00    -0.029 A 
ATOM     35  C   UNL     1       9.081   8.359   5.753  0.00  0.00    +0.045 C 
ENDROOT
BRANCH  10   9
ATOM      4  C   UNL     1      11.970   9.351  10.373  0.00  0.00    +0.077 A 
ATOM      5  C   UNL     1      13.219   9.124   9.703  0.00  0.00    +0.048 A 
ATOM      6  C   UNL     1      13.215   8.228   8.610  0.00  0.00    +0.116 A 
ATOM      7  N   UNL     1      12.045   7.612   8.224  0.00  0.00    -0.223 NA
ATOM      8  C   UNL     1      10.859   7.851   8.892  0.00  0.00    +0.220 A 
ATOM      9  N   UNL     1       9.668   7.248   8.516  0.00  0.00    -0.283 N 
ATOM     36  H   UNL     1       8.816   7.446   9.040  0.00  0.00    +0.155 HD
ATOM     37  N   UNL     1      10.836   8.701   9.940  0.00  0.00    -0.214 NA
BRANCH   4   3
ATOM      1  C   UNL     1      12.573  11.244  13.742  0.00  0.00    +0.020 A 
ATOM      2  C   UNL     1      12.773  10.336  12.636  0.00  0.00    +0.013 A 
ATOM      3  C   UNL     1      11.812  10.272  11.542  0.00  0.00    +0.019 A 
ATOM     38  C   UNL     1      10.650  11.146  11.598  0.00  0.00    +0.120 A 
ATOM     39  N   UNL     1      10.483  12.009  12.677  0.00  0.00    -0.263 NA
ATOM     40  C   UNL     1      11.401  12.078  13.736  0.00  0.00    +0.111 A 
ENDBRANCH   4   3
ENDBRANCH  10   9
BRANCH  12  13
ATOM     13  N   UNL     1      10.033   2.620   6.729  0.00  0.00    -0.281 N 
ATOM     14  C   UNL     1      11.092   1.858   6.264  0.00  0.00    +0.248 C 
ATOM     30  O   UNL     1      11.913   2.243   5.445  0.00  0.00    -0.270 OA
ATOM     31  H   UNL     1       9.317   2.118   7.255  0.00  0.00    +0.155 HD
BRANCH  14  15
ATOM     15  C   UNL     1      11.256   0.462   6.773  0.00  0.00    +0.037 A 
ATOM     16  C   UNL     1      11.053   0.140   8.187  0.00  0.00    +0.013 A 
ATOM     17  C   UNL     1      11.233  -1.212   8.655  0.00  0.00    +0.005 A 
ATOM     18  C   UNL     1      11.618  -2.253   7.704  0.00  0.00    -0.033 A 
ATOM     28  C   UNL     1      11.808  -1.906   6.306  0.00  0.00    +0.005 A 
ATOM     29  C   UNL     1      11.633  -0.582   5.844  0.00  0.00    +0.013 A 
BRANCH  18  19
ATOM     19  C   UNL     1      11.853  -3.717   8.118  0.00  0.00    +0.119 C 
BRANCH  19  20
ATOM     20  N   UNL     1      10.832  -4.349   9.006  0.00  0.00    -0.302 NA
ATOM     21  C   UNL     1      11.127  -4.102  10.488  0.00  0.00    +0.066 C 
ATOM     22  C   UNL     1      10.037  -4.751  11.402  0.00  0.00    -0.064 C 
ATOM     23  N   UNL     1       9.956  -6.250  11.109  0.00  0.00    +0.379 N 
ATOM     24  C   UNL     1       8.973  -6.873  12.007  0.00  0.00    -0.096 C 
ATOM     25  H   UNL     1      10.953  -6.694  11.338  0.00  0.00    -0.082 HD
ATOM     26  C   UNL     1       9.665  -6.505   9.636  0.00  0.00    -0.064 C 
ATOM     27  C   UNL     1      10.738  -5.831   8.736  0.00  0.00    +0.066 C 
ENDBRANCH  19  20
ENDBRANCH  18  19
ENDBRANCH  14  15
ENDBRANCH  12  13
TORSDOF 6
ENDMDL
MODEL 2
REMARK VINA RESULT:      -7.5      2.371     12.786
REMARK  Name = C:\Users\Docking\Desktop\test protocol\1iep_ligandH.pdb
REMARK  8 active torsions:
REMARK  status: ('A' for Active; 'I' for Inactive)
REMARK    1  A    between atoms: _5  and  _11
REMARK    2  A    between atoms: _19  and  _21
REMARK    3  A    between atoms: _22  and  _66
REMARK    4  A    between atoms: _27  and  _30
REMARK    5  A    between atoms: _32  and  _33
REMARK    6  A    between atoms: _38  and  _43
REMARK    7  A    between atoms: _43  and  _46
REMARK    8  A    between atoms: _53  and  _55
REMARK                            x       y       z     vdW  Elec       q    Type
REMARK                         _______ _______ _______ _____ _____    ______ ____
ROOT
ATOM     10  C   UNL     1       9.354   1.978   7.293  0.00  0.00    +0.038 A 
ATOM     11  C   UNL     1       9.916   3.120   7.918  0.00  0.00    +0.047 A 
ATOM     12  C   UNL     1       9.939   4.410   7.247  0.00  0.00    +0.035 A 
ATOM     32  C   UNL     1       9.378   4.502   5.940  0.00  0.00    +0.024 A 
ATOM     33  C   UNL     1       8.803   3.351   5.290  0.00  0.00    +0.007 A 
ATOM     34  C   UNL     1       8.780   2.075   5.946  0.00  0.00    -0.029 A 
ATOM     35  C   UNL     1       8.156   0.874   5.198  0.00  0.00    +0.045 C 
ENDROOT
BRANCH  10   9
ATOM      4  C   UNL     1      11.188  -2.361   8.213  0.00  0.00    +0.077 A 
ATOM      5  C   UNL     1      12.208  -2.207   7.216  0.00  0.00    +0.048 A 
ATOM      6  C   UNL     1      12.221  -0.999   6.483  0.00  0.00    +0.116 A 
ATOM      7  N   UNL     1      11.280  -0.024   6.738  0.00  0.00    -0.223 NA
ATOM      8  C   UNL     1      10.309  -0.206   7.705  0.00  0.00    +0.220 A 
ATOM      9  N   UNL     1       9.358   0.764   7.983  0.00  0.00    -0.283 N 
ATOM     36  H   UNL     1       8.654   0.588   8.700  0.00  0.00    +0.155 HD
ATOM     37  N   UNL     1      10.274  -1.351   8.418  0.00  0.00    -0.214 NA
BRANCH   4   3
ATOM      1  C   UNL     1      10.991  -6.077   9.418  0.00  0.00    +0.020 A 
ATOM      2  C   UNL     1      11.136  -4.935   8.546  0.00  0.00    +0.013 A 
ATOM      3  C   UNL     1      11.045  -3.579   9.072  0.00  0.00    +0.019 A 
ATOM     38  C   UNL     1      10.806  -3.412  10.498  0.00  0.00    +0.120 A 
ATOM     39  N   UNL     1      10.669  -4.531  11.314  0.00  0.00    -0.263 NA
ATOM     40  C   UNL     1      10.753  -5.841  10.818  0.00  0.00    +0.111 A 
ENDBRANCH   4   3
ENDBRANCH  10   9
BRANCH  12  13
ATOM     13  N   UNL     1      10.504   5.603   7.829  0.00  0.00    -0.281 N 
ATOM     14  C   UNL     1      11.412   6.480   7.259  0.00  0.00    +0.248 C 
ATOM     30  O   UNL     1      12.043   6.255   6.237  0.00  0.00    -0.270 OA
ATOM     31  H   UNL     1      10.197   5.827   8.776  0.00  0.00    +0.155 HD
BRANCH  14  15
ATOM     15  C   UNL     1      11.668   7.791   7.930  0.00  0.00    +0.037 A 
ATOM     16  C   UNL     1      11.879   9.014   7.152  0.00  0.00    +0.013 A 
ATOM     17  C   UNL     1      12.140  10.263   7.823  0.00  0.00    +0.005 A 
ATOM     18  C   UNL     1      12.190  10.294   9.283  0.00  0.00    -0.033 A 
ATOM     28  C   UNL     1      11.972   9.067  10.030  0.00  0.00    +0.005 A 
ATOM     29  C   UNL     1      11.716   7.841   9.376  0.00  0.00    +0.013 A 
BRANCH  18  19
ATOM     19  C   UNL     1      12.483  11.577  10.082  0.00  0.00    +0.119 C 
BRANCH  19  20
ATOM     20  N   UNL     1      11.661  12.783   9.766  0.00  0.00    -0.302 NA
ATOM     21  C   UNL     1      12.163  14.030  10.500  0.00  0.00    +0.066 C 
ATOM     22  C   UNL     1      11.305  15.286  10.140  0.00  0.00    -0.064 C 
ATOM     23  N   UNL     1       9.839  15.013  10.478  0.00  0.00    +0.379 N 
ATOM     24  C   UNL     1       9.038  16.213  10.194  0.00  0.00    -0.096 C 
ATOM     25  H   UNL     1       9.775  14.814  11.573  0.00  0.00    -0.082 HD
ATOM     26  C   UNL     1       9.332  13.774   9.754  0.00  0.00    -0.064 C 
ATOM     27  C   UNL     1      10.209  12.537  10.095  0.00  0.00    +0.066 C 
ENDBRANCH  19  20
ENDBRANCH  18  19
ENDBRANCH  14  15
ENDBRANCH  12  13
TORSDOF 6
ENDMDL
MODEL 3
REMARK VINA RESULT:      -7.4      5.988     11.089
REMARK  Name = C:\Users\Docking\Desktop\test protocol\1iep_ligandH.pdb
REMARK  8 active torsions:
REMARK  status: ('A' for Active; 'I' for Inactive)
REMARK    1  A    between atoms: _5  and  _11
REMARK    2  A    between atoms: _19  and  _21
REMARK    3  A    between atoms: _22  and  _66
REMARK    4  A    between atoms: _27  and  _30
REMARK    5  A    between atoms: _32  and  _33
REMARK    6  A    between atoms: _38  and  _43
REMARK    7  A    between atoms: _43  and  _46
REMARK    8  A    between atoms: _53  and  _55
REMARK                            x       y       z     vdW  Elec       q    Type
REMARK                         _______ _______ _______ _____ _____    ______ ____
ROOT
ATOM     10  C   UNL     1      10.631  -4.289   9.713  0.00  0.00    +0.038 A 
ATOM     11  C   UNL     1      10.435  -5.237   8.676  0.00  0.00    +0.047 A 
ATOM     12  C   UNL     1      10.645  -6.658   8.907  0.00  0.00    +0.035 A 
ATOM     32  C   UNL     1      11.052  -7.079  10.206  0.00  0.00    +0.024 A 
ATOM     33  C   UNL     1      11.258  -6.128  11.271  0.00  0.00    +0.007 A 
ATOM     34  C   UNL     1      11.055  -4.725  11.049  0.00  0.00    -0.029 A 
ATOM     35  C   UNL     1      11.296  -3.751  12.225  0.00  0.00    +0.045 C 
ENDROOT
BRANCH  10   9
ATOM      4  C   UNL     1      11.469  -0.301   7.176  0.00  0.00    +0.077 A 
ATOM      5  C   UNL     1      12.439  -0.960   6.349  0.00  0.00    +0.048 A 
ATOM      6  C   UNL     1      12.698  -2.324   6.614  0.00  0.00    +0.116 A 
ATOM      7  N   UNL     1      12.032  -2.970   7.632  0.00  0.00    -0.223 NA
ATOM      8  C   UNL     1      11.104  -2.305   8.412  0.00  0.00    +0.220 A 
ATOM      9  N   UNL     1      10.416  -2.937   9.436  0.00  0.00    -0.283 N 
ATOM     36  H   UNL     1       9.744  -2.409   9.993  0.00  0.00    +0.155 HD
ATOM     37  N   UNL     1      10.839  -1.002   8.180  0.00  0.00    -0.214 NA
BRANCH   4   3
ATOM      1  C   UNL     1       9.723   3.168   7.638  0.00  0.00    +0.020 A 
ATOM      2  C   UNL     1      10.057   1.776   7.831  0.00  0.00    +0.013 A 
ATOM      3  C   UNL     1      11.084   1.137   7.018  0.00  0.00    +0.019 A 
ATOM     38  C   UNL     1      11.760   1.941   6.011  0.00  0.00    +0.120 A 
ATOM     39  N   UNL     1      11.416   3.279   5.847  0.00  0.00    -0.263 NA
ATOM     40  C   UNL     1      10.428   3.905   6.622  0.00  0.00    +0.111 A 
ENDBRANCH   4   3
ENDBRANCH  10   9
BRANCH  12  13
ATOM     13  N   UNL     1      10.469  -7.666   7.891  0.00  0.00    -0.281 N 
ATOM     14  C   UNL     1      11.445  -8.417   7.258  0.00  0.00    +0.248 C 
ATOM     30  O   UNL     1      12.644  -8.183   7.318  0.00  0.00    -0.270 OA
ATOM     31  H   UNL     1       9.507  -7.848   7.604  0.00  0.00    +0.155 HD
BRANCH  14  15
ATOM     15  C   UNL     1      11.031  -9.589   6.428  0.00  0.00    +0.037 A 
ATOM     16  C   UNL     1      10.972 -10.939   6.994  0.00  0.00    +0.013 A 
ATOM     17  C   UNL     1      10.586 -12.054   6.167  0.00  0.00    +0.005 A 
ATOM     18  C   UNL     1      10.252 -11.822   4.763  0.00  0.00    -0.033 A 
ATOM     28  C   UNL     1      10.314 -10.472   4.229  0.00  0.00    +0.005 A 
ATOM     29  C   UNL     1      10.693  -9.377   5.036  0.00  0.00    +0.013 A 
BRANCH  18  19
ATOM     19  C   UNL     1       9.850 -12.956   3.801  0.00  0.00    +0.119 C 
BRANCH  19  20
ATOM     20  N   UNL     1       8.501 -12.867   3.166  0.00  0.00    -0.302 NA
ATOM     21  C   UNL     1       7.769 -14.212   3.182  0.00  0.00    +0.066 C 
ATOM     22  C   UNL     1       6.351 -14.096   2.535  0.00  0.00    -0.064 C 
ATOM     23  N   UNL     1       6.488 -13.571   1.105  0.00  0.00    +0.379 N 
ATOM     24  C   UNL     1       5.161 -13.515   0.473  0.00  0.00    -0.096 C 
ATOM     25  H   UNL     1       7.104 -14.303   0.533  0.00  0.00    -0.082 HD
ATOM     26  C   UNL     1       7.217 -12.235   1.080  0.00  0.00    -0.064 C 
ATOM     27  C   UNL     1       8.613 -12.354   1.752  0.00  0.00    +0.066 C 
ENDBRANCH  19  20
ENDBRANCH  18  19
ENDBRANCH  14  15
ENDBRANCH  12  13
TORSDOF 6
ENDMDL
MODEL 4
REMARK VINA RESULT:      -7.4      4.773      8.479
REMARK  Name = C:\Users\Docking\Desktop\test protocol\1iep_ligandH.pdb
REMARK  8 active torsions:
REMARK  status: ('A' for Active; 'I' for Inactive)
REMARK    1  A    between atoms: _5  and  _11
REMARK    2  A    between atoms: _19  and  _21
REMARK    3  A    between atoms: _22  and  _66
REMARK    4  A    between atoms: _27  and  _30
REMARK    5  A    between atoms: _32  and  _33
REMARK    6  A    between atoms: _38  and  _43
REMARK    7  A    between atoms: _43  and  _46
REMARK    8  A    between atoms: _53  and  _55
REMARK                            x       y       z     vdW  Elec       q    Type
REMARK                         _______ _______ _______ _____ _____    ______ ____
ROOT
ATOM     10  C   UNL     1      11.927  12.916  10.386  0.00  0.00    +0.038 A 
ATOM     11  C   UNL     1      11.445  11.787   9.676  0.00  0.00    +0.047 A 
ATOM     12  C   UNL     1      11.470  10.458  10.267  0.00  0.00    +0.035 A 
ATOM     32  C   UNL     1      11.989  10.316  11.587  0.00  0.00    +0.024 A 
ATOM     33  C   UNL     1      12.484  11.453  12.324  0.00  0.00    +0.007 A 
ATOM     34  C   UNL     1      12.464  12.765  11.744  0.00  0.00    -0.029 A 
ATOM     35  C   UNL     1      13.013  13.947  12.577  0.00  0.00    +0.045 C 
ENDROOT
BRANCH  10   9
ATOM      4  C   UNL     1       9.814  17.143   9.546  0.00  0.00    +0.077 A 
ATOM      5  C   UNL     1       8.697  16.818  10.385  0.00  0.00    +0.048 A 
ATOM      6  C   UNL     1       8.701  15.550  11.009  0.00  0.00    +0.116 A 
ATOM      7  N   UNL     1       9.749  14.680  10.803  0.00  0.00    -0.223 NA
ATOM      8  C   UNL     1      10.810  15.024   9.986  0.00  0.00    +0.220 A 
ATOM      9  N   UNL     1      11.879  14.168   9.770  0.00  0.00    -0.283 N 
ATOM     36  H   UNL     1      12.640  14.456   9.154  0.00  0.00    +0.155 HD
ATOM     37  N   UNL     1      10.829  16.228   9.377  0.00  0.00    -0.214 NA
BRANCH   4   3
ATOM      1  C   UNL     1      10.570  20.889   8.713  0.00  0.00    +0.020 A 
ATOM      2  C   UNL     1      10.452  19.657   9.459  0.00  0.00    +0.013 A 
ATOM      3  C   UNL     1       9.956  18.445   8.821  0.00  0.00    +0.019 A 
ATOM     38  C   UNL     1       9.586  18.512   7.415  0.00  0.00    +0.120 A 
ATOM     39  N   UNL     1       9.709  19.713   6.723  0.00  0.00    -0.263 NA
ATOM     40  C   UNL     1      10.184  20.887   7.327  0.00  0.00    +0.111 A 
ENDBRANCH   4   3
ENDBRANCH  10   9
BRANCH  12  13
ATOM     13  N   UNL     1      11.002   9.274   9.591  0.00  0.00    -0.281 N 
ATOM     14  C   UNL     1       9.740   9.030   9.074  0.00  0.00    +0.248 C 
ATOM     30  O   UNL     1       8.755   9.715   9.306  0.00  0.00    -0.270 OA
ATOM     31  H   UNL     1      11.684   8.524   9.479  0.00  0.00    +0.155 HD
BRANCH  14  15
ATOM     15  C   UNL     1       9.540   7.847   8.183  0.00  0.00    +0.037 A 
ATOM     16  C   UNL     1       8.240   7.571   7.567  0.00  0.00    +0.013 A 
ATOM     17  C   UNL     1       8.071   6.413   6.725  0.00  0.00    +0.005 A 
ATOM     18  C   UNL     1       9.206   5.524   6.493  0.00  0.00    -0.033 A 
ATOM     28  C   UNL     1      10.486   5.824   7.113  0.00  0.00    +0.005 A 
ATOM     29  C   UNL     1      10.656   6.958   7.939  0.00  0.00    +0.013 A 
BRANCH  18  19
ATOM     19  C   UNL     1       9.110   4.254   5.626  0.00  0.00    +0.119 C 
BRANCH  19  20
ATOM     20  N   UNL     1       9.734   3.009   6.165  0.00  0.00    -0.302 NA
ATOM     21  C   UNL     1      10.015   1.983   5.064  0.00  0.00    +0.066 C 
ATOM     22  C   UNL     1      10.688   0.696   5.642  0.00  0.00    -0.064 C 
ATOM     23  N   UNL     1       9.789   0.097   6.725  0.00  0.00    +0.379 N 
ATOM     24  C   UNL     1      10.392  -1.145   7.231  0.00  0.00    -0.096 C 
ATOM     25  H   UNL     1       8.817  -0.168   6.249  0.00  0.00    -0.082 HD
ATOM     26  C   UNL     1       9.503   1.111   7.823  0.00  0.00    -0.064 C 
ATOM     27  C   UNL     1       8.861   2.398   7.234  0.00  0.00    +0.066 C 
ENDBRANCH  19  20
ENDBRANCH  18  19
ENDBRANCH  14  15
ENDBRANCH  12  13
TORSDOF 6
ENDMDL
MODEL 5
REMARK VINA RESULT:      -7.4      6.780     15.987
REMARK  Name = C:\Users\Docking\Desktop\test protocol\1iep_ligandH.pdb
REMARK  8 active torsions:
REMARK  status: ('A' for Active; 'I' for Inactive)
REMARK    1  A    between atoms: _5  and  _11
REMARK    2  A    between atoms: _19  and  _21
REMARK    3  A    between atoms: _22  and  _66
REMARK    4  A    between atoms: _27  and  _30
REMARK    5  A    between atoms: _32  and  _33
REMARK    6  A    between atoms: _38  and  _43
REMARK    7  A    between atoms: _43  and  _46
REMARK    8  A    between atoms: _53  and  _55
REMARK                            x       y       z     vdW  Elec       q    Type
REMARK                         _______ _______ _______ _____ _____    ______ ____
ROOT
ATOM     10  C   UNL     1      12.396  10.379  11.759  0.00  0.00    +0.038 A 
ATOM     11  C   UNL     1      12.109  11.661  11.226  0.00  0.00    +0.047 A 
ATOM     12  C   UNL     1      11.257  12.599  11.939  0.00  0.00    +0.035 A 
ATOM     32  C   UNL     1      10.716  12.200  13.196  0.00  0.00    +0.024 A 
ATOM     33  C   UNL     1      10.997  10.899  13.752  0.00  0.00    +0.007 A 
ATOM     34  C   UNL     1      11.834   9.969  13.052  0.00  0.00    -0.029 A 
ATOM     35  C   UNL     1      12.096   8.586  13.693  0.00  0.00    +0.045 C 
ENDROOT
BRANCH  10   9
ATOM      4  C   UNL     1      13.130   7.162   8.273  0.00  0.00    +0.077 A 
ATOM      5  C   UNL     1      11.748   7.178   7.886  0.00  0.00    +0.048 A 
ATOM      6  C   UNL     1      10.880   8.022   8.615  0.00  0.00    +0.116 A 
ATOM      7  N   UNL     1      11.369   8.789   9.650  0.00  0.00    -0.223 NA
ATOM      8  C   UNL     1      12.706   8.749   9.998  0.00  0.00    +0.220 A 
ATOM      9  N   UNL     1      13.221   9.517  11.031  0.00  0.00    -0.283 N 
ATOM     36  H   UNL     1      14.212   9.454  11.262  0.00  0.00    +0.155 HD
ATOM     37  N   UNL     1      13.555   7.949   9.319  0.00  0.00    -0.214 NA
BRANCH   4   3
ATOM      1  C   UNL     1      14.952   4.204   6.475  0.00  0.00    +0.020 A 
ATOM      2  C   UNL     1      13.912   4.971   7.121  0.00  0.00    +0.013 A 
ATOM      3  C   UNL     1      14.170   6.324   7.598  0.00  0.00    +0.019 A 
ATOM     38  C   UNL     1      15.503   6.876   7.403  0.00  0.00    +0.120 A 
ATOM     39  N   UNL     1      16.485   6.113   6.778  0.00  0.00    -0.263 NA
ATOM     40  C   UNL     1      16.248   4.810   6.317  0.00  0.00    +0.111 A 
ENDBRANCH   4   3
ENDBRANCH  10   9
BRANCH  12  13
ATOM     13  N   UNL     1      10.925  13.912  11.444  0.00  0.00    -0.281 N 
ATOM     14  C   UNL     1       9.919  14.257  10.556  0.00  0.00    +0.248 C 
ATOM     30  O   UNL     1       9.285  13.457   9.884  0.00  0.00    -0.270 OA
ATOM     31  H   UNL     1      11.500  14.680  11.789  0.00  0.00    +0.155 HD
BRANCH  14  15
ATOM     15  C   UNL     1       9.578  15.701  10.377  0.00  0.00    +0.037 A 
ATOM     16  C   UNL     1       8.325  16.256  10.896  0.00  0.00    +0.013 A 
ATOM     17  C   UNL     1       8.012  17.649  10.695  0.00  0.00    +0.005 A 
ATOM     18  C   UNL     1       8.957  18.497   9.972  0.00  0.00    -0.033 A 
ATOM     28  C   UNL     1      10.195  17.923   9.473  0.00  0.00    +0.005 A 
ATOM     29  C   UNL     1      10.504  16.558   9.667  0.00  0.00    +0.013 A 
BRANCH  18  19
ATOM     19  C   UNL     1       8.696  19.989   9.693  0.00  0.00    +0.119 C 
BRANCH  19  20
ATOM     20  N   UNL     1       9.397  20.981  10.563  0.00  0.00    -0.302 NA
ATOM     21  C   UNL     1      10.823  21.261  10.079  0.00  0.00    +0.066 C 
ATOM     22  C   UNL     1      11.535  22.317  10.987  0.00  0.00    -0.064 C 
ATOM     23  N   UNL     1      11.541  21.820  12.433  0.00  0.00    +0.379 N 
ATOM     24  C   UNL     1      12.261  22.783  13.279  0.00  0.00    -0.096 C 
ATOM     25  H   UNL     1      12.107  20.859  12.458  0.00  0.00    -0.082 HD
ATOM     26  C   UNL     1      10.128  21.536  12.921  0.00  0.00    -0.064 C 
ATOM     27  C   UNL     1       9.420  20.508  11.995  0.00  0.00    +0.066 C 
ENDBRANCH  19  20
ENDBRANCH  18  19
ENDBRANCH  14  15
ENDBRANCH  12  13
TORSDOF 6
ENDMDL
