MODEL 1
REMARK VINA RESULT:      -8.2      0.000      0.000
REMARK  Name = C:\Users\Docking\Desktop\test protocol\1iep_ligandH.pdb
REMARK  8 active torsions:
REMARK  status: ('A' for Active; 'I' for Inactive)
REMARK    1  A    between atoms: _5  and  _11
REMARK    2  A    between atoms: _19  and  _21
REMARK    3  A    between atoms: _22  and  _66
REMARK    4  A    between atoms: _27  and  _30
REMARK    5  A    between atoms: _32  and  _33
REMARK    6  A    between atoms: _38  and  _43
REMARK    7  A    between atoms: _43  and  _46
REMARK    8  A    between atoms: _53  and  _55
REMARK                            x       y       z     vdW  Elec       q    Type
REMARK                         _______ _______ _______ _____ _____    ______ ____
ROOT
ATOM     10  C   UNL     1     -11.343  -0.937  -7.349  0.00  0.00    +0.038 A 
ATOM     11  C   UNL     1     -10.808  -1.746  -8.384  0.00  0.00    +0.047 A 
ATOM     12  C   UNL     1     -11.207  -3.136  -8.535  0.00  0.00    +0.035 A 
ATOM     32  C   UNL     1     -12.156  -3.671  -7.615  0.00  0.00    +0.024 A 
ATOM     33  C   UNL     1     -12.709  -2.863  -6.556  0.00  0.00    +0.007 A 
ATOM     34  C   UNL     1     -12.317  -1.492  -6.401  0.00  0.00    -0.029 A 
ATOM     35  C   UNL     1     -12.938  -0.675  -5.243  0.00  0.00    +0.045 C 
ENDROOT
BRANCH  10   9
ATOM      4  C   UNL     1      -8.301   2.439  -5.804  0.00  0.00    +0.077 A 
ATOM      5  C   UNL     1      -7.492   1.477  -5.112  0.00  0.00    +0.048 A 
ATOM      6  C   UNL     1      -7.897   0.125  -5.173  0.00  0.00    +0.116 A 
ATOM      7  N   UNL     1      -9.028  -0.228  -5.876  0.00  0.00    -0.223 NA
ATOM      8  C   UNL     1      -9.787   0.725  -6.530  0.00  0.00    +0.220 A 
ATOM      9  N   UNL     1     -10.925   0.392  -7.250  0.00  0.00    -0.283 N 
ATOM     36  H   UNL     1     -11.461   1.125  -7.713  0.00  0.00    +0.155 HD
ATOM     37  N   UNL     1      -9.423   2.023  -6.487  0.00  0.00    -0.214 NA
BRANCH   4   3
ATOM      1  C   UNL     1      -6.421   5.861  -6.043  0.00  0.00    +0.020 A 
ATOM      2  C   UNL     1      -6.657   4.436  -6.019  0.00  0.00    +0.013 A 
ATOM      3  C   UNL     1      -8.002   3.906  -5.836  0.00  0.00    +0.019 A 
ATOM     38  C   UNL     1      -9.096   4.852  -5.679  0.00  0.00    +0.120 A 
ATOM     39  N   UNL     1      -8.839   6.219  -5.705  0.00  0.00    -0.263 NA
ATOM     40  C   UNL     1      -7.548   6.741  -5.879  0.00  0.00    +0.111 A 
ENDBRANCH   4   3
ENDBRANCH  10   9
BRANCH  12  13
ATOM     13  N   UNL     1     -10.692  -4.008  -9.561  0.00  0.00    -0.281 N 
ATOM     14  C   UNL     1     -10.753  -5.391  -9.614  0.00  0.00    +0.248 C 
ATOM     30  O   UNL     1     -11.074  -6.105  -8.675  0.00  0.00    -0.270 OA
ATOM     31  H   UNL     1     -10.226  -3.550 -10.345  0.00  0.00    +0.155 HD
BRANCH  14  15
ATOM     15  C   UNL     1     -10.391  -6.082 -10.889  0.00  0.00    +0.037 A 
ATOM     16  C   UNL     1     -10.862  -5.583 -12.184  0.00  0.00    +0.013 A 
ATOM     17  C   UNL     1     -10.512  -6.278 -13.397  0.00  0.00    +0.005 A 
ATOM     18  C   UNL     1      -9.685  -7.480 -13.321  0.00  0.00    -0.033 A 
ATOM     28  C   UNL     1      -9.227  -7.950 -12.024  0.00  0.00    +0.005 A 
ATOM     29  C   UNL     1      -9.569  -7.272 -10.832  0.00  0.00    +0.013 A 
BRANCH  18  19
ATOM     19  C   UNL     1      -9.281  -8.297 -14.562  0.00  0.00    +0.119 C 
BRANCH  19  20
ATOM     20  N   UNL     1      -9.841  -9.676 -14.686  0.00  0.00    -0.302 NA
ATOM     21  C   UNL     1     -10.210 -10.019 -16.132  0.00  0.00    +0.066 C 
ATOM     22  C   UNL     1     -10.773 -11.473 -16.246  0.00  0.00    -0.064 C 
ATOM     23  N   UNL     1     -11.988 -11.620 -15.328  0.00  0.00    +0.379 N 
ATOM     24  C   UNL     1     -12.555 -12.968 -15.476  0.00  0.00    -0.096 C 
ATOM     25  H   UNL     1     -12.758 -10.889 -15.668  0.00  0.00    -0.082 HD
ATOM     26  C   UNL     1     -11.631 -11.277 -13.888  0.00  0.00    -0.064 C 
ATOM     27  C   UNL     1     -11.045  -9.841 -13.791  0.00  0.00    +0.066 C 
ENDBRANCH  19  20
ENDBRANCH  18  19
ENDBRANCH  14  15
ENDBRANCH  12  13
TORSDOF 6
ENDMDL
MODEL 2
REMARK VINA RESULT:      -8.2     24.508     27.067
REMARK  Name = C:\Users\Docking\Desktop\test protocol\1iep_ligandH.pdb
REMARK  8 active torsions:
REMARK  status: ('A' for Active; 'I' for Inactive)
REMARK    1  A    between atoms: _5  and  _11
REMARK    2  A    between atoms: _19  and  _21
REMARK    3  A    between atoms: _22  and  _66
REMARK    4  A    between atoms: _27  and  _30
REMARK    5  A    between atoms: _32  and  _33
REMARK    6  A    between atoms: _38  and  _43
REMARK    7  A    between atoms: _43  and  _46
REMARK    8  A    between atoms: _53  and  _55
REMARK                            x       y       z     vdW  Elec       q    Type
REMARK                         _______ _______ _______ _____ _____    ______ ____
ROOT
ATOM     10  C   UNL     1     -12.857   5.785 -35.002  0.00  0.00    +0.038 A 
ATOM     11  C   UNL     1     -11.601   5.437 -34.442  0.00  0.00    +0.047 A 
ATOM     12  C   UNL     1     -10.757   4.424 -35.059  0.00  0.00    +0.035 A 
ATOM     32  C   UNL     1     -11.223   3.788 -36.246  0.00  0.00    +0.024 A 
ATOM     33  C   UNL     1     -12.498   4.129 -36.827  0.00  0.00    +0.007 A 
ATOM     34  C   UNL     1     -13.335   5.125 -36.222  0.00  0.00    -0.029 A 
ATOM     35  C   UNL     1     -14.695   5.446 -36.886  0.00  0.00    +0.045 C 
ENDROOT
BRANCH  10   9
ATOM      4  C   UNL     1     -14.569  10.256 -34.657  0.00  0.00    +0.077 A 
ATOM      5  C   UNL     1     -13.849  10.684 -35.822  0.00  0.00    +0.048 A 
ATOM      6  C   UNL     1     -13.044   9.725 -36.476  0.00  0.00    +0.116 A 
ATOM      7  N   UNL     1     -12.972   8.436 -35.994  0.00  0.00    -0.223 NA
ATOM      8  C   UNL     1     -13.677   8.056 -34.867  0.00  0.00    +0.220 A 
ATOM      9  N   UNL     1     -13.626   6.764 -34.368  0.00  0.00    -0.283 N 
ATOM     36  H   UNL     1     -14.155   6.525 -33.530  0.00  0.00    +0.155 HD
ATOM     37  N   UNL     1     -14.452   8.954 -34.223  0.00  0.00    -0.214 NA
BRANCH   4   3
ATOM      1  C   UNL     1     -16.690  11.779 -31.745  0.00  0.00    +0.020 A 
ATOM      2  C   UNL     1     -15.823  10.881 -32.472  0.00  0.00    +0.013 A 
ATOM      3  C   UNL     1     -15.463  11.152 -33.858  0.00  0.00    +0.019 A 
ATOM     38  C   UNL     1     -16.003  12.349 -34.484  0.00  0.00    +0.120 A 
ATOM     39  N   UNL     1     -16.837  13.195 -33.760  0.00  0.00    -0.263 NA
ATOM     40  C   UNL     1     -17.191  12.943 -32.426  0.00  0.00    +0.111 A 
ENDBRANCH   4   3
ENDBRANCH  10   9
BRANCH  12  13
ATOM     13  N   UNL     1      -9.476   4.023 -34.532  0.00  0.00    -0.281 N 
ATOM     14  C   UNL     1      -8.227   4.528 -34.855  0.00  0.00    +0.248 C 
ATOM     30  O   UNL     1      -8.002   5.259 -35.808  0.00  0.00    -0.270 OA
ATOM     31  H   UNL     1      -9.492   3.277 -33.837  0.00  0.00    +0.155 HD
BRANCH  14  15
ATOM     15  C   UNL     1      -7.056   4.156 -34.004  0.00  0.00    +0.037 A 
ATOM     16  C   UNL     1      -5.727   3.953 -34.586  0.00  0.00    +0.013 A 
ATOM     17  C   UNL     1      -4.618   3.577 -33.746  0.00  0.00    +0.005 A 
ATOM     18  C   UNL     1      -4.834   3.403 -32.311  0.00  0.00    -0.033 A 
ATOM     28  C   UNL     1      -6.162   3.616 -31.759  0.00  0.00    +0.005 A 
ATOM     29  C   UNL     1      -7.251   3.983 -32.580  0.00  0.00    +0.013 A 
BRANCH  18  19
ATOM     19  C   UNL     1      -3.714   2.983 -31.342  0.00  0.00    +0.119 C 
BRANCH  19  20
ATOM     20  N   UNL     1      -3.672   1.550 -30.924  0.00  0.00    -0.302 NA
ATOM     21  C   UNL     1      -3.043   1.373 -29.539  0.00  0.00    +0.066 C 
ATOM     22  C   UNL     1      -3.029  -0.130 -29.109  0.00  0.00    -0.064 C 
ATOM     23  N   UNL     1      -2.273  -0.950 -30.156  0.00  0.00    +0.379 N 
ATOM     24  C   UNL     1      -2.208  -2.355 -29.725  0.00  0.00    -0.096 C 
ATOM     25  H   UNL     1      -1.229  -0.561 -30.201  0.00  0.00    -0.082 HD
ATOM     26  C   UNL     1      -2.890  -0.778 -31.537  0.00  0.00    -0.064 C 
ATOM     27  C   UNL     1      -2.927   0.722 -31.942  0.00  0.00    +0.066 C 
ENDBRANCH  19  20
ENDBRANCH  18  19
ENDBRANCH  14  15
ENDBRANCH  12  13
TORSDOF 6
ENDMDL
MODEL 3
REMARK VINA RESULT:      -8.1     14.430     19.267
REMARK  Name = C:\Users\Docking\Desktop\test protocol\1iep_ligandH.pdb
REMARK  8 active torsions:
REMARK  status: ('A' for Active; 'I' for Inactive)
REMARK    1  A    between atoms: _5  and  _11
REMARK    2  A    between atoms: _19  and  _21
REMARK    3  A    between atoms: _22  and  _66
REMARK    4  A    between atoms: _27  and  _30
REMARK    5  A    between atoms: _32  and  _33
REMARK    6  A    between atoms: _38  and  _43
REMARK    7  A    between atoms: _43  and  _46
REMARK    8  A    between atoms: _53  and  _55
REMARK                            x       y       z     vdW  Elec       q    Type
REMARK                         _______ _______ _______ _____ _____    ______ ____
ROOT
ATOM     10  C   UNL     1     -14.204   9.543 -12.874  0.00  0.00    +0.038 A 
ATOM     11  C   UNL     1     -15.356  10.186 -13.395  0.00  0.00    +0.047 A 
ATOM     12  C   UNL     1     -16.138   9.582 -14.462  0.00  0.00    +0.035 A 
ATOM     32  C   UNL     1     -15.719   8.320 -14.975  0.00  0.00    +0.024 A 
ATOM     33  C   UNL     1     -14.551   7.652 -14.458  0.00  0.00    +0.007 A 
ATOM     34  C   UNL     1     -13.774   8.244 -13.407  0.00  0.00    -0.029 A 
ATOM     35  C   UNL     1     -12.527   7.486 -12.896  0.00  0.00    +0.045 C 
ENDROOT
BRANCH  10   9
ATOM      4  C   UNL     1     -10.570  12.246 -11.285  0.00  0.00    +0.077 A 
ATOM      5  C   UNL     1     -10.032  12.403 -12.606  0.00  0.00    +0.048 A 
ATOM      6  C   UNL     1     -10.716  11.767 -13.665  0.00  0.00    +0.116 A 
ATOM      7  N   UNL     1     -11.853  11.030 -13.412  0.00  0.00    -0.223 NA
ATOM      8  C   UNL     1     -12.345  10.897 -12.126  0.00  0.00    +0.220 A 
ATOM      9  N   UNL     1     -13.491  10.168 -11.849  0.00  0.00    -0.283 N 
ATOM     36  H   UNL     1     -13.817  10.088 -10.886  0.00  0.00    +0.155 HD
ATOM     37  N   UNL     1     -11.708  11.494 -11.097  0.00  0.00    -0.214 NA
BRANCH   4   3
ATOM      1  C   UNL     1      -8.950  14.796  -8.801  0.00  0.00    +0.020 A 
ATOM      2  C   UNL     1      -9.531  14.251 -10.006  0.00  0.00    +0.013 A 
ATOM      3  C   UNL     1      -9.962  12.860 -10.063  0.00  0.00    +0.019 A 
ATOM     38  C   UNL     1      -9.791  12.041  -8.873  0.00  0.00    +0.120 A 
ATOM     39  N   UNL     1      -9.227  12.592  -7.726  0.00  0.00    -0.263 NA
ATOM     40  C   UNL     1      -8.807  13.929  -7.661  0.00  0.00    +0.111 A 
ENDBRANCH   4   3
ENDBRANCH  10   9
BRANCH  12  13
ATOM     13  N   UNL     1     -17.311  10.192 -15.036  0.00  0.00    -0.281 N 
ATOM     14  C   UNL     1     -18.636   9.989 -14.684  0.00  0.00    +0.248 C 
ATOM     30  O   UNL     1     -19.027   9.085 -13.961  0.00  0.00    -0.270 OA
ATOM     31  H   UNL     1     -17.146  10.855 -15.794  0.00  0.00    +0.155 HD
BRANCH  14  15
ATOM     15  C   UNL     1     -19.677  10.914 -15.225  0.00  0.00    +0.037 A 
ATOM     16  C   UNL     1     -19.817  11.142 -16.666  0.00  0.00    +0.013 A 
ATOM     17  C   UNL     1     -20.819  12.053 -17.160  0.00  0.00    +0.005 A 
ATOM     18  C   UNL     1     -21.690  12.742 -16.211  0.00  0.00    -0.033 A 
ATOM     28  C   UNL     1     -21.534  12.493 -14.788  0.00  0.00    +0.005 A 
ATOM     29  C   UNL     1     -20.552  11.602 -14.300  0.00  0.00    +0.013 A 
BRANCH  18  19
ATOM     19  C   UNL     1     -22.773  13.747 -16.648  0.00  0.00    +0.119 C 
BRANCH  19  20
ATOM     20  N   UNL     1     -22.360  15.175 -16.795  0.00  0.00    -0.302 NA
ATOM     21  C   UNL     1     -23.332  16.128 -16.094  0.00  0.00    +0.066 C 
ATOM     22  C   UNL     1     -22.874  17.616 -16.238  0.00  0.00    -0.064 C 
ATOM     23  N   UNL     1     -22.747  17.966 -17.721  0.00  0.00    +0.379 N 
ATOM     24  C   UNL     1     -22.373  19.381 -17.861  0.00  0.00    -0.096 C 
ATOM     25  H   UNL     1     -23.752  17.835 -18.186  0.00  0.00    -0.082 HD
ATOM     26  C   UNL     1     -21.785  17.022 -18.427  0.00  0.00    -0.064 C 
ATOM     27  C   UNL     1     -22.234  15.544 -18.253  0.00  0.00    +0.066 C 
ENDBRANCH  19  20
ENDBRANCH  18  19
ENDBRANCH  14  15
ENDBRANCH  12  13
TORSDOF 6
ENDMDL
MODEL 4
REMARK VINA RESULT:      -8.1      2.175      2.933
REMARK  Name = C:\Users\Docking\Desktop\test protocol\1iep_ligandH.pdb
REMARK  8 active torsions:
REMARK  status: ('A' for Active; 'I' for Inactive)
REMARK    1  A    between atoms: _5  and  _11
REMARK    2  A    between atoms: _19  and  _21
REMARK    3  A    between atoms: _22  and  _66
REMARK    4  A    between atoms: _27  and  _30
REMARK    5  A    between atoms: _32  and  _33
REMARK    6  A    between atoms: _38  and  _43
REMARK    7  A    between atoms: _43  and  _46
REMARK    8  A    between atoms: _53  and  _55
REMARK                            x       y       z     vdW  Elec       q    Type
REMARK                         _______ _______ _______ _____ _____    ______ ____
ROOT
ATOM     10  C   UNL     1     -11.480   0.484  -6.947  0.00  0.00    +0.038 A 
ATOM     11  C   UNL     1     -11.130  -0.445  -7.960  0.00  0.00    +0.047 A 
ATOM     12  C   UNL     1     -10.859  -1.838  -7.643  0.00  0.00    +0.035 A 
ATOM     32  C   UNL     1     -10.956  -2.252  -6.282  0.00  0.00    +0.024 A 
ATOM     33  C   UNL     1     -11.310  -1.321  -5.240  0.00  0.00    +0.007 A 
ATOM     34  C   UNL     1     -11.576   0.055  -5.547  0.00  0.00    -0.029 A 
ATOM     35  C   UNL     1     -11.945   1.010  -4.388  0.00  0.00    +0.045 C 
ENDROOT
BRANCH  10   9
ATOM      4  C   UNL     1     -10.196   5.097  -7.271  0.00  0.00    +0.077 A 
ATOM      5  C   UNL     1      -8.930   4.850  -6.642  0.00  0.00    +0.048 A 
ATOM      6  C   UNL     1      -8.651   3.524  -6.244  0.00  0.00    +0.116 A 
ATOM      7  N   UNL     1      -9.576   2.526  -6.464  0.00  0.00    -0.223 NA
ATOM      8  C   UNL     1     -10.788   2.799  -7.071  0.00  0.00    +0.220 A 
ATOM      9  N   UNL     1     -11.730   1.810  -7.309  0.00  0.00    -0.283 N 
ATOM     36  H   UNL     1     -12.616   2.053  -7.753  0.00  0.00    +0.155 HD
ATOM     37  N   UNL     1     -11.079   4.058  -7.459  0.00  0.00    -0.214 NA
BRANCH   4   3
ATOM      1  C   UNL     1     -12.136   8.471  -7.661  0.00  0.00    +0.020 A 
ATOM      2  C   UNL     1     -11.753   7.171  -7.160  0.00  0.00    +0.013 A 
ATOM      3  C   UNL     1     -10.635   6.446  -7.750  0.00  0.00    +0.019 A 
ATOM     38  C   UNL     1      -9.918   7.070  -8.852  0.00  0.00    +0.120 A 
ATOM     39  N   UNL     1     -10.311   8.322  -9.314  0.00  0.00    -0.263 NA
ATOM     40  C   UNL     1     -11.387   9.029  -8.756  0.00  0.00    +0.111 A 
ENDBRANCH   4   3
ENDBRANCH  10   9
BRANCH  12  13
ATOM     13  N   UNL     1     -10.491  -2.824  -8.628  0.00  0.00    -0.281 N 
ATOM     14  C   UNL     1     -11.123  -4.025  -8.909  0.00  0.00    +0.248 C 
ATOM     30  O   UNL     1     -11.983  -4.534  -8.205  0.00  0.00    -0.270 OA
ATOM     31  H   UNL     1      -9.664  -2.612  -9.186  0.00  0.00    +0.155 HD
BRANCH  14  15
ATOM     15  C   UNL     1     -10.734  -4.774 -10.142  0.00  0.00    +0.037 A 
ATOM     16  C   UNL     1      -9.706  -5.817 -10.105  0.00  0.00    +0.013 A 
ATOM     17  C   UNL     1      -9.338  -6.514 -11.312  0.00  0.00    +0.005 A 
ATOM     18  C   UNL     1     -10.001  -6.169 -12.568  0.00  0.00    -0.033 A 
ATOM     28  C   UNL     1     -11.021  -5.134 -12.575  0.00  0.00    +0.005 A 
ATOM     29  C   UNL     1     -11.384  -4.449 -11.394  0.00  0.00    +0.013 A 
BRANCH  18  19
ATOM     19  C   UNL     1      -9.656  -6.845 -13.908  0.00  0.00    +0.119 C 
BRANCH  19  20
ATOM     20  N   UNL     1      -9.647  -8.339 -13.938  0.00  0.00    -0.302 NA
ATOM     21  C   UNL     1      -9.350  -8.883 -15.338  0.00  0.00    +0.066 C 
ATOM     22  C   UNL     1      -9.322 -10.446 -15.347  0.00  0.00    -0.064 C 
ATOM     23  N   UNL     1     -10.659 -10.980 -14.830  0.00  0.00    +0.379 N 
ATOM     24  C   UNL     1     -10.657 -12.449 -14.891  0.00  0.00    -0.096 C 
ATOM     25  H   UNL     1     -11.457 -10.614 -15.516  0.00  0.00    -0.082 HD
ATOM     26  C   UNL     1     -10.963 -10.442 -13.439  0.00  0.00    -0.064 C 
ATOM     27  C   UNL     1     -10.960  -8.887 -13.436  0.00  0.00    +0.066 C 
ENDBRANCH  19  20
ENDBRANCH  18  19
ENDBRANCH  14  15
ENDBRANCH  12  13
TORSDOF 6
ENDMDL
MODEL 5
REMARK VINA RESULT:      -8.0     24.312     26.918
REMARK  Name = C:\Users\Docking\Desktop\test protocol\1iep_ligandH.pdb
REMARK  8 active torsions:
REMARK  status: ('A' for Active; 'I' for Inactive)
REMARK    1  A    between atoms: _5  and  _11
REMARK    2  A    between atoms: _19  and  _21
REMARK    3  A    between atoms: _22  and  _66
REMARK    4  A    between atoms: _27  and  _30
REMARK    5  A    between atoms: _32  and  _33
REMARK    6  A    between atoms: _38  and  _43
REMARK    7  A    between atoms: _43  and  _46
REMARK    8  A    between atoms: _53  and  _55
REMARK                            x       y       z     vdW  Elec       q    Type
REMARK                         _______ _______ _______ _____ _____    ______ ____
ROOT
ATOM     10  C   UNL     1     -11.156   7.913 -35.491  0.00  0.00    +0.038 A 
ATOM     11  C   UNL     1     -10.283   7.248 -34.593  0.00  0.00    +0.047 A 
ATOM     12  C   UNL     1      -9.235   6.364 -35.079  0.00  0.00    +0.035 A 
ATOM     32  C   UNL     1      -9.103   6.183 -36.487  0.00  0.00    +0.024 A 
ATOM     33  C   UNL     1      -9.983   6.851 -37.414  0.00  0.00    +0.007 A 
ATOM     34  C   UNL     1     -11.020   7.721 -36.940  0.00  0.00    -0.029 A 
ATOM     35  C   UNL     1     -11.939   8.406 -37.979  0.00  0.00    +0.045 C 
ENDROOT
BRANCH  10   9
ATOM      4  C   UNL     1     -15.665   8.775 -34.088  0.00  0.00    +0.077 A 
ATOM      5  C   UNL     1     -16.092   7.454 -34.449  0.00  0.00    +0.048 A 
ATOM      6  C   UNL     1     -15.123   6.586 -34.999  0.00  0.00    +0.116 A 
ATOM      7  N   UNL     1     -13.825   7.017 -35.171  0.00  0.00    -0.223 NA
ATOM      8  C   UNL     1     -13.446   8.298 -34.813  0.00  0.00    +0.220 A 
ATOM      9  N   UNL     1     -12.145   8.750 -34.969  0.00  0.00    -0.283 N 
ATOM     36  H   UNL     1     -11.907   9.705 -34.700  0.00  0.00    +0.155 HD
ATOM     37  N   UNL     1     -14.354   9.147 -34.287  0.00  0.00    -0.214 NA
BRANCH   4   3
ATOM      1  C   UNL     1     -16.997  11.928 -32.194  0.00  0.00    +0.020 A 
ATOM      2  C   UNL     1     -16.079  10.961 -32.750  0.00  0.00    +0.013 A 
ATOM      3  C   UNL     1     -16.571   9.807 -33.491  0.00  0.00    +0.019 A 
ATOM     38  C   UNL     1     -18.010   9.661 -33.655  0.00  0.00    +0.120 A 
ATOM     39  N   UNL     1     -18.870  10.608 -33.108  0.00  0.00    -0.263 NA
ATOM     40  C   UNL     1     -18.407  11.721 -32.391  0.00  0.00    +0.111 A 
ENDBRANCH   4   3
ENDBRANCH  10   9
BRANCH  12  13
ATOM     13  N   UNL     1      -8.323   5.656 -34.215  0.00  0.00    -0.281 N 
ATOM     14  C   UNL     1      -8.145   4.286 -34.105  0.00  0.00    +0.248 C 
ATOM     30  O   UNL     1      -8.899   3.451 -34.582  0.00  0.00    -0.270 OA
ATOM     31  H   UNL     1      -7.738   6.234 -33.612  0.00  0.00    +0.155 HD
BRANCH  14  15
ATOM     15  C   UNL     1      -6.968   3.770 -33.342  0.00  0.00    +0.037 A 
ATOM     16  C   UNL     1      -6.769   4.110 -31.931  0.00  0.00    +0.013 A 
ATOM     17  C   UNL     1      -5.616   3.613 -31.223  0.00  0.00    +0.005 A 
ATOM     18  C   UNL     1      -4.653   2.769 -31.926  0.00  0.00    -0.033 A 
ATOM     28  C   UNL     1      -4.878   2.443 -33.324  0.00  0.00    +0.005 A 
ATOM     29  C   UNL     1      -6.007   2.929 -34.022  0.00  0.00    +0.013 A 
BRANCH  18  19
ATOM     19  C   UNL     1      -3.384   2.211 -31.255  0.00  0.00    +0.119 C 
BRANCH  19  20
ATOM     20  N   UNL     1      -3.418   0.789 -30.802  0.00  0.00    -0.302 NA
ATOM     21  C   UNL     1      -2.998   0.642 -29.337  0.00  0.00    +0.066 C 
ATOM     22  C   UNL     1      -3.061  -0.849 -28.873  0.00  0.00    -0.064 C 
ATOM     23  N   UNL     1      -2.171  -1.701 -29.779  0.00  0.00    +0.379 N 
ATOM     24  C   UNL     1      -2.183  -3.094 -29.310  0.00  0.00    -0.096 C 
ATOM     25  H   UNL     1      -1.127  -1.320 -29.682  0.00  0.00    -0.082 HD
ATOM     26  C   UNL     1      -2.580  -1.559 -31.238  0.00  0.00    -0.064 C 
ATOM     27  C   UNL     1      -2.542  -0.070 -31.681  0.00  0.00    +0.066 C 
ENDBRANCH  19  20
ENDBRANCH  18  19
ENDBRANCH  14  15
ENDBRANCH  12  13
TORSDOF 6
ENDMDL
