MODEL 1
REMARK VINA RESULT:      -9.9      0.000      0.000
REMARK  Name = C:\Users\Docking\Desktop\test protocol\1iep_ligandH.pdb
REMARK  8 active torsions:
REMARK  status: ('A' for Active; 'I' for Inactive)
REMARK    1  A    between atoms: _5  and  _11
REMARK    2  A    between atoms: _19  and  _21
REMARK    3  A    between atoms: _22  and  _66
REMARK    4  A    between atoms: _27  and  _30
REMARK    5  A    between atoms: _32  and  _33
REMARK    6  A    between atoms: _38  and  _43
REMARK    7  A    between atoms: _43  and  _46
REMARK    8  A    between atoms: _53  and  _55
REMARK                            x       y       z     vdW  Elec       q    Type
REMARK                         _______ _______ _______ _____ _____    ______ ____
ROOT
ATOM     10  C   UNL     1      16.061   5.826 -12.683  0.00  0.00    +0.038 A 
ATOM     11  C   UNL     1      16.428   4.470 -12.877  0.00  0.00    +0.047 A 
ATOM     12  C   UNL     1      17.612   3.913 -12.242  0.00  0.00    +0.035 A 
ATOM     32  C   UNL     1      18.399   4.765 -11.413  0.00  0.00    +0.024 A 
ATOM     33  C   UNL     1      18.040   6.146 -11.205  0.00  0.00    +0.007 A 
ATOM     34  C   UNL     1      16.875   6.702 -11.831  0.00  0.00    -0.029 A 
ATOM     35  C   UNL     1      16.543   8.191 -11.578  0.00  0.00    +0.045 C 
ENDROOT
BRANCH  10   9
ATOM      4  C   UNL     1      11.415   7.031 -12.684  0.00  0.00    +0.077 A 
ATOM      5  C   UNL     1      11.252   6.640 -11.313  0.00  0.00    +0.048 A 
ATOM      6  C   UNL     1      12.387   6.128 -10.645  0.00  0.00    +0.116 A 
ATOM      7  N   UNL     1      13.590   6.019 -11.309  0.00  0.00    -0.223 NA
ATOM      8  C   UNL     1      13.712   6.403 -12.632  0.00  0.00    +0.220 A 
ATOM      9  N   UNL     1      14.914   6.309 -13.317  0.00  0.00    -0.283 N 
ATOM     36  H   UNL     1      14.961   6.596 -14.294  0.00  0.00    +0.155 HD
ATOM     37  N   UNL     1      12.643   6.894 -13.292  0.00  0.00    -0.214 NA
BRANCH   4   3
ATOM      1  C   UNL     1       8.665   7.467 -15.431  0.00  0.00    +0.020 A 
ATOM      2  C   UNL     1       9.731   6.879 -14.654  0.00  0.00    +0.013 A 
ATOM      3  C   UNL     1      10.310   7.593 -13.523  0.00  0.00    +0.019 A 
ATOM     38  C   UNL     1       9.782   8.911 -13.202  0.00  0.00    +0.120 A 
ATOM     39  N   UNL     1       8.755   9.452 -13.970  0.00  0.00    -0.263 NA
ATOM     40  C   UNL     1       8.192   8.775 -15.061  0.00  0.00    +0.111 A 
ENDBRANCH   4   3
ENDBRANCH  10   9
BRANCH  12  13
ATOM     13  N   UNL     1      18.039   2.546 -12.409  0.00  0.00    -0.281 N 
ATOM     14  C   UNL     1      19.219   2.084 -12.969  0.00  0.00    +0.248 C 
ATOM     30  O   UNL     1      19.997   2.776 -13.608  0.00  0.00    -0.270 OA
ATOM     31  H   UNL     1      17.393   1.831 -12.073  0.00  0.00    +0.155 HD
BRANCH  14  15
ATOM     15  C   UNL     1      19.580   0.643 -12.807  0.00  0.00    +0.037 A 
ATOM     16  C   UNL     1      19.594  -0.270 -13.952  0.00  0.00    +0.013 A 
ATOM     17  C   UNL     1      19.930  -1.660 -13.765  0.00  0.00    +0.005 A 
ATOM     18  C   UNL     1      20.255  -2.144 -12.426  0.00  0.00    -0.033 A 
ATOM     28  C   UNL     1      20.239  -1.215 -11.308  0.00  0.00    +0.005 A 
ATOM     29  C   UNL     1      19.910   0.147 -11.487  0.00  0.00    +0.013 A 
BRANCH  18  19
ATOM     19  C   UNL     1      20.604  -3.615 -12.130  0.00  0.00    +0.119 C 
BRANCH  19  20
ATOM     20  N   UNL     1      21.149  -4.428 -13.258  0.00  0.00    -0.302 NA
ATOM     21  C   UNL     1      20.776  -5.908 -13.132  0.00  0.00    +0.066 C 
ATOM     22  C   UNL     1      21.334  -6.740 -14.331  0.00  0.00    -0.064 C 
ATOM     23  N   UNL     1      22.852  -6.569 -14.404  0.00  0.00    +0.379 N 
ATOM     24  C   UNL     1      23.388  -7.396 -15.495  0.00  0.00    -0.096 C 
ATOM     25  H   UNL     1      23.282  -6.950 -13.449  0.00  0.00    -0.082 HD
ATOM     26  C   UNL     1      23.232  -5.100 -14.527  0.00  0.00    -0.064 C 
ATOM     27  C   UNL     1      22.648  -4.277 -13.346  0.00  0.00    +0.066 C 
ENDBRANCH  19  20
ENDBRANCH  18  19
ENDBRANCH  14  15
ENDBRANCH  12  13
TORSDOF 6
ENDMDL
MODEL 2
REMARK VINA RESULT:      -9.7     38.372     42.554
REMARK  Name = C:\Users\Docking\Desktop\test protocol\1iep_ligandH.pdb
REMARK  8 active torsions:
REMARK  status: ('A' for Active; 'I' for Inactive)
REMARK    1  A    between atoms: _5  and  _11
REMARK    2  A    between atoms: _19  and  _21
REMARK    3  A    between atoms: _22  and  _66
REMARK    4  A    between atoms: _27  and  _30
REMARK    5  A    between atoms: _32  and  _33
REMARK    6  A    between atoms: _38  and  _43
REMARK    7  A    between atoms: _43  and  _46
REMARK    8  A    between atoms: _53  and  _55
REMARK                            x       y       z     vdW  Elec       q    Type
REMARK                         _______ _______ _______ _____ _____    ______ ____
ROOT
ATOM     10  C   UNL     1     -15.337 -13.499   7.524  0.00  0.00    +0.038 A 
ATOM     11  C   UNL     1     -16.311 -12.789   6.776  0.00  0.00    +0.047 A 
ATOM     12  C   UNL     1     -17.657 -13.313   6.605  0.00  0.00    +0.035 A 
ATOM     32  C   UNL     1     -17.978 -14.561   7.212  0.00  0.00    +0.024 A 
ATOM     33  C   UNL     1     -17.001 -15.297   7.975  0.00  0.00    +0.007 A 
ATOM     34  C   UNL     1     -15.670 -14.786   8.145  0.00  0.00    -0.029 A 
ATOM     35  C   UNL     1     -14.661 -15.621   8.969  0.00  0.00    +0.045 C 
ENDROOT
BRANCH  10   9
ATOM      4  C   UNL     1     -12.157 -10.664   9.736  0.00  0.00    +0.077 A 
ATOM      5  C   UNL     1     -13.130 -10.219  10.692  0.00  0.00    +0.048 A 
ATOM      6  C   UNL     1     -14.439 -10.738  10.575  0.00  0.00    +0.116 A 
ATOM      7  N   UNL     1     -14.741 -11.635   9.574  0.00  0.00    -0.223 NA
ATOM      8  C   UNL     1     -13.780 -12.042   8.667  0.00  0.00    +0.220 A 
ATOM      9  N   UNL     1     -14.060 -12.949   7.657  0.00  0.00    -0.283 N 
ATOM     36  H   UNL     1     -13.325 -13.219   7.003  0.00  0.00    +0.155 HD
ATOM     37  N   UNL     1     -12.523 -11.560   8.756  0.00  0.00    -0.214 NA
BRANCH   4   3
ATOM      1  C   UNL     1      -8.458  -9.962  10.795  0.00  0.00    +0.020 A 
ATOM      2  C   UNL     1      -9.826 -10.422  10.852  0.00  0.00    +0.013 A 
ATOM      3  C   UNL     1     -10.731 -10.208   9.730  0.00  0.00    +0.019 A 
ATOM     38  C   UNL     1     -10.215  -9.522   8.555  0.00  0.00    +0.120 A 
ATOM     39  N   UNL     1      -8.893  -9.090   8.529  0.00  0.00    -0.263 NA
ATOM     40  C   UNL     1      -8.014  -9.288   9.604  0.00  0.00    +0.111 A 
ENDBRANCH   4   3
ENDBRANCH  10   9
BRANCH  12  13
ATOM     13  N   UNL     1     -18.685 -12.641   5.849  0.00  0.00    -0.281 N 
ATOM     14  C   UNL     1     -19.401 -11.509   6.204  0.00  0.00    +0.248 C 
ATOM     30  O   UNL     1     -19.415 -11.024   7.326  0.00  0.00    -0.270 OA
ATOM     31  H   UNL     1     -18.912 -13.049   4.942  0.00  0.00    +0.155 HD
BRANCH  14  15
ATOM     15  C   UNL     1     -20.232 -10.826   5.167  0.00  0.00    +0.037 A 
ATOM     16  C   UNL     1     -19.620  -9.986   4.134  0.00  0.00    +0.013 A 
ATOM     17  C   UNL     1     -20.447  -9.325   3.156  0.00  0.00    +0.005 A 
ATOM     18  C   UNL     1     -21.896  -9.502   3.206  0.00  0.00    -0.033 A 
ATOM     28  C   UNL     1     -22.476 -10.345   4.238  0.00  0.00    +0.005 A 
ATOM     29  C   UNL     1     -21.670 -10.994   5.199  0.00  0.00    +0.013 A 
BRANCH  18  19
ATOM     19  C   UNL     1     -22.857  -8.817   2.215  0.00  0.00    +0.119 C 
BRANCH  19  20
ATOM     20  N   UNL     1     -22.851  -9.310   0.806  0.00  0.00    -0.302 NA
ATOM     21  C   UNL     1     -22.566 -10.812   0.723  0.00  0.00    +0.066 C 
ATOM     22  C   UNL     1     -22.585 -11.315  -0.757  0.00  0.00    -0.064 C 
ATOM     23  N   UNL     1     -21.563 -10.524  -1.575  0.00  0.00    +0.379 N 
ATOM     24  C   UNL     1     -21.538 -11.034  -2.954  0.00  0.00    -0.096 C 
ATOM     25  H   UNL     1     -20.558 -10.707  -1.128  0.00  0.00    -0.082 HD
ATOM     26  C   UNL     1     -21.838  -9.029  -1.496  0.00  0.00    -0.064 C 
ATOM     27  C   UNL     1     -21.845  -8.546  -0.019  0.00  0.00    +0.066 C 
ENDBRANCH  19  20
ENDBRANCH  18  19
ENDBRANCH  14  15
ENDBRANCH  12  13
TORSDOF 6
ENDMDL
MODEL 3
REMARK VINA RESULT:      -9.6      2.110      3.553
REMARK  Name = C:\Users\Docking\Desktop\test protocol\1iep_ligandH.pdb
REMARK  8 active torsions:
REMARK  status: ('A' for Active; 'I' for Inactive)
REMARK    1  A    between atoms: _5  and  _11
REMARK    2  A    between atoms: _19  and  _21
REMARK    3  A    between atoms: _22  and  _66
REMARK    4  A    between atoms: _27  and  _30
REMARK    5  A    between atoms: _32  and  _33
REMARK    6  A    between atoms: _38  and  _43
REMARK    7  A    between atoms: _43  and  _46
REMARK    8  A    between atoms: _53  and  _55
REMARK                            x       y       z     vdW  Elec       q    Type
REMARK                         _______ _______ _______ _____ _____    ______ ____
ROOT
ATOM     10  C   UNL     1      13.899   8.219 -12.427  0.00  0.00    +0.038 A 
ATOM     11  C   UNL     1      14.523   7.057 -12.948  0.00  0.00    +0.047 A 
ATOM     12  C   UNL     1      15.448   6.274 -12.142  0.00  0.00    +0.035 A 
ATOM     32  C   UNL     1      15.713   6.703 -10.809  0.00  0.00    +0.024 A 
ATOM     33  C   UNL     1      15.088   7.883 -10.264  0.00  0.00    +0.007 A 
ATOM     34  C   UNL     1      14.177   8.660 -11.055  0.00  0.00    -0.029 A 
ATOM     35  C   UNL     1      13.542   9.920 -10.421  0.00  0.00    +0.045 C 
ENDROOT
BRANCH  10   9
ATOM      4  C   UNL     1       9.476   9.387 -13.880  0.00  0.00    +0.077 A 
ATOM      5  C   UNL     1       8.867   8.479 -12.952  0.00  0.00    +0.048 A 
ATOM      6  C   UNL     1       9.728   7.725 -12.123  0.00  0.00    +0.116 A 
ATOM      7  N   UNL     1      11.094   7.876 -12.223  0.00  0.00    -0.223 NA
ATOM      8  C   UNL     1      11.649   8.759 -13.131  0.00  0.00    +0.220 A 
ATOM      9  N   UNL     1      13.020   8.933 -13.244  0.00  0.00    -0.283 N 
ATOM     36  H   UNL     1      13.390   9.589 -13.932  0.00  0.00    +0.155 HD
ATOM     37  N   UNL     1      10.849   9.490 -13.935  0.00  0.00    -0.214 NA
BRANCH   4   3
ATOM      1  C   UNL     1       8.500  12.192 -16.426  0.00  0.00    +0.020 A 
ATOM      2  C   UNL     1       9.293  11.385 -15.528  0.00  0.00    +0.013 A 
ATOM      3  C   UNL     1       8.701  10.256 -14.821  0.00  0.00    +0.019 A 
ATOM     38  C   UNL     1       7.292   9.968 -15.048  0.00  0.00    +0.120 A 
ATOM     39  N   UNL     1       6.553  10.763 -15.918  0.00  0.00    -0.263 NA
ATOM     40  C   UNL     1       7.112  11.853 -16.602  0.00  0.00    +0.111 A 
ENDBRANCH   4   3
ENDBRANCH  10   9
BRANCH  12  13
ATOM     13  N   UNL     1      16.117   5.089 -12.620  0.00  0.00    -0.281 N 
ATOM     14  C   UNL     1      17.394   4.650 -12.312  0.00  0.00    +0.248 C 
ATOM     30  O   UNL     1      18.238   5.325 -11.741  0.00  0.00    -0.270 OA
ATOM     31  H   UNL     1      15.584   4.504 -13.263  0.00  0.00    +0.155 HD
BRANCH  14  15
ATOM     15  C   UNL     1      17.796   3.266 -12.706  0.00  0.00    +0.037 A 
ATOM     16  C   UNL     1      19.187   2.943 -13.035  0.00  0.00    +0.013 A 
ATOM     17  C   UNL     1      19.545   1.604 -13.429  0.00  0.00    +0.005 A 
ATOM     18  C   UNL     1      18.509   0.576 -13.495  0.00  0.00    -0.033 A 
ATOM     28  C   UNL     1      17.138   0.922 -13.159  0.00  0.00    +0.005 A 
ATOM     29  C   UNL     1      16.783   2.234 -12.773  0.00  0.00    +0.013 A 
BRANCH  18  19
ATOM     19  C   UNL     1      18.797  -0.875 -13.926  0.00  0.00    +0.119 C 
BRANCH  19  20
ATOM     20  N   UNL     1      20.149  -1.426 -13.614  0.00  0.00    -0.302 NA
ATOM     21  C   UNL     1      20.803  -2.074 -14.838  0.00  0.00    +0.066 C 
ATOM     22  C   UNL     1      22.226  -2.624 -14.499  0.00  0.00    -0.064 C 
ATOM     23  N   UNL     1      22.121  -3.626 -13.347  0.00  0.00    +0.379 N 
ATOM     24  C   UNL     1      23.449  -4.189 -13.064  0.00  0.00    -0.096 C 
ATOM     25  H   UNL     1      21.464  -4.461 -13.684  0.00  0.00    -0.082 HD
ATOM     26  C   UNL     1      21.470  -2.990 -12.127  0.00  0.00    -0.064 C 
ATOM     27  C   UNL     1      20.068  -2.420 -12.482  0.00  0.00    +0.066 C 
ENDBRANCH  19  20
ENDBRANCH  18  19
ENDBRANCH  14  15
ENDBRANCH  12  13
TORSDOF 6
ENDMDL
MODEL 4
REMARK VINA RESULT:      -9.4     21.268     28.309
REMARK  Name = C:\Users\Docking\Desktop\test protocol\1iep_ligandH.pdb
REMARK  8 active torsions:
REMARK  status: ('A' for Active; 'I' for Inactive)
REMARK    1  A    between atoms: _5  and  _11
REMARK    2  A    between atoms: _19  and  _21
REMARK    3  A    between atoms: _22  and  _66
REMARK    4  A    between atoms: _27  and  _30
REMARK    5  A    between atoms: _32  and  _33
REMARK    6  A    between atoms: _38  and  _43
REMARK    7  A    between atoms: _43  and  _46
REMARK    8  A    between atoms: _53  and  _55
REMARK                            x       y       z     vdW  Elec       q    Type
REMARK                         _______ _______ _______ _____ _____    ______ ____
ROOT
ATOM     10  C   UNL     1      -5.607  -0.513 -12.579  0.00  0.00    +0.038 A 
ATOM     11  C   UNL     1      -7.017  -0.657 -12.544  0.00  0.00    +0.047 A 
ATOM     12  C   UNL     1      -7.855   0.305 -11.844  0.00  0.00    +0.035 A 
ATOM     32  C   UNL     1      -7.223   1.404 -11.194  0.00  0.00    +0.024 A 
ATOM     33  C   UNL     1      -5.790   1.566 -11.219  0.00  0.00    +0.007 A 
ATOM     34  C   UNL     1      -4.959   0.619 -11.905  0.00  0.00    -0.029 A 
ATOM     35  C   UNL     1      -3.428   0.839 -11.894  0.00  0.00    +0.045 C 
ENDROOT
BRANCH  10   9
ATOM      4  C   UNL     1      -3.292  -2.066 -16.487  0.00  0.00    +0.077 A 
ATOM      5  C   UNL     1      -3.641  -0.891 -17.233  0.00  0.00    +0.048 A 
ATOM      6  C   UNL     1      -4.423   0.086 -16.577  0.00  0.00    +0.116 A 
ATOM      7  N   UNL     1      -4.821  -0.108 -15.272  0.00  0.00    -0.223 NA
ATOM      8  C   UNL     1      -4.469  -1.253 -14.581  0.00  0.00    +0.220 A 
ATOM      9  N   UNL     1      -4.851  -1.466 -13.266  0.00  0.00    -0.283 N 
ATOM     36  H   UNL     1      -4.577  -2.327 -12.794  0.00  0.00    +0.155 HD
ATOM     37  N   UNL     1      -3.724  -2.202 -15.186  0.00  0.00    -0.214 NA
BRANCH   4   3
ATOM      1  C   UNL     1      -0.317  -4.488 -17.251  0.00  0.00    +0.020 A 
ATOM      2  C   UNL     1      -1.069  -3.390 -16.688  0.00  0.00    +0.013 A 
ATOM      3  C   UNL     1      -2.468  -3.186 -17.041  0.00  0.00    +0.019 A 
ATOM     38  C   UNL     1      -3.082  -4.119 -17.973  0.00  0.00    +0.120 A 
ATOM     39  N   UNL     1      -2.333  -5.166 -18.501  0.00  0.00    -0.263 NA
ATOM     40  C   UNL     1      -0.985  -5.371 -18.169  0.00  0.00    +0.111 A 
ENDBRANCH   4   3
ENDBRANCH  10   9
BRANCH  12  13
ATOM     13  N   UNL     1      -9.291   0.205 -11.768  0.00  0.00    -0.281 N 
ATOM     14  C   UNL     1     -10.234   0.888 -12.519  0.00  0.00    +0.248 C 
ATOM     30  O   UNL     1      -9.986   1.851 -13.229  0.00  0.00    -0.270 OA
ATOM     31  H   UNL     1      -9.658  -0.448 -11.075  0.00  0.00    +0.155 HD
BRANCH  14  15
ATOM     15  C   UNL     1     -11.660   0.446 -12.463  0.00  0.00    +0.037 A 
ATOM     16  C   UNL     1     -12.363  -0.009 -13.665  0.00  0.00    +0.013 A 
ATOM     17  C   UNL     1     -13.744  -0.414 -13.586  0.00  0.00    +0.005 A 
ATOM     18  C   UNL     1     -14.432  -0.366 -12.298  0.00  0.00    -0.033 A 
ATOM     28  C   UNL     1     -13.709   0.084 -11.120  0.00  0.00    +0.005 A 
ATOM     29  C   UNL     1     -12.356   0.483 -11.194  0.00  0.00    +0.013 A 
BRANCH  18  19
ATOM     19  C   UNL     1     -15.911  -0.760 -12.125  0.00  0.00    +0.119 C 
BRANCH  19  20
ATOM     20  N   UNL     1     -16.240  -2.216 -12.163  0.00  0.00    -0.302 NA
ATOM     21  C   UNL     1     -17.644  -2.472 -12.719  0.00  0.00    +0.066 C 
ATOM     22  C   UNL     1     -17.964  -4.002 -12.773  0.00  0.00    -0.064 C 
ATOM     23  N   UNL     1     -17.817  -4.601 -11.374  0.00  0.00    +0.379 N 
ATOM     24  C   UNL     1     -18.173  -6.027 -11.411  0.00  0.00    -0.096 C 
ATOM     25  H   UNL     1     -18.548  -4.087 -10.708  0.00  0.00    -0.082 HD
ATOM     26  C   UNL     1     -16.425  -4.348 -10.813  0.00  0.00    -0.064 C 
ATOM     27  C   UNL     1     -16.106  -2.827 -10.791  0.00  0.00    +0.066 C 
ENDBRANCH  19  20
ENDBRANCH  18  19
ENDBRANCH  14  15
ENDBRANCH  12  13
TORSDOF 6
ENDMDL
MODEL 5
REMARK VINA RESULT:      -9.2      2.061      4.022
REMARK  Name = C:\Users\Docking\Desktop\test protocol\1iep_ligandH.pdb
REMARK  8 active torsions:
REMARK  status: ('A' for Active; 'I' for Inactive)
REMARK    1  A    between atoms: _5  and  _11
REMARK    2  A    between atoms: _19  and  _21
REMARK    3  A    between atoms: _22  and  _66
REMARK    4  A    between atoms: _27  and  _30
REMARK    5  A    between atoms: _32  and  _33
REMARK    6  A    between atoms: _38  and  _43
REMARK    7  A    between atoms: _43  and  _46
REMARK    8  A    between atoms: _53  and  _55
REMARK                            x       y       z     vdW  Elec       q    Type
REMARK                         _______ _______ _______ _____ _____    ______ ____
ROOT
ATOM     10  C   UNL     1      12.618   7.643 -12.476  0.00  0.00    +0.038 A 
ATOM     11  C   UNL     1      13.317   6.409 -12.497  0.00  0.00    +0.047 A 
ATOM     12  C   UNL     1      14.702   6.321 -12.061  0.00  0.00    +0.035 A 
ATOM     32  C   UNL     1      15.343   7.510 -11.605  0.00  0.00    +0.024 A 
ATOM     33  C   UNL     1      14.648   8.773 -11.577  0.00  0.00    +0.007 A 
ATOM     34  C   UNL     1      13.283   8.866 -12.009  0.00  0.00    -0.029 A 
ATOM     35  C   UNL     1      12.589  10.247 -11.964  0.00  0.00    +0.045 C 
ENDROOT
BRANCH  10   9
ATOM      4  C   UNL     1       9.289   8.049 -15.910  0.00  0.00    +0.077 A 
ATOM      5  C   UNL     1      10.279   8.252 -16.928  0.00  0.00    +0.048 A 
ATOM      6  C   UNL     1      11.634   8.251 -16.525  0.00  0.00    +0.116 A 
ATOM      7  N   UNL     1      11.962   8.062 -15.200  0.00  0.00    -0.223 NA
ATOM      8  C   UNL     1      10.982   7.871 -14.243  0.00  0.00    +0.220 A 
ATOM      9  N   UNL     1      11.290   7.670 -12.907  0.00  0.00    -0.283 N 
ATOM     36  H   UNL     1      10.538   7.541 -12.230  0.00  0.00    +0.155 HD
ATOM     37  N   UNL     1       9.681   7.868 -14.602  0.00  0.00    -0.214 NA
BRANCH   4   3
ATOM      1  C   UNL     1       5.692   6.847 -16.869  0.00  0.00    +0.020 A 
ATOM      2  C   UNL     1       7.116   6.822 -16.624  0.00  0.00    +0.013 A 
ATOM      3  C   UNL     1       7.817   8.020 -16.179  0.00  0.00    +0.019 A 
ATOM     38  C   UNL     1       7.041   9.237 -15.989  0.00  0.00    +0.120 A 
ATOM     39  N   UNL     1       5.672   9.232 -16.234  0.00  0.00    -0.263 NA
ATOM     40  C   UNL     1       4.987   8.085 -16.664  0.00  0.00    +0.111 A 
ENDBRANCH   4   3
ENDBRANCH  10   9
BRANCH  12  13
ATOM     13  N   UNL     1      15.465   5.098 -12.068  0.00  0.00    -0.281 N 
ATOM     14  C   UNL     1      16.468   4.725 -12.948  0.00  0.00    +0.248 C 
ATOM     30  O   UNL     1      16.715   5.300 -13.997  0.00  0.00    -0.270 OA
ATOM     31  H   UNL     1      15.238   4.425 -11.335  0.00  0.00    +0.155 HD
BRANCH  14  15
ATOM     15  C   UNL     1      17.308   3.533 -12.621  0.00  0.00    +0.037 A 
ATOM     16  C   UNL     1      16.797   2.171 -12.801  0.00  0.00    +0.013 A 
ATOM     17  C   UNL     1      17.623   1.039 -12.462  0.00  0.00    +0.005 A 
ATOM     18  C   UNL     1      18.969   1.264 -11.942  0.00  0.00    -0.033 A 
ATOM     28  C   UNL     1      19.452   2.625 -11.778  0.00  0.00    +0.005 A 
ATOM     29  C   UNL     1      18.646   3.737 -12.108  0.00  0.00    +0.013 A 
BRANCH  18  19
ATOM     19  C   UNL     1      19.911   0.116 -11.535  0.00  0.00    +0.119 C 
BRANCH  19  20
ATOM     20  N   UNL     1      19.798  -1.164 -12.296  0.00  0.00    -0.302 NA
ATOM     21  C   UNL     1      20.566  -2.304 -11.621  0.00  0.00    +0.066 C 
ATOM     22  C   UNL     1      20.419  -3.640 -12.419  0.00  0.00    -0.064 C 
ATOM     23  N   UNL     1      20.909  -3.432 -13.853  0.00  0.00    +0.379 N 
ATOM     24  C   UNL     1      20.826  -4.701 -14.590  0.00  0.00    -0.096 C 
ATOM     25  H   UNL     1      21.983  -3.139 -13.804  0.00  0.00    -0.082 HD
ATOM     26  C   UNL     1      20.152  -2.298 -14.531  0.00  0.00    -0.064 C 
ATOM     27  C   UNL     1      20.281  -0.982 -13.714  0.00  0.00    +0.066 C 
ENDBRANCH  19  20
ENDBRANCH  18  19
ENDBRANCH  14  15
ENDBRANCH  12  13
TORSDOF 6
ENDMDL
