MODEL 1
REMARK VINA RESULT:      -8.5      0.000      0.000
REMARK  Name = C:\Users\Docking\Desktop\test protocol\1iep_ligandH.pdb
REMARK  8 active torsions:
REMARK  status: ('A' for Active; 'I' for Inactive)
REMARK    1  A    between atoms: _5  and  _11
REMARK    2  A    between atoms: _19  and  _21
REMARK    3  A    between atoms: _22  and  _66
REMARK    4  A    between atoms: _27  and  _30
REMARK    5  A    between atoms: _32  and  _33
REMARK    6  A    between atoms: _38  and  _43
REMARK    7  A    between atoms: _43  and  _46
REMARK    8  A    between atoms: _53  and  _55
REMARK                            x       y       z     vdW  Elec       q    Type
REMARK                         _______ _______ _______ _____ _____    ______ ____
ROOT
ATOM     10  C   UNL     1     -13.752 -16.272  31.312  0.00  0.00    +0.038 A 
ATOM     11  C   UNL     1     -13.026 -15.156  31.801  0.00  0.00    +0.047 A 
ATOM     12  C   UNL     1     -13.082 -14.779  33.205  0.00  0.00    +0.035 A 
ATOM     32  C   UNL     1     -13.886 -15.562  34.083  0.00  0.00    +0.024 A 
ATOM     33  C   UNL     1     -14.632 -16.699  33.602  0.00  0.00    +0.007 A 
ATOM     34  C   UNL     1     -14.582 -17.074  32.218  0.00  0.00    -0.029 A 
ATOM     35  C   UNL     1     -15.407 -18.298  31.757  0.00  0.00    +0.045 C 
ENDROOT
BRANCH  10   9
ATOM      4  C   UNL     1     -11.710 -18.579  27.631  0.00  0.00    +0.077 A 
ATOM      5  C   UNL     1     -10.724 -19.183  28.480  0.00  0.00    +0.048 A 
ATOM      6  C   UNL     1     -10.772 -18.868  29.857  0.00  0.00    +0.116 A 
ATOM      7  N   UNL     1     -11.739 -18.012  30.338  0.00  0.00    -0.223 NA
ATOM      8  C   UNL     1     -12.675 -17.446  29.491  0.00  0.00    +0.220 A 
ATOM      9  N   UNL     1     -13.662 -16.589  29.954  0.00  0.00    -0.283 N 
ATOM     36  H   UNL     1     -14.329 -16.186  29.297  0.00  0.00    +0.155 HD
ATOM     37  N   UNL     1     -12.649 -17.730  28.172  0.00  0.00    -0.214 NA
BRANCH   4   3
ATOM      1  C   UNL     1     -12.549 -18.198  23.830  0.00  0.00    +0.020 A 
ATOM      2  C   UNL     1     -12.500 -17.924  25.247  0.00  0.00    +0.013 A 
ATOM      3  C   UNL     1     -11.792 -18.817  26.155  0.00  0.00    +0.019 A 
ATOM     38  C   UNL     1     -11.137 -19.988  25.592  0.00  0.00    +0.120 A 
ATOM     39  N   UNL     1     -11.202 -20.227  24.223  0.00  0.00    -0.263 NA
ATOM     40  C   UNL     1     -11.882 -19.376  23.340  0.00  0.00    +0.111 A 
ENDBRANCH   4   3
ENDBRANCH  10   9
BRANCH  12  13
ATOM     13  N   UNL     1     -12.373 -13.652  33.758  0.00  0.00    -0.281 N 
ATOM     14  C   UNL     1     -12.901 -12.554  34.417  0.00  0.00    +0.248 C 
ATOM     30  O   UNL     1     -14.089 -12.269  34.445  0.00  0.00    -0.270 OA
ATOM     31  H   UNL     1     -11.359 -13.665  33.650  0.00  0.00    +0.155 HD
BRANCH  14  15
ATOM     15  C   UNL     1     -11.973 -11.631  35.139  0.00  0.00    +0.037 A 
ATOM     16  C   UNL     1     -12.188 -10.182  35.136  0.00  0.00    +0.013 A 
ATOM     17  C   UNL     1     -11.269  -9.312  35.827  0.00  0.00    +0.005 A 
ATOM     18  C   UNL     1     -10.125  -9.891  36.527  0.00  0.00    -0.033 A 
ATOM     28  C   UNL     1      -9.938 -11.333  36.519  0.00  0.00    +0.005 A 
ATOM     29  C   UNL     1     -10.837 -12.188  35.842  0.00  0.00    +0.013 A 
BRANCH  18  19
ATOM     19  C   UNL     1      -9.081  -9.038  37.273  0.00  0.00    +0.119 C 
BRANCH  19  20
ATOM     20  N   UNL     1      -7.743  -9.654  37.517  0.00  0.00    -0.302 NA
ATOM     21  C   UNL     1      -7.322  -9.548  38.986  0.00  0.00    +0.066 C 
ATOM     22  C   UNL     1      -5.930 -10.218  39.228  0.00  0.00    -0.064 C 
ATOM     23  N   UNL     1      -4.888  -9.566  38.317  0.00  0.00    +0.379 N 
ATOM     24  C   UNL     1      -3.567 -10.154  38.584  0.00  0.00    -0.096 C 
ATOM     25  H   UNL     1      -4.837  -8.484  38.581  0.00  0.00    -0.082 HD
ATOM     26  C   UNL     1      -5.301  -9.665  36.855  0.00  0.00    -0.064 C 
ATOM     27  C   UNL     1      -6.698  -9.023  36.631  0.00  0.00    +0.066 C 
ENDBRANCH  19  20
ENDBRANCH  18  19
ENDBRANCH  14  15
ENDBRANCH  12  13
TORSDOF 6
ENDMDL
MODEL 2
REMARK VINA RESULT:      -8.4      4.103      8.159
REMARK  Name = C:\Users\Docking\Desktop\test protocol\1iep_ligandH.pdb
REMARK  8 active torsions:
REMARK  status: ('A' for Active; 'I' for Inactive)
REMARK    1  A    between atoms: _5  and  _11
REMARK    2  A    between atoms: _19  and  _21
REMARK    3  A    between atoms: _22  and  _66
REMARK    4  A    between atoms: _27  and  _30
REMARK    5  A    between atoms: _32  and  _33
REMARK    6  A    between atoms: _38  and  _43
REMARK    7  A    between atoms: _43  and  _46
REMARK    8  A    between atoms: _53  and  _55
REMARK                            x       y       z     vdW  Elec       q    Type
REMARK                         _______ _______ _______ _____ _____    ______ ____
ROOT
ATOM     10  C   UNL     1     -10.850 -20.294  25.095  0.00  0.00    +0.038 A 
ATOM     11  C   UNL     1     -11.043 -19.382  26.164  0.00  0.00    +0.047 A 
ATOM     12  C   UNL     1     -11.838 -18.176  25.991  0.00  0.00    +0.035 A 
ATOM     32  C   UNL     1     -12.425 -17.932  24.715  0.00  0.00    +0.024 A 
ATOM     33  C   UNL     1     -12.238 -18.848  23.617  0.00  0.00    +0.007 A 
ATOM     34  C   UNL     1     -11.453 -20.037  23.782  0.00  0.00    -0.029 A 
ATOM     35  C   UNL     1     -11.281 -20.980  22.568  0.00  0.00    +0.045 C 
ENDROOT
BRANCH  10   9
ATOM      4  C   UNL     1      -6.622 -22.520  25.551  0.00  0.00    +0.077 A 
ATOM      5  C   UNL     1      -5.891 -21.311  25.299  0.00  0.00    +0.048 A 
ATOM      6  C   UNL     1      -6.641 -20.140  25.049  0.00  0.00    +0.116 A 
ATOM      7  N   UNL     1      -8.018 -20.186  25.054  0.00  0.00    -0.223 NA
ATOM      8  C   UNL     1      -8.692 -21.368  25.300  0.00  0.00    +0.220 A 
ATOM      9  N   UNL     1     -10.077 -21.435  25.318  0.00  0.00    -0.283 N 
ATOM     36  H   UNL     1     -10.536 -22.328  25.495  0.00  0.00    +0.155 HD
ATOM     37  N   UNL     1      -7.999 -22.501  25.540  0.00  0.00    -0.214 NA
BRANCH   4   3
ATOM      1  C   UNL     1      -3.983 -25.390  25.867  0.00  0.00    +0.020 A 
ATOM      2  C   UNL     1      -4.562 -24.099  25.574  0.00  0.00    +0.013 A 
ATOM      3  C   UNL     1      -5.972 -23.838  25.835  0.00  0.00    +0.019 A 
ATOM     38  C   UNL     1      -6.775 -24.913  26.398  0.00  0.00    +0.120 A 
ATOM     39  N   UNL     1      -6.190 -26.147  26.669  0.00  0.00    -0.263 NA
ATOM     40  C   UNL     1      -4.835 -26.410  26.420  0.00  0.00    +0.111 A 
ENDBRANCH   4   3
ENDBRANCH  10   9
BRANCH  12  13
ATOM     13  N   UNL     1     -12.062 -17.210  27.037  0.00  0.00    -0.281 N 
ATOM     14  C   UNL     1     -12.756 -17.384  28.223  0.00  0.00    +0.248 C 
ATOM     30  O   UNL     1     -13.476 -18.341  28.468  0.00  0.00    -0.270 OA
ATOM     31  H   UNL     1     -11.660 -16.285  26.885  0.00  0.00    +0.155 HD
BRANCH  14  15
ATOM     15  C   UNL     1     -12.646 -16.338  29.285  0.00  0.00    +0.037 A 
ATOM     16  C   UNL     1     -13.817 -15.573  29.721  0.00  0.00    +0.013 A 
ATOM     17  C   UNL     1     -13.680 -14.557  30.735  0.00  0.00    +0.005 A 
ATOM     18  C   UNL     1     -12.366 -14.302  31.320  0.00  0.00    -0.033 A 
ATOM     28  C   UNL     1     -11.223 -15.079  30.872  0.00  0.00    +0.005 A 
ATOM     29  C   UNL     1     -11.353 -16.075  29.878  0.00  0.00    +0.013 A 
BRANCH  18  19
ATOM     19  C   UNL     1     -12.123 -13.223  32.393  0.00  0.00    +0.119 C 
BRANCH  19  20
ATOM     20  N   UNL     1     -12.065 -13.673  33.815  0.00  0.00    -0.302 NA
ATOM     21  C   UNL     1     -13.460 -13.912  34.400  0.00  0.00    +0.066 C 
ATOM     22  C   UNL     1     -13.380 -14.405  35.881  0.00  0.00    -0.064 C 
ATOM     23  N   UNL     1     -12.611 -13.379  36.716  0.00  0.00    +0.379 N 
ATOM     24  C   UNL     1     -12.584 -13.810  38.121  0.00  0.00    -0.096 C 
ATOM     25  H   UNL     1     -13.172 -12.416  36.668  0.00  0.00    -0.082 HD
ATOM     26  C   UNL     1     -11.224 -13.133  36.140  0.00  0.00    -0.064 C 
ATOM     27  C   UNL     1     -11.314 -12.673  34.658  0.00  0.00    +0.066 C 
ENDBRANCH  19  20
ENDBRANCH  18  19
ENDBRANCH  14  15
ENDBRANCH  12  13
TORSDOF 6
ENDMDL
MODEL 3
REMARK VINA RESULT:      -8.4     63.219     67.832
REMARK  Name = C:\Users\Docking\Desktop\test protocol\1iep_ligandH.pdb
REMARK  8 active torsions:
REMARK  status: ('A' for Active; 'I' for Inactive)
REMARK    1  A    between atoms: _5  and  _11
REMARK    2  A    between atoms: _19  and  _21
REMARK    3  A    between atoms: _22  and  _66
REMARK    4  A    between atoms: _27  and  _30
REMARK    5  A    between atoms: _32  and  _33
REMARK    6  A    between atoms: _38  and  _43
REMARK    7  A    between atoms: _43  and  _46
REMARK    8  A    between atoms: _53  and  _55
REMARK                            x       y       z     vdW  Elec       q    Type
REMARK                         _______ _______ _______ _____ _____    ______ ____
ROOT
ATOM     10  C   UNL     1     -46.903 -26.100 -19.568  0.00  0.00    +0.038 A 
ATOM     11  C   UNL     1     -46.461 -26.148 -20.914  0.00  0.00    +0.047 A 
ATOM     12  C   UNL     1     -45.415 -27.070 -21.331  0.00  0.00    +0.035 A 
ATOM     32  C   UNL     1     -44.843 -27.931 -20.349  0.00  0.00    +0.024 A 
ATOM     33  C   UNL     1     -45.279 -27.894 -18.975  0.00  0.00    +0.007 A 
ATOM     34  C   UNL     1     -46.309 -26.985 -18.558  0.00  0.00    -0.029 A 
ATOM     35  C   UNL     1     -46.732 -26.984 -17.071  0.00  0.00    +0.045 C 
ENDROOT
BRANCH  10   9
ATOM      4  C   UNL     1     -51.518 -24.942 -18.940  0.00  0.00    +0.077 A 
ATOM      5  C   UNL     1     -51.962 -26.240 -19.360  0.00  0.00    +0.048 A 
ATOM      6  C   UNL     1     -50.971 -27.175 -19.736  0.00  0.00    +0.116 A 
ATOM      7  N   UNL     1     -49.639 -26.826 -19.691  0.00  0.00    -0.223 NA
ATOM      8  C   UNL     1     -49.245 -25.565 -19.283  0.00  0.00    +0.220 A 
ATOM      9  N   UNL     1     -47.910 -25.196 -19.223  0.00  0.00    -0.283 N 
ATOM     36  H   UNL     1     -47.661 -24.253 -18.924  0.00  0.00    +0.155 HD
ATOM     37  N   UNL     1     -50.172 -24.654 -18.921  0.00  0.00    -0.214 NA
BRANCH   4   3
ATOM      1  C   UNL     1     -53.805 -22.624 -16.773  0.00  0.00    +0.020 A 
ATOM      2  C   UNL     1     -52.911 -23.699 -17.137  0.00  0.00    +0.013 A 
ATOM      3  C   UNL     1     -52.445 -23.848 -18.510  0.00  0.00    +0.019 A 
ATOM     38  C   UNL     1     -52.904 -22.884 -19.498  0.00  0.00    +0.120 A 
ATOM     39  N   UNL     1     -53.766 -21.860 -19.119  0.00  0.00    -0.263 NA
ATOM     40  C   UNL     1     -54.223 -21.708 -17.801  0.00  0.00    +0.111 A 
ENDBRANCH   4   3
ENDBRANCH  10   9
BRANCH  12  13
ATOM     13  N   UNL     1     -44.920 -27.159 -22.682  0.00  0.00    -0.281 N 
ATOM     14  C   UNL     1     -45.404 -27.942 -23.717  0.00  0.00    +0.248 C 
ATOM     30  O   UNL     1     -46.209 -28.851 -23.577  0.00  0.00    -0.270 OA
ATOM     31  H   UNL     1     -44.116 -26.572 -22.903  0.00  0.00    +0.155 HD
BRANCH  14  15
ATOM     15  C   UNL     1     -44.913 -27.689 -25.105  0.00  0.00    +0.037 A 
ATOM     16  C   UNL     1     -45.837 -27.342 -26.187  0.00  0.00    +0.013 A 
ATOM     17  C   UNL     1     -45.338 -27.120 -27.521  0.00  0.00    +0.005 A 
ATOM     18  C   UNL     1     -43.906 -27.243 -27.780  0.00  0.00    -0.033 A 
ATOM     28  C   UNL     1     -43.010 -27.584 -26.687  0.00  0.00    +0.005 A 
ATOM     29  C   UNL     1     -43.496 -27.803 -25.378  0.00  0.00    +0.013 A 
BRANCH  18  19
ATOM     19  C   UNL     1     -43.288 -27.044 -29.177  0.00  0.00    +0.119 C 
BRANCH  19  20
ATOM     20  N   UNL     1     -42.651 -25.724 -29.461  0.00  0.00    -0.302 NA
ATOM     21  C   UNL     1     -43.242 -25.057 -30.706  0.00  0.00    +0.066 C 
ATOM     22  C   UNL     1     -42.580 -23.666 -30.976  0.00  0.00    -0.064 C 
ATOM     23  N   UNL     1     -41.068 -23.845 -31.123  0.00  0.00    +0.379 N 
ATOM     24  C   UNL     1     -40.449 -22.548 -31.435  0.00  0.00    -0.096 C 
ATOM     25  H   UNL     1     -40.891 -24.521 -31.991  0.00  0.00    -0.082 HD
ATOM     26  C   UNL     1     -40.472 -24.510 -29.891  0.00  0.00    -0.064 C 
ATOM     27  C   UNL     1     -41.158 -25.877 -29.615  0.00  0.00    +0.066 C 
ENDBRANCH  19  20
ENDBRANCH  18  19
ENDBRANCH  14  15
ENDBRANCH  12  13
TORSDOF 6
ENDMDL
MODEL 4
REMARK VINA RESULT:      -8.2      2.126      3.613
REMARK  Name = C:\Users\Docking\Desktop\test protocol\1iep_ligandH.pdb
REMARK  8 active torsions:
REMARK  status: ('A' for Active; 'I' for Inactive)
REMARK    1  A    between atoms: _5  and  _11
REMARK    2  A    between atoms: _19  and  _21
REMARK    3  A    between atoms: _22  and  _66
REMARK    4  A    between atoms: _27  and  _30
REMARK    5  A    between atoms: _32  and  _33
REMARK    6  A    between atoms: _38  and  _43
REMARK    7  A    between atoms: _43  and  _46
REMARK    8  A    between atoms: _53  and  _55
REMARK                            x       y       z     vdW  Elec       q    Type
REMARK                         _______ _______ _______ _____ _____    ______ ____
ROOT
ATOM     10  C   UNL     1     -13.029 -19.346  29.586  0.00  0.00    +0.038 A 
ATOM     11  C   UNL     1     -12.446 -18.275  30.310  0.00  0.00    +0.047 A 
ATOM     12  C   UNL     1     -13.193 -17.569  31.340  0.00  0.00    +0.035 A 
ATOM     32  C   UNL     1     -14.530 -17.982  31.608  0.00  0.00    +0.024 A 
ATOM     33  C   UNL     1     -15.139 -19.068  30.880  0.00  0.00    +0.007 A 
ATOM     34  C   UNL     1     -14.408 -19.766  29.862  0.00  0.00    -0.029 A 
ATOM     35  C   UNL     1     -15.113 -20.918  29.109  0.00  0.00    +0.045 C 
ENDROOT
BRANCH  10   9
ATOM      4  C   UNL     1     -11.219 -19.649  25.151  0.00  0.00    +0.077 A 
ATOM      5  C   UNL     1     -11.869 -18.438  24.739  0.00  0.00    +0.048 A 
ATOM      6  C   UNL     1     -12.666 -17.771  25.696  0.00  0.00    +0.116 A 
ATOM      7  N   UNL     1     -12.796 -18.286  26.968  0.00  0.00    -0.223 NA
ATOM      8  C   UNL     1     -12.156 -19.457  27.332  0.00  0.00    +0.220 A 
ATOM      9  N   UNL     1     -12.267 -19.989  28.608  0.00  0.00    -0.283 N 
ATOM     36  H   UNL     1     -11.785 -20.858  28.835  0.00  0.00    +0.155 HD
ATOM     37  N   UNL     1     -11.391 -20.113  26.436  0.00  0.00    -0.214 NA
BRANCH   4   3
ATOM      1  C   UNL     1      -9.959 -21.978  22.271  0.00  0.00    +0.020 A 
ATOM      2  C   UNL     1     -10.850 -21.205  23.106  0.00  0.00    +0.013 A 
ATOM      3  C   UNL     1     -10.341 -20.466  24.254  0.00  0.00    +0.019 A 
ATOM     38  C   UNL     1      -8.914 -20.530  24.533  0.00  0.00    +0.120 A 
ATOM     39  N   UNL     1      -8.081 -21.284  23.713  0.00  0.00    -0.263 NA
ATOM     40  C   UNL     1      -8.560 -22.001  22.606  0.00  0.00    +0.111 A 
ENDBRANCH   4   3
ENDBRANCH  10   9
BRANCH  12  13
ATOM     13  N   UNL     1     -12.656 -16.469  32.103  0.00  0.00    -0.281 N 
ATOM     14  C   UNL     1     -12.234 -15.235  31.636  0.00  0.00    +0.248 C 
ATOM     30  O   UNL     1     -12.054 -14.966  30.458  0.00  0.00    -0.270 OA
ATOM     31  H   UNL     1     -12.579 -16.618  33.109  0.00  0.00    +0.155 HD
BRANCH  14  15
ATOM     15  C   UNL     1     -11.958 -14.146  32.622  0.00  0.00    +0.037 A 
ATOM     16  C   UNL     1     -10.610 -13.599  32.793  0.00  0.00    +0.013 A 
ATOM     17  C   UNL     1     -10.368 -12.561  33.764  0.00  0.00    +0.005 A 
ATOM     18  C   UNL     1     -11.479 -12.061  34.569  0.00  0.00    -0.033 A 
ATOM     28  C   UNL     1     -12.808 -12.617  34.375  0.00  0.00    +0.005 A 
ATOM     29  C   UNL     1     -13.049 -13.636  33.426  0.00  0.00    +0.013 A 
BRANCH  18  19
ATOM     19  C   UNL     1     -11.310 -10.970  35.643  0.00  0.00    +0.119 C 
BRANCH  19  20
ATOM     20  N   UNL     1      -9.915 -10.593  36.020  0.00  0.00    -0.302 NA
ATOM     21  C   UNL     1      -9.441 -11.329  37.277  0.00  0.00    +0.066 C 
ATOM     22  C   UNL     1      -7.972 -10.940  37.644  0.00  0.00    -0.064 C 
ATOM     23  N   UNL     1      -7.881  -9.426  37.837  0.00  0.00    +0.379 N 
ATOM     24  C   UNL     1      -6.514  -9.063  38.240  0.00  0.00    -0.096 C 
ATOM     25  H   UNL     1      -8.565  -9.150  38.674  0.00  0.00    -0.082 HD
ATOM     26  C   UNL     1      -8.353  -8.686  36.594  0.00  0.00    -0.064 C 
ATOM     27  C   UNL     1      -9.803  -9.102  36.220  0.00  0.00    +0.066 C 
ENDBRANCH  19  20
ENDBRANCH  18  19
ENDBRANCH  14  15
ENDBRANCH  12  13
TORSDOF 6
ENDMDL
MODEL 5
REMARK VINA RESULT:      -8.1      3.787      5.479
REMARK  Name = C:\Users\Docking\Desktop\test protocol\1iep_ligandH.pdb
REMARK  8 active torsions:
REMARK  status: ('A' for Active; 'I' for Inactive)
REMARK    1  A    between atoms: _5  and  _11
REMARK    2  A    between atoms: _19  and  _21
REMARK    3  A    between atoms: _22  and  _66
REMARK    4  A    between atoms: _27  and  _30
REMARK    5  A    between atoms: _32  and  _33
REMARK    6  A    between atoms: _38  and  _43
REMARK    7  A    between atoms: _43  and  _46
REMARK    8  A    between atoms: _53  and  _55
REMARK                            x       y       z     vdW  Elec       q    Type
REMARK                         _______ _______ _______ _____ _____    ______ ____
ROOT
ATOM     10  C   UNL     1     -10.662 -19.227  28.180  0.00  0.00    +0.038 A 
ATOM     11  C   UNL     1     -10.491 -18.095  29.016  0.00  0.00    +0.047 A 
ATOM     12  C   UNL     1     -11.533 -17.678  29.942  0.00  0.00    +0.035 A 
ATOM     32  C   UNL     1     -12.736 -18.441  29.992  0.00  0.00    +0.024 A 
ATOM     33  C   UNL     1     -12.927 -19.594  29.149  0.00  0.00    +0.007 A 
ATOM     34  C   UNL     1     -11.904 -20.008  28.232  0.00  0.00    -0.029 A 
ATOM     35  C   UNL     1     -12.166 -21.249  27.347  0.00  0.00    +0.045 C 
ENDROOT
BRANCH  10   9
ATOM      4  C   UNL     1      -6.252 -20.910  27.309  0.00  0.00    +0.077 A 
ATOM      5  C   UNL     1      -5.973 -21.070  28.707  0.00  0.00    +0.048 A 
ATOM      6  C   UNL     1      -6.988 -20.701  29.618  0.00  0.00    +0.116 A 
ATOM      7  N   UNL     1      -8.189 -20.210  29.154  0.00  0.00    -0.223 NA
ATOM      8  C   UNL     1      -8.426 -20.067  27.799  0.00  0.00    +0.220 A 
ATOM      9  N   UNL     1      -9.629 -19.582  27.310  0.00  0.00    -0.283 N 
ATOM     36  H   UNL     1      -9.761 -19.484  26.304  0.00  0.00    +0.155 HD
ATOM     37  N   UNL     1      -7.472 -20.410  26.909  0.00  0.00    -0.214 NA
BRANCH   4   3
ATOM      1  C   UNL     1      -4.605 -21.431  23.800  0.00  0.00    +0.020 A 
ATOM      2  C   UNL     1      -5.578 -21.079  24.808  0.00  0.00    +0.013 A 
ATOM      3  C   UNL     1      -5.281 -21.258  26.224  0.00  0.00    +0.019 A 
ATOM     38  C   UNL     1      -3.981 -21.799  26.588  0.00  0.00    +0.120 A 
ATOM     39  N   UNL     1      -3.064 -22.131  25.595  0.00  0.00    -0.263 NA
ATOM     40  C   UNL     1      -3.339 -21.965  24.230  0.00  0.00    +0.111 A 
ENDBRANCH   4   3
ENDBRANCH  10   9
BRANCH  12  13
ATOM     13  N   UNL     1     -11.419 -16.532  30.810  0.00  0.00    -0.281 N 
ATOM     14  C   UNL     1     -12.040 -15.301  30.680  0.00  0.00    +0.248 C 
ATOM     30  O   UNL     1     -12.626 -14.925  29.676  0.00  0.00    -0.270 OA
ATOM     31  H   UNL     1     -10.805 -16.642  31.617  0.00  0.00    +0.155 HD
BRANCH  14  15
ATOM     15  C   UNL     1     -11.992 -14.343  31.827  0.00  0.00    +0.037 A 
ATOM     16  C   UNL     1     -10.726 -13.760  32.277  0.00  0.00    +0.013 A 
ATOM     17  C   UNL     1     -10.705 -12.852  33.396  0.00  0.00    +0.005 A 
ATOM     18  C   UNL     1     -11.957 -12.521  34.073  0.00  0.00    -0.033 A 
ATOM     28  C   UNL     1     -13.199 -13.111  33.603  0.00  0.00    +0.005 A 
ATOM     29  C   UNL     1     -13.223 -14.002  32.507  0.00  0.00    +0.013 A 
BRANCH  18  19
ATOM     19  C   UNL     1     -12.026 -11.579  35.289  0.00  0.00    +0.119 C 
BRANCH  19  20
ATOM     20  N   UNL     1     -10.754 -10.926  35.722  0.00  0.00    -0.302 NA
ATOM     21  C   UNL     1     -10.121 -11.640  36.920  0.00  0.00    +0.066 C 
ATOM     22  C   UNL     1      -8.780 -10.957  37.345  0.00  0.00    -0.064 C 
ATOM     23  N   UNL     1      -9.040  -9.485  37.667  0.00  0.00    +0.379 N 
ATOM     24  C   UNL     1      -7.792  -8.855  38.123  0.00  0.00    -0.096 C 
ATOM     25  H   UNL     1      -9.766  -9.447  38.512  0.00  0.00    -0.082 HD
ATOM     26  C   UNL     1      -9.672  -8.768  36.482  0.00  0.00    -0.064 C 
ATOM     27  C   UNL     1     -10.989  -9.472  36.049  0.00  0.00    +0.066 C 
ENDBRANCH  19  20
ENDBRANCH  18  19
ENDBRANCH  14  15
ENDBRANCH  12  13
TORSDOF 6
ENDMDL
