MODEL 1
REMARK VINA RESULT:     -11.2      0.000      0.000
REMARK  Name = C:\Users\Docking\Desktop\test protocol\1iep_ligandH.pdb
REMARK  8 active torsions:
REMARK  status: ('A' for Active; 'I' for Inactive)
REMARK    1  A    between atoms: _5  and  _11
REMARK    2  A    between atoms: _19  and  _21
REMARK    3  A    between atoms: _22  and  _66
REMARK    4  A    between atoms: _27  and  _30
REMARK    5  A    between atoms: _32  and  _33
REMARK    6  A    between atoms: _38  and  _43
REMARK    7  A    between atoms: _43  and  _46
REMARK    8  A    between atoms: _53  and  _55
REMARK                            x       y       z     vdW  Elec       q    Type
REMARK                         _______ _______ _______ _____ _____    ______ ____
ROOT
ATOM     10  C   UNL     1      21.690  30.222  11.926  0.00  0.00    +0.038 A 
ATOM     11  C   UNL     1      20.709  31.172  12.308  0.00  0.00    +0.047 A 
ATOM     12  C   UNL     1      20.895  32.016  13.478  0.00  0.00    +0.035 A 
ATOM     32  C   UNL     1      22.093  31.867  14.235  0.00  0.00    +0.024 A 
ATOM     33  C   UNL     1      23.101  30.906  13.861  0.00  0.00    +0.007 A 
ATOM     34  C   UNL     1      22.922  30.069  12.710  0.00  0.00    -0.029 A 
ATOM     35  C   UNL     1      24.032  29.051  12.359  0.00  0.00    +0.045 C 
ENDROOT
BRANCH  10   9
ATOM      4  C   UNL     1      19.264  26.833   9.545  0.00  0.00    +0.077 A 
ATOM      5  C   UNL     1      18.398  26.585  10.662  0.00  0.00    +0.048 A 
ATOM      6  C   UNL     1      18.615  27.346  11.833  0.00  0.00    +0.116 A 
ATOM      7  N   UNL     1      19.625  28.282  11.872  0.00  0.00    -0.223 NA
ATOM      8  C   UNL     1      20.444  28.495  10.778  0.00  0.00    +0.220 A 
ATOM      9  N   UNL     1      21.460  29.438  10.793  0.00  0.00    -0.283 N 
ATOM     36  H   UNL     1      22.047  29.560   9.968  0.00  0.00    +0.155 HD
ATOM     37  N   UNL     1      20.258  27.781   9.649  0.00  0.00    -0.214 NA
BRANCH   4   3
ATOM      1  C   UNL     1      17.871  24.824   6.492  0.00  0.00    +0.020 A 
ATOM      2  C   UNL     1      17.920  25.508   7.763  0.00  0.00    +0.013 A 
ATOM      3  C   UNL     1      19.159  26.112   8.237  0.00  0.00    +0.019 A 
ATOM     38  C   UNL     1      20.340  26.005   7.394  0.00  0.00    +0.120 A 
ATOM     39  N   UNL     1      20.263  25.338   6.175  0.00  0.00    -0.263 NA
ATOM     40  C   UNL     1      19.077  24.752   5.710  0.00  0.00    +0.111 A 
ENDBRANCH   4   3
ENDBRANCH  10   9
BRANCH  12  13
ATOM     13  N   UNL     1      19.930  32.992  13.920  0.00  0.00    -0.281 N 
ATOM     14  C   UNL     1      18.631  32.773  14.349  0.00  0.00    +0.248 C 
ATOM     30  O   UNL     1      18.028  31.718  14.216  0.00  0.00    -0.270 OA
ATOM     31  H   UNL     1      20.242  33.963  13.915  0.00  0.00    +0.155 HD
BRANCH  14  15
ATOM     15  C   UNL     1      17.890  33.890  15.010  0.00  0.00    +0.037 A 
ATOM     16  C   UNL     1      16.748  34.535  14.357  0.00  0.00    +0.013 A 
ATOM     17  C   UNL     1      16.062  35.622  15.008  0.00  0.00    +0.005 A 
ATOM     18  C   UNL     1      16.516  36.071  16.322  0.00  0.00    -0.033 A 
ATOM     28  C   UNL     1      17.648  35.410  16.950  0.00  0.00    +0.005 A 
ATOM     29  C   UNL     1      18.324  34.345  16.314  0.00  0.00    +0.013 A 
BRANCH  18  19
ATOM     19  C   UNL     1      15.856  37.237  17.082  0.00  0.00    +0.119 C 
BRANCH  19  20
ATOM     20  N   UNL     1      16.296  38.619  16.727  0.00  0.00    -0.302 NA
ATOM     21  C   UNL     1      17.777  38.850  17.043  0.00  0.00    +0.066 C 
ATOM     22  C   UNL     1      18.225  40.294  16.645  0.00  0.00    -0.064 C 
ATOM     23  N   UNL     1      17.351  41.316  17.373  0.00  0.00    +0.379 N 
ATOM     24  C   UNL     1      17.808  42.674  17.046  0.00  0.00    -0.096 C 
ATOM     25  H   UNL     1      17.495  41.164  18.468  0.00  0.00    -0.082 HD
ATOM     26  C   UNL     1      15.877  41.092  17.067  0.00  0.00    -0.064 C 
ATOM     27  C   UNL     1      15.448  39.645  17.439  0.00  0.00    +0.066 C 
ENDBRANCH  19  20
ENDBRANCH  18  19
ENDBRANCH  14  15
ENDBRANCH  12  13
TORSDOF 6
ENDMDL
MODEL 2
REMARK VINA RESULT:     -11.2      2.775     13.296
REMARK  Name = C:\Users\Docking\Desktop\test protocol\1iep_ligandH.pdb
REMARK  8 active torsions:
REMARK  status: ('A' for Active; 'I' for Inactive)
REMARK    1  A    between atoms: _5  and  _11
REMARK    2  A    between atoms: _19  and  _21
REMARK    3  A    between atoms: _22  and  _66
REMARK    4  A    between atoms: _27  and  _30
REMARK    5  A    between atoms: _32  and  _33
REMARK    6  A    between atoms: _38  and  _43
REMARK    7  A    between atoms: _43  and  _46
REMARK    8  A    between atoms: _53  and  _55
REMARK                            x       y       z     vdW  Elec       q    Type
REMARK                         _______ _______ _______ _____ _____    ______ ____
ROOT
ATOM     10  C   UNL     1      16.435  35.164  15.133  0.00  0.00    +0.038 A 
ATOM     11  C   UNL     1      17.566  34.592  14.496  0.00  0.00    +0.047 A 
ATOM     12  C   UNL     1      17.714  33.150  14.378  0.00  0.00    +0.035 A 
ATOM     32  C   UNL     1      16.689  32.319  14.918  0.00  0.00    +0.024 A 
ATOM     33  C   UNL     1      15.533  32.884  15.570  0.00  0.00    +0.007 A 
ATOM     34  C   UNL     1      15.384  34.306  15.692  0.00  0.00    -0.029 A 
ATOM     35  C   UNL     1      14.127  34.856  16.406  0.00  0.00    +0.045 C 
ENDROOT
BRANCH  10   9
ATOM      4  C   UNL     1      16.991  39.306  17.494  0.00  0.00    +0.077 A 
ATOM      5  C   UNL     1      17.478  38.640  18.668  0.00  0.00    +0.048 A 
ATOM      6  C   UNL     1      17.563  37.230  18.625  0.00  0.00    +0.116 A 
ATOM      7  N   UNL     1      17.188  36.548  17.489  0.00  0.00    -0.223 NA
ATOM      8  C   UNL     1      16.721  37.221  16.375  0.00  0.00    +0.220 A 
ATOM      9  N   UNL     1      16.345  36.556  15.218  0.00  0.00    -0.283 N 
ATOM     36  H   UNL     1      15.998  37.088  14.420  0.00  0.00    +0.155 HD
ATOM     37  N   UNL     1      16.628  38.567  16.391  0.00  0.00    -0.214 NA
BRANCH   4   3
ATOM      1  C   UNL     1      17.688  43.078  16.727  0.00  0.00    +0.020 A 
ATOM      2  C   UNL     1      17.877  41.648  16.810  0.00  0.00    +0.013 A 
ATOM      3  C   UNL     1      16.846  40.792  17.384  0.00  0.00    +0.019 A 
ATOM     38  C   UNL     1      15.625  41.419  17.866  0.00  0.00    +0.120 A 
ATOM     39  N   UNL     1      15.471  42.799  17.774  0.00  0.00    -0.263 NA
ATOM     40  C   UNL     1      16.457  43.633  17.225  0.00  0.00    +0.111 A 
ENDBRANCH   4   3
ENDBRANCH  10   9
BRANCH  12  13
ATOM     13  N   UNL     1      18.843  32.511  13.749  0.00  0.00    -0.281 N 
ATOM     14  C   UNL     1      20.188  32.784  13.936  0.00  0.00    +0.248 C 
ATOM     30  O   UNL     1      20.620  33.768  14.518  0.00  0.00    -0.270 OA
ATOM     31  H   UNL     1      18.624  31.769  13.085  0.00  0.00    +0.155 HD
BRANCH  14  15
ATOM     15  C   UNL     1      21.201  31.832  13.386  0.00  0.00    +0.037 A 
ATOM     16  C   UNL     1      21.262  31.531  11.953  0.00  0.00    +0.013 A 
ATOM     17  C   UNL     1      22.237  30.597  11.451  0.00  0.00    +0.005 A 
ATOM     18  C   UNL     1      23.162  29.957  12.383  0.00  0.00    -0.033 A 
ATOM     28  C   UNL     1      23.083  30.277  13.799  0.00  0.00    +0.005 A 
ATOM     29  C   UNL     1      22.128  31.192  14.295  0.00  0.00    +0.013 A 
BRANCH  18  19
ATOM     19  C   UNL     1      24.221  28.931  11.939  0.00  0.00    +0.119 C 
BRANCH  19  20
ATOM     20  N   UNL     1      23.920  28.121  10.721  0.00  0.00    -0.302 NA
ATOM     21  C   UNL     1      23.069  26.890  11.045  0.00  0.00    +0.066 C 
ATOM     22  C   UNL     1      22.745  26.066   9.757  0.00  0.00    -0.064 C 
ATOM     23  N   UNL     1      24.051  25.657   9.074  0.00  0.00    +0.379 N 
ATOM     24  C   UNL     1      23.751  24.834   7.893  0.00  0.00    -0.096 C 
ATOM     25  H   UNL     1      24.624  25.025   9.791  0.00  0.00    -0.082 HD
ATOM     26  C   UNL     1      24.904  26.875   8.750  0.00  0.00    -0.064 C 
ATOM     27  C   UNL     1      25.196  27.703  10.033  0.00  0.00    +0.066 C 
ENDBRANCH  19  20
ENDBRANCH  18  19
ENDBRANCH  14  15
ENDBRANCH  12  13
TORSDOF 6
ENDMDL
MODEL 3
REMARK VINA RESULT:     -11.0      1.513      1.943
REMARK  Name = C:\Users\Docking\Desktop\test protocol\1iep_ligandH.pdb
REMARK  8 active torsions:
REMARK  status: ('A' for Active; 'I' for Inactive)
REMARK    1  A    between atoms: _5  and  _11
REMARK    2  A    between atoms: _19  and  _21
REMARK    3  A    between atoms: _22  and  _66
REMARK    4  A    between atoms: _27  and  _30
REMARK    5  A    between atoms: _32  and  _33
REMARK    6  A    between atoms: _38  and  _43
REMARK    7  A    between atoms: _43  and  _46
REMARK    8  A    between atoms: _53  and  _55
REMARK                            x       y       z     vdW  Elec       q    Type
REMARK                         _______ _______ _______ _____ _____    ______ ____
ROOT
ATOM     10  C   UNL     1      21.000  31.643  12.838  0.00  0.00    +0.038 A 
ATOM     11  C   UNL     1      20.085  32.607  13.332  0.00  0.00    +0.047 A 
ATOM     12  C   UNL     1      20.366  33.358  14.546  0.00  0.00    +0.035 A 
ATOM     32  C   UNL     1      21.590  33.103  15.231  0.00  0.00    +0.024 A 
ATOM     33  C   UNL     1      22.531  32.125  14.743  0.00  0.00    +0.007 A 
ATOM     34  C   UNL     1      22.258  31.380  13.547  0.00  0.00    -0.029 A 
ATOM     35  C   UNL     1      23.300  30.340  13.074  0.00  0.00    +0.045 C 
ENDROOT
BRANCH  10   9
ATOM      4  C   UNL     1      18.848  28.044  10.504  0.00  0.00    +0.077 A 
ATOM      5  C   UNL     1      18.340  27.479  11.721  0.00  0.00    +0.048 A 
ATOM      6  C   UNL     1      18.662  28.141  12.927  0.00  0.00    +0.116 A 
ATOM      7  N   UNL     1      19.434  29.282  12.905  0.00  0.00    -0.223 NA
ATOM      8  C   UNL     1      19.909  29.800  11.714  0.00  0.00    +0.220 A 
ATOM      9  N   UNL     1      20.680  30.951  11.668  0.00  0.00    -0.283 N 
ATOM     36  H   UNL     1      21.017  31.296  10.770  0.00  0.00    +0.155 HD
ATOM     37  N   UNL     1      19.616  29.185  10.549  0.00  0.00    -0.214 NA
BRANCH   4   3
ATOM      1  C   UNL     1      17.801  25.615   7.622  0.00  0.00    +0.020 A 
ATOM      2  C   UNL     1      18.030  26.130   8.952  0.00  0.00    +0.013 A 
ATOM      3  C   UNL     1      18.591  27.461   9.149  0.00  0.00    +0.019 A 
ATOM     38  C   UNL     1      18.911  28.251   7.969  0.00  0.00    +0.120 A 
ATOM     39  N   UNL     1      18.681  27.728   6.701  0.00  0.00    -0.263 NA
ATOM     40  C   UNL     1      18.144  26.448   6.499  0.00  0.00    +0.111 A 
ENDBRANCH   4   3
ENDBRANCH  10   9
BRANCH  12  13
ATOM     13  N   UNL     1      19.471  34.344  15.100  0.00  0.00    -0.281 N 
ATOM     14  C   UNL     1      18.375  34.134  15.921  0.00  0.00    +0.248 C 
ATOM     30  O   UNL     1      17.869  33.042  16.132  0.00  0.00    -0.270 OA
ATOM     31  H   UNL     1      19.670  35.315  14.858  0.00  0.00    +0.155 HD
BRANCH  14  15
ATOM     15  C   UNL     1      17.742  35.308  16.594  0.00  0.00    +0.037 A 
ATOM     16  C   UNL     1      16.443  35.826  16.156  0.00  0.00    +0.013 A 
ATOM     17  C   UNL     1      15.862  36.971  16.811  0.00  0.00    +0.005 A 
ATOM     18  C   UNL     1      16.580  37.605  17.915  0.00  0.00    -0.033 A 
ATOM     28  C   UNL     1      17.864  37.067  18.333  0.00  0.00    +0.005 A 
ATOM     29  C   UNL     1      18.437  35.946  17.692  0.00  0.00    +0.013 A 
BRANCH  18  19
ATOM     19  C   UNL     1      16.045  38.843  18.659  0.00  0.00    +0.119 C 
BRANCH  19  20
ATOM     20  N   UNL     1      15.852  40.090  17.860  0.00  0.00    -0.302 NA
ATOM     21  C   UNL     1      17.103  40.457  17.057  0.00  0.00    +0.066 C 
ATOM     22  C   UNL     1      16.876  41.751  16.209  0.00  0.00    -0.064 C 
ATOM     23  N   UNL     1      16.470  42.899  17.135  0.00  0.00    +0.379 N 
ATOM     24  C   UNL     1      16.312  44.131  16.349  0.00  0.00    -0.096 C 
ATOM     25  H   UNL     1      17.305  43.063  17.856  0.00  0.00    -0.082 HD
ATOM     26  C   UNL     1      15.229  42.541  17.939  0.00  0.00    -0.064 C 
ATOM     27  C   UNL     1      15.455  41.238  18.755  0.00  0.00    +0.066 C 
ENDBRANCH  19  20
ENDBRANCH  18  19
ENDBRANCH  14  15
ENDBRANCH  12  13
TORSDOF 6
ENDMDL
MODEL 4
REMARK VINA RESULT:     -11.0      2.253     12.606
REMARK  Name = C:\Users\Docking\Desktop\test protocol\1iep_ligandH.pdb
REMARK  8 active torsions:
REMARK  status: ('A' for Active; 'I' for Inactive)
REMARK    1  A    between atoms: _5  and  _11
REMARK    2  A    between atoms: _19  and  _21
REMARK    3  A    between atoms: _22  and  _66
REMARK    4  A    between atoms: _27  and  _30
REMARK    5  A    between atoms: _32  and  _33
REMARK    6  A    between atoms: _38  and  _43
REMARK    7  A    between atoms: _43  and  _46
REMARK    8  A    between atoms: _53  and  _55
REMARK                            x       y       z     vdW  Elec       q    Type
REMARK                         _______ _______ _______ _____ _____    ______ ____
ROOT
ATOM     10  C   UNL     1      20.625  35.174  16.480  0.00  0.00    +0.038 A 
ATOM     11  C   UNL     1      19.995  34.249  15.608  0.00  0.00    +0.047 A 
ATOM     12  C   UNL     1      20.622  32.979  15.277  0.00  0.00    +0.035 A 
ATOM     32  C   UNL     1      21.891  32.682  15.854  0.00  0.00    +0.024 A 
ATOM     33  C   UNL     1      22.546  33.611  16.742  0.00  0.00    +0.007 A 
ATOM     34  C   UNL     1      21.933  34.866  17.070  0.00  0.00    -0.029 A 
ATOM     35  C   UNL     1      22.684  35.826  18.022  0.00  0.00    +0.045 C 
ENDROOT
BRANCH  10   9
ATOM      4  C   UNL     1      16.786  37.684  17.895  0.00  0.00    +0.077 A 
ATOM      5  C   UNL     1      15.996  36.498  18.057  0.00  0.00    +0.048 A 
ATOM      6  C   UNL     1      16.613  35.262  17.758  0.00  0.00    +0.116 A 
ATOM      7  N   UNL     1      17.923  35.227  17.331  0.00  0.00    -0.223 NA
ATOM      8  C   UNL     1      18.656  36.390  17.184  0.00  0.00    +0.220 A 
ATOM      9  N   UNL     1      19.977  36.378  16.764  0.00  0.00    -0.283 N 
ATOM     36  H   UNL     1      20.481  37.258  16.661  0.00  0.00    +0.155 HD
ATOM     37  N   UNL     1      18.089  37.583  17.461  0.00  0.00    -0.214 NA
BRANCH   4   3
ATOM      1  C   UNL     1      15.050  41.169  17.519  0.00  0.00    +0.020 A 
ATOM      2  C   UNL     1      15.519  39.840  17.200  0.00  0.00    +0.013 A 
ATOM      3  C   UNL     1      16.277  39.064  18.173  0.00  0.00    +0.019 A 
ATOM     38  C   UNL     1      16.544  39.666  19.471  0.00  0.00    +0.120 A 
ATOM     39  N   UNL     1      16.081  40.948  19.749  0.00  0.00    -0.263 NA
ATOM     40  C   UNL     1      15.352  41.705  18.820  0.00  0.00    +0.111 A 
ENDBRANCH   4   3
ENDBRANCH  10   9
BRANCH  12  13
ATOM     13  N   UNL     1      20.034  32.005  14.392  0.00  0.00    -0.281 N 
ATOM     14  C   UNL     1      19.983  32.033  13.008  0.00  0.00    +0.248 C 
ATOM     30  O   UNL     1      20.250  33.011  12.326  0.00  0.00    -0.270 OA
ATOM     31  H   UNL     1      19.603  31.196  14.840  0.00  0.00    +0.155 HD
BRANCH  14  15
ATOM     15  C   UNL     1      19.561  30.800  12.276  0.00  0.00    +0.037 A 
ATOM     16  C   UNL     1      18.157  30.563  11.932  0.00  0.00    +0.013 A 
ATOM     17  C   UNL     1      17.775  29.357  11.240  0.00  0.00    +0.005 A 
ATOM     18  C   UNL     1      18.801  28.379  10.887  0.00  0.00    -0.033 A 
ATOM     28  C   UNL     1      20.187  28.642  11.236  0.00  0.00    +0.005 A 
ATOM     29  C   UNL     1      20.565  29.822  11.914  0.00  0.00    +0.013 A 
BRANCH  18  19
ATOM     19  C   UNL     1      18.481  27.055  10.168  0.00  0.00    +0.119 C 
BRANCH  19  20
ATOM     20  N   UNL     1      18.889  26.939   8.736  0.00  0.00    -0.302 NA
ATOM     21  C   UNL     1      18.721  28.261   7.981  0.00  0.00    +0.066 C 
ATOM     22  C   UNL     1      19.174  28.128   6.491  0.00  0.00    -0.064 C 
ATOM     23  N   UNL     1      18.374  27.013   5.816  0.00  0.00    +0.379 N 
ATOM     24  C   UNL     1      18.756  26.924   4.399  0.00  0.00    -0.096 C 
ATOM     25  H   UNL     1      17.296  27.297   5.858  0.00  0.00    -0.082 HD
ATOM     26  C   UNL     1      18.533  25.695   6.561  0.00  0.00    -0.064 C 
ATOM     27  C   UNL     1      18.108  25.847   8.048  0.00  0.00    +0.066 C 
ENDBRANCH  19  20
ENDBRANCH  18  19
ENDBRANCH  14  15
ENDBRANCH  12  13
TORSDOF 6
ENDMDL
MODEL 5
REMARK VINA RESULT:     -10.9      2.016      3.328
REMARK  Name = C:\Users\Docking\Desktop\test protocol\1iep_ligandH.pdb
REMARK  8 active torsions:
REMARK  status: ('A' for Active; 'I' for Inactive)
REMARK    1  A    between atoms: _5  and  _11
REMARK    2  A    between atoms: _19  and  _21
REMARK    3  A    between atoms: _22  and  _66
REMARK    4  A    between atoms: _27  and  _30
REMARK    5  A    between atoms: _32  and  _33
REMARK    6  A    between atoms: _38  and  _43
REMARK    7  A    between atoms: _43  and  _46
REMARK    8  A    between atoms: _53  and  _55
REMARK                            x       y       z     vdW  Elec       q    Type
REMARK                         _______ _______ _______ _____ _____    ______ ____
ROOT
ATOM     10  C   UNL     1      20.399  27.080  10.749  0.00  0.00    +0.038 A 
ATOM     11  C   UNL     1      19.732  28.080  11.501  0.00  0.00    +0.047 A 
ATOM     12  C   UNL     1      20.474  29.025  12.321  0.00  0.00    +0.035 A 
ATOM     32  C   UNL     1      21.896  28.924  12.350  0.00  0.00    +0.024 A 
ATOM     33  C   UNL     1      22.590  27.912  11.593  0.00  0.00    +0.007 A 
ATOM     34  C   UNL     1      21.863  26.975  10.785  0.00  0.00    -0.029 A 
ATOM     35  C   UNL     1      22.659  25.907   9.999  0.00  0.00    +0.045 C 
ENDROOT
BRANCH  10   9
ATOM      4  C   UNL     1      18.055  25.916   6.726  0.00  0.00    +0.077 A 
ATOM      5  C   UNL     1      18.351  27.181   6.117  0.00  0.00    +0.048 A 
ATOM      6  C   UNL     1      19.102  28.106   6.876  0.00  0.00    +0.116 A 
ATOM      7  N   UNL     1      19.522  27.779   8.147  0.00  0.00    -0.223 NA
ATOM      8  C   UNL     1      19.219  26.551   8.705  0.00  0.00    +0.220 A 
ATOM      9  N   UNL     1      19.637  26.198   9.979  0.00  0.00    -0.283 N 
ATOM     36  H   UNL     1      19.386  25.285  10.357  0.00  0.00    +0.155 HD
ATOM     37  N   UNL     1      18.501  25.651   8.001  0.00  0.00    -0.214 NA
BRANCH   4   3
ATOM      1  C   UNL     1      15.250  23.976   4.810  0.00  0.00    +0.020 A 
ATOM      2  C   UNL     1      15.963  25.057   5.452  0.00  0.00    +0.013 A 
ATOM      3  C   UNL     1      17.273  24.833   6.050  0.00  0.00    +0.019 A 
ATOM     38  C   UNL     1      17.839  23.494   5.980  0.00  0.00    +0.120 A 
ATOM     39  N   UNL     1      17.128  22.472   5.357  0.00  0.00    -0.263 NA
ATOM     40  C   UNL     1      15.866  22.676   4.780  0.00  0.00    +0.111 A 
ENDBRANCH   4   3
ENDBRANCH  10   9
BRANCH  12  13
ATOM     13  N   UNL     1      19.851  30.058  13.111  0.00  0.00    -0.281 N 
ATOM     14  C   UNL     1      19.769  31.412  12.832  0.00  0.00    +0.248 C 
ATOM     30  O   UNL     1      20.410  31.977  11.958  0.00  0.00    -0.270 OA
ATOM     31  H   UNL     1      19.417  29.753  13.983  0.00  0.00    +0.155 HD
BRANCH  14  15
ATOM     15  C   UNL     1      18.855  32.264  13.651  0.00  0.00    +0.037 A 
ATOM     16  C   UNL     1      17.456  31.888  13.868  0.00  0.00    +0.013 A 
ATOM     17  C   UNL     1      16.590  32.737  14.648  0.00  0.00    +0.005 A 
ATOM     18  C   UNL     1      17.124  33.971  15.219  0.00  0.00    -0.033 A 
ATOM     28  C   UNL     1      18.517  34.318  14.993  0.00  0.00    +0.005 A 
ATOM     29  C   UNL     1      19.368  33.489  14.228  0.00  0.00    +0.013 A 
BRANCH  18  19
ATOM     19  C   UNL     1      16.267  34.948  16.047  0.00  0.00    +0.119 C 
BRANCH  19  20
ATOM     20  N   UNL     1      16.935  36.186  16.549  0.00  0.00    -0.302 NA
ATOM     21  C   UNL     1      17.402  36.038  18.000  0.00  0.00    +0.066 C 
ATOM     22  C   UNL     1      18.118  37.334  18.502  0.00  0.00    -0.064 C 
ATOM     23  N   UNL     1      17.170  38.526  18.356  0.00  0.00    +0.379 N 
ATOM     24  C   UNL     1      17.820  39.736  18.881  0.00  0.00    -0.096 C 
ATOM     25  H   UNL     1      16.273  38.323  18.986  0.00  0.00    -0.082 HD
ATOM     26  C   UNL     1      16.699  38.678  16.917  0.00  0.00    -0.064 C 
ATOM     27  C   UNL     1      16.015  37.375  16.419  0.00  0.00    +0.066 C 
ENDBRANCH  19  20
ENDBRANCH  18  19
ENDBRANCH  14  15
ENDBRANCH  12  13
TORSDOF 6
ENDMDL
