MODEL 1
REMARK VINA RESULT:     -10.6      0.000      0.000
REMARK  Name = C:\Users\Docking\Desktop\test protocol\1iep_ligandH.pdb
REMARK  8 active torsions:
REMARK  status: ('A' for Active; 'I' for Inactive)
REMARK    1  A    between atoms: _5  and  _11
REMARK    2  A    between atoms: _19  and  _21
REMARK    3  A    between atoms: _22  and  _66
REMARK    4  A    between atoms: _27  and  _30
REMARK    5  A    between atoms: _32  and  _33
REMARK    6  A    between atoms: _38  and  _43
REMARK    7  A    between atoms: _43  and  _46
REMARK    8  A    between atoms: _53  and  _55
REMARK                            x       y       z     vdW  Elec       q    Type
REMARK                         _______ _______ _______ _____ _____    ______ ____
ROOT
ATOM     10  C   UNL     1       3.690   2.607  11.512  0.00  0.00    +0.038 A 
ATOM     11  C   UNL     1       3.898   1.453  12.310  0.00  0.00    +0.047 A 
ATOM     12  C   UNL     1       2.882   0.417  12.414  0.00  0.00    +0.035 A 
ATOM     32  C   UNL     1       1.666   0.588  11.690  0.00  0.00    +0.024 A 
ATOM     33  C   UNL     1       1.437   1.755  10.876  0.00  0.00    +0.007 A 
ATOM     34  C   UNL     1       2.435   2.781  10.771  0.00  0.00    -0.029 A 
ATOM     35  C   UNL     1       2.133   4.014   9.888  0.00  0.00    +0.045 C 
ENDROOT
BRANCH  10   9
ATOM      4  C   UNL     1       7.684   4.429   9.572  0.00  0.00    +0.077 A 
ATOM      5  C   UNL     1       7.783   3.357   8.624  0.00  0.00    +0.048 A 
ATOM      6  C   UNL     1       6.791   2.352   8.674  0.00  0.00    +0.116 A 
ATOM      7  N   UNL     1       5.778   2.426   9.606  0.00  0.00    -0.223 NA
ATOM      8  C   UNL     1       5.713   3.472  10.507  0.00  0.00    +0.220 A 
ATOM      9  N   UNL     1       4.699   3.570  11.448  0.00  0.00    -0.283 N 
ATOM     36  H   UNL     1       4.690   4.354  12.100  0.00  0.00    +0.155 HD
ATOM     37  N   UNL     1       6.650   4.443  10.481  0.00  0.00    -0.214 NA
BRANCH   4   3
ATOM      1  C   UNL     1       9.780   7.473  10.852  0.00  0.00    +0.020 A 
ATOM      2  C   UNL     1       8.828   6.387  10.835  0.00  0.00    +0.013 A 
ATOM      3  C   UNL     1       8.655   5.566   9.643  0.00  0.00    +0.019 A 
ATOM     38  C   UNL     1       9.468   5.873   8.476  0.00  0.00    +0.120 A 
ATOM     39  N   UNL     1      10.376   6.926   8.521  0.00  0.00    -0.263 NA
ATOM     40  C   UNL     1      10.550   7.724   9.662  0.00  0.00    +0.111 A 
ENDBRANCH   4   3
ENDBRANCH  10   9
BRANCH  12  13
ATOM     13  N   UNL     1       3.034  -0.773  13.215  0.00  0.00    -0.281 N 
ATOM     14  C   UNL     1       3.838  -1.872  12.962  0.00  0.00    +0.248 C 
ATOM     30  O   UNL     1       4.391  -2.094  11.895  0.00  0.00    -0.270 OA
ATOM     31  H   UNL     1       2.482  -0.808  14.072  0.00  0.00    +0.155 HD
BRANCH  14  15
ATOM     15  C   UNL     1       4.047  -2.878  14.048  0.00  0.00    +0.037 A 
ATOM     16  C   UNL     1       5.362  -3.066  14.667  0.00  0.00    +0.013 A 
ATOM     17  C   UNL     1       5.540  -4.055  15.700  0.00  0.00    +0.005 A 
ATOM     18  C   UNL     1       4.398  -4.864  16.121  0.00  0.00    -0.033 A 
ATOM     28  C   UNL     1       3.104  -4.654  15.494  0.00  0.00    +0.005 A 
ATOM     29  C   UNL     1       2.926  -3.685  14.480  0.00  0.00    +0.013 A 
BRANCH  18  19
ATOM     19  C   UNL     1       4.501  -5.958  17.201  0.00  0.00    +0.119 C 
BRANCH  19  20
ATOM     20  N   UNL     1       5.787  -6.712  17.290  0.00  0.00    -0.302 NA
ATOM     21  C   UNL     1       5.566  -8.183  17.651  0.00  0.00    +0.066 C 
ATOM     22  C   UNL     1       6.920  -8.963  17.718  0.00  0.00    -0.064 C 
ATOM     23  N   UNL     1       7.844  -8.289  18.734  0.00  0.00    +0.379 N 
ATOM     24  C   UNL     1       9.095  -9.052  18.842  0.00  0.00    -0.096 C 
ATOM     25  H   UNL     1       7.338  -8.326  19.727  0.00  0.00    -0.082 HD
ATOM     26  C   UNL     1       8.067  -6.824  18.384  0.00  0.00    -0.064 C 
ATOM     27  C   UNL     1       6.713  -6.066  18.291  0.00  0.00    +0.066 C 
ENDBRANCH  19  20
ENDBRANCH  18  19
ENDBRANCH  14  15
ENDBRANCH  12  13
TORSDOF 6
ENDMDL
MODEL 2
REMARK VINA RESULT:     -10.4      2.356     11.965
REMARK  Name = C:\Users\Docking\Desktop\test protocol\1iep_ligandH.pdb
REMARK  8 active torsions:
REMARK  status: ('A' for Active; 'I' for Inactive)
REMARK    1  A    between atoms: _5  and  _11
REMARK    2  A    between atoms: _19  and  _21
REMARK    3  A    between atoms: _22  and  _66
REMARK    4  A    between atoms: _27  and  _30
REMARK    5  A    between atoms: _32  and  _33
REMARK    6  A    between atoms: _38  and  _43
REMARK    7  A    between atoms: _43  and  _46
REMARK    8  A    between atoms: _53  and  _55
REMARK                            x       y       z     vdW  Elec       q    Type
REMARK                         _______ _______ _______ _____ _____    ______ ____
ROOT
ATOM     10  C   UNL     1       2.460   1.207  12.191  0.00  0.00    +0.038 A 
ATOM     11  C   UNL     1       3.728   1.788  11.932  0.00  0.00    +0.047 A 
ATOM     12  C   UNL     1       3.892   2.812  10.912  0.00  0.00    +0.035 A 
ATOM     32  C   UNL     1       2.742   3.224  10.177  0.00  0.00    +0.024 A 
ATOM     33  C   UNL     1       1.446   2.643  10.426  0.00  0.00    +0.007 A 
ATOM     34  C   UNL     1       1.279   1.630  11.429  0.00  0.00    -0.029 A 
ATOM     35  C   UNL     1      -0.133   1.038  11.649  0.00  0.00    +0.045 C 
ENDROOT
BRANCH  10   9
ATOM      4  C   UNL     1       3.903  -2.870  14.272  0.00  0.00    +0.077 A 
ATOM      5  C   UNL     1       4.926  -3.080  13.288  0.00  0.00    +0.048 A 
ATOM      6  C   UNL     1       5.043  -2.119  12.259  0.00  0.00    +0.116 A 
ATOM      7  N   UNL     1       4.195  -1.033  12.226  0.00  0.00    -0.223 NA
ATOM      8  C   UNL     1       3.218  -0.862  13.190  0.00  0.00    +0.220 A 
ATOM      9  N   UNL     1       2.360   0.227  13.181  0.00  0.00    -0.283 N 
ATOM     36  H   UNL     1       1.648   0.313  13.905  0.00  0.00    +0.155 HD
ATOM     37  N   UNL     1       3.085  -1.766  14.182  0.00  0.00    -0.214 NA
BRANCH   4   3
ATOM      1  C   UNL     1       2.317  -4.587  17.408  0.00  0.00    +0.020 A 
ATOM      2  C   UNL     1       2.509  -3.667  16.311  0.00  0.00    +0.013 A 
ATOM      3  C   UNL     1       3.657  -3.795  15.423  0.00  0.00    +0.019 A 
ATOM     38  C   UNL     1       4.600  -4.875  15.674  0.00  0.00    +0.120 A 
ATOM     39  N   UNL     1       4.391  -5.745  16.739  0.00  0.00    -0.263 NA
ATOM     40  C   UNL     1       3.290  -5.630  17.601  0.00  0.00    +0.111 A 
ENDBRANCH   4   3
ENDBRANCH  10   9
BRANCH  12  13
ATOM     13  N   UNL     1       5.155   3.433  10.599  0.00  0.00    -0.281 N 
ATOM     14  C   UNL     1       6.179   2.930   9.813  0.00  0.00    +0.248 C 
ATOM     30  O   UNL     1       6.252   1.772   9.430  0.00  0.00    -0.270 OA
ATOM     31  H   UNL     1       5.314   4.354  11.008  0.00  0.00    +0.155 HD
BRANCH  14  15
ATOM     15  C   UNL     1       7.290   3.843   9.404  0.00  0.00    +0.037 A 
ATOM     16  C   UNL     1       7.627   5.031  10.193  0.00  0.00    +0.013 A 
ATOM     17  C   UNL     1       8.692   5.904   9.767  0.00  0.00    +0.005 A 
ATOM     18  C   UNL     1       9.429   5.590   8.546  0.00  0.00    -0.033 A 
ATOM     28  C   UNL     1       9.078   4.402   7.785  0.00  0.00    +0.005 A 
ATOM     29  C   UNL     1       8.034   3.545   8.199  0.00  0.00    +0.013 A 
BRANCH  18  19
ATOM     19  C   UNL     1      10.567   6.477   8.005  0.00  0.00    +0.119 C 
BRANCH  19  20
ATOM     20  N   UNL     1      11.765   6.661   8.878  0.00  0.00    -0.302 NA
ATOM     21  C   UNL     1      11.869   8.091   9.416  0.00  0.00    +0.066 C 
ATOM     22  C   UNL     1      13.115   8.259  10.345  0.00  0.00    -0.064 C 
ATOM     23  N   UNL     1      14.379   7.877   9.573  0.00  0.00    +0.379 N 
ATOM     24  C   UNL     1      15.558   8.090  10.426  0.00  0.00    -0.096 C 
ATOM     25  H   UNL     1      14.464   8.566   8.701  0.00  0.00    -0.082 HD
ATOM     26  C   UNL     1      14.282   6.457   9.033  0.00  0.00    -0.064 C 
ATOM     27  C   UNL     1      13.025   6.293   8.134  0.00  0.00    +0.066 C 
ENDBRANCH  19  20
ENDBRANCH  18  19
ENDBRANCH  14  15
ENDBRANCH  12  13
TORSDOF 6
ENDMDL
MODEL 3
REMARK VINA RESULT:     -10.1      1.408      1.727
REMARK  Name = C:\Users\Docking\Desktop\test protocol\1iep_ligandH.pdb
REMARK  8 active torsions:
REMARK  status: ('A' for Active; 'I' for Inactive)
REMARK    1  A    between atoms: _5  and  _11
REMARK    2  A    between atoms: _19  and  _21
REMARK    3  A    between atoms: _22  and  _66
REMARK    4  A    between atoms: _27  and  _30
REMARK    5  A    between atoms: _32  and  _33
REMARK    6  A    between atoms: _38  and  _43
REMARK    7  A    between atoms: _43  and  _46
REMARK    8  A    between atoms: _53  and  _55
REMARK                            x       y       z     vdW  Elec       q    Type
REMARK                         _______ _______ _______ _____ _____    ______ ____
ROOT
ATOM     10  C   UNL     1       3.755   2.693  11.165  0.00  0.00    +0.038 A 
ATOM     11  C   UNL     1       3.973   1.505  11.908  0.00  0.00    +0.047 A 
ATOM     12  C   UNL     1       2.940   0.486  12.017  0.00  0.00    +0.035 A 
ATOM     32  C   UNL     1       1.698   0.709  11.355  0.00  0.00    +0.024 A 
ATOM     33  C   UNL     1       1.459   1.912  10.597  0.00  0.00    +0.007 A 
ATOM     34  C   UNL     1       2.473   2.922  10.488  0.00  0.00    -0.029 A 
ATOM     35  C   UNL     1       2.159   4.195   9.667  0.00  0.00    +0.045 C 
ENDROOT
BRANCH  10   9
ATOM      4  C   UNL     1       7.805   4.406   9.241  0.00  0.00    +0.077 A 
ATOM      5  C   UNL     1       7.899   3.312   8.318  0.00  0.00    +0.048 A 
ATOM      6  C   UNL     1       6.889   2.326   8.376  0.00  0.00    +0.116 A 
ATOM      7  N   UNL     1       5.865   2.436   9.292  0.00  0.00    -0.223 NA
ATOM      8  C   UNL     1       5.805   3.503  10.169  0.00  0.00    +0.220 A 
ATOM      9  N   UNL     1       4.781   3.638  11.094  0.00  0.00    -0.283 N 
ATOM     36  H   UNL     1       4.776   4.436  11.728  0.00  0.00    +0.155 HD
ATOM     37  N   UNL     1       6.759   4.458  10.135  0.00  0.00    -0.214 NA
BRANCH   4   3
ATOM      1  C   UNL     1      10.633   6.943   8.311  0.00  0.00    +0.020 A 
ATOM      2  C   UNL     1       9.697   5.848   8.202  0.00  0.00    +0.013 A 
ATOM      3  C   UNL     1       8.793   5.529   9.301  0.00  0.00    +0.019 A 
ATOM     38  C   UNL     1       8.863   6.344  10.504  0.00  0.00    +0.120 A 
ATOM     39  N   UNL     1       9.776   7.392  10.580  0.00  0.00    -0.263 NA
ATOM     40  C   UNL     1      10.651   7.707   9.530  0.00  0.00    +0.111 A 
ENDBRANCH   4   3
ENDBRANCH  10   9
BRANCH  12  13
ATOM     13  N   UNL     1       3.102  -0.737  12.764  0.00  0.00    -0.281 N 
ATOM     14  C   UNL     1       3.423  -0.881  14.103  0.00  0.00    +0.248 C 
ATOM     30  O   UNL     1       3.832   0.023  14.817  0.00  0.00    -0.270 OA
ATOM     31  H   UNL     1       2.962  -1.602  12.241  0.00  0.00    +0.155 HD
BRANCH  14  15
ATOM     15  C   UNL     1       3.283  -2.227  14.739  0.00  0.00    +0.037 A 
ATOM     16  C   UNL     1       3.436  -3.456  13.957  0.00  0.00    +0.013 A 
ATOM     17  C   UNL     1       3.279  -4.741  14.591  0.00  0.00    +0.005 A 
ATOM     18  C   UNL     1       2.968  -4.802  16.017  0.00  0.00    -0.033 A 
ATOM     28  C   UNL     1       2.827  -3.567  16.770  0.00  0.00    +0.005 A 
ATOM     29  C   UNL     1       2.979  -2.306  16.152  0.00  0.00    +0.013 A 
BRANCH  18  19
ATOM     19  C   UNL     1       2.762  -6.129  16.772  0.00  0.00    +0.119 C 
BRANCH  19  20
ATOM     20  N   UNL     1       3.914  -7.079  16.812  0.00  0.00    -0.302 NA
ATOM     21  C   UNL     1       3.464  -8.535  16.667  0.00  0.00    +0.066 C 
ATOM     22  C   UNL     1       4.684  -9.513  16.688  0.00  0.00    -0.064 C 
ATOM     23  N   UNL     1       5.469  -9.316  17.986  0.00  0.00    +0.379 N 
ATOM     24  C   UNL     1       6.583 -10.274  18.036  0.00  0.00    -0.096 C 
ATOM     25  H   UNL     1       4.784  -9.549  18.834  0.00  0.00    -0.082 HD
ATOM     26  C   UNL     1       5.918  -7.870  18.140  0.00  0.00    -0.064 C 
ATOM     27  C   UNL     1       4.702  -6.904  18.088  0.00  0.00    +0.066 C 
ENDBRANCH  19  20
ENDBRANCH  18  19
ENDBRANCH  14  15
ENDBRANCH  12  13
TORSDOF 6
ENDMDL
MODEL 4
REMARK VINA RESULT:     -10.1      2.529     12.068
REMARK  Name = C:\Users\Docking\Desktop\test protocol\1iep_ligandH.pdb
REMARK  8 active torsions:
REMARK  status: ('A' for Active; 'I' for Inactive)
REMARK    1  A    between atoms: _5  and  _11
REMARK    2  A    between atoms: _19  and  _21
REMARK    3  A    between atoms: _22  and  _66
REMARK    4  A    between atoms: _27  and  _30
REMARK    5  A    between atoms: _32  and  _33
REMARK    6  A    between atoms: _38  and  _43
REMARK    7  A    between atoms: _43  and  _46
REMARK    8  A    between atoms: _53  and  _55
REMARK                            x       y       z     vdW  Elec       q    Type
REMARK                         _______ _______ _______ _____ _____    ______ ____
ROOT
ATOM     10  C   UNL     1       2.800   1.684  11.538  0.00  0.00    +0.038 A 
ATOM     11  C   UNL     1       4.036   2.379  11.590  0.00  0.00    +0.047 A 
ATOM     12  C   UNL     1       4.247   3.597  10.823  0.00  0.00    +0.035 A 
ATOM     32  C   UNL     1       3.177   4.081  10.015  0.00  0.00    +0.024 A 
ATOM     33  C   UNL     1       1.915   3.386   9.949  0.00  0.00    +0.007 A 
ATOM     34  C   UNL     1       1.702   2.183  10.702  0.00  0.00    -0.029 A 
ATOM     35  C   UNL     1       0.331   1.476  10.588  0.00  0.00    +0.045 C 
ENDROOT
BRANCH  10   9
ATOM      4  C   UNL     1       4.515  -2.378  13.435  0.00  0.00    +0.077 A 
ATOM      5  C   UNL     1       5.808  -2.176  12.847  0.00  0.00    +0.048 A 
ATOM      6  C   UNL     1       5.988  -1.019  12.057  0.00  0.00    +0.116 A 
ATOM      7  N   UNL     1       4.946  -0.135  11.876  0.00  0.00    -0.223 NA
ATOM      8  C   UNL     1       3.712  -0.360  12.456  0.00  0.00    +0.220 A 
ATOM      9  N   UNL     1       2.652   0.520  12.295  0.00  0.00    -0.283 N 
ATOM     36  H   UNL     1       1.755   0.314  12.733  0.00  0.00    +0.155 HD
ATOM     37  N   UNL     1       3.514  -1.459  13.214  0.00  0.00    -0.214 NA
BRANCH   4   3
ATOM      1  C   UNL     1       2.544  -5.239  15.231  0.00  0.00    +0.020 A 
ATOM      2  C   UNL     1       2.824  -4.104  14.382  0.00  0.00    +0.013 A 
ATOM      3  C   UNL     1       4.170  -3.551  14.298  0.00  0.00    +0.019 A 
ATOM     38  C   UNL     1       5.218  -4.175  15.092  0.00  0.00    +0.120 A 
ATOM     39  N   UNL     1       4.918  -5.266  15.901  0.00  0.00    -0.263 NA
ATOM     40  C   UNL     1       3.627  -5.806  15.991  0.00  0.00    +0.111 A 
ENDBRANCH   4   3
ENDBRANCH  10   9
BRANCH  12  13
ATOM     13  N   UNL     1       5.482   4.341  10.830  0.00  0.00    -0.281 N 
ATOM     14  C   UNL     1       6.671   4.023  10.195  0.00  0.00    +0.248 C 
ATOM     30  O   UNL     1       6.919   2.935   9.696  0.00  0.00    -0.270 OA
ATOM     31  H   UNL     1       5.479   5.207  11.369  0.00  0.00    +0.155 HD
BRANCH  14  15
ATOM     15  C   UNL     1       7.747   5.058  10.115  0.00  0.00    +0.037 A 
ATOM     16  C   UNL     1       8.490   5.288   8.873  0.00  0.00    +0.013 A 
ATOM     17  C   UNL     1       9.534   6.281   8.828  0.00  0.00    +0.005 A 
ATOM     18  C   UNL     1       9.839   7.053  10.030  0.00  0.00    -0.033 A 
ATOM     28  C   UNL     1       9.083   6.808  11.247  0.00  0.00    +0.005 A 
ATOM     29  C   UNL     1       8.060   5.835  11.295  0.00  0.00    +0.013 A 
BRANCH  18  19
ATOM     19  C   UNL     1      10.951   8.118  10.080  0.00  0.00    +0.119 C 
BRANCH  19  20
ATOM     20  N   UNL     1      12.351   7.658   9.836  0.00  0.00    -0.302 NA
ATOM     21  C   UNL     1      13.317   8.160  10.912  0.00  0.00    +0.066 C 
ATOM     22  C   UNL     1      14.772   7.650  10.654  0.00  0.00    -0.064 C 
ATOM     23  N   UNL     1      15.228   8.100   9.265  0.00  0.00    +0.379 N 
ATOM     24  C   UNL     1      16.616   7.672   9.042  0.00  0.00    -0.096 C 
ATOM     25  H   UNL     1      15.210   9.215   9.248  0.00  0.00    -0.082 HD
ATOM     26  C   UNL     1      14.271   7.607   8.188  0.00  0.00    -0.064 C 
ATOM     27  C   UNL     1      12.823   8.095   8.471  0.00  0.00    +0.066 C 
ENDBRANCH  19  20
ENDBRANCH  18  19
ENDBRANCH  14  15
ENDBRANCH  12  13
TORSDOF 6
ENDMDL
MODEL 5
REMARK VINA RESULT:      -9.9      2.748     12.959
REMARK  Name = C:\Users\Docking\Desktop\test protocol\1iep_ligandH.pdb
REMARK  8 active torsions:
REMARK  status: ('A' for Active; 'I' for Inactive)
REMARK    1  A    between atoms: _5  and  _11
REMARK    2  A    between atoms: _19  and  _21
REMARK    3  A    between atoms: _22  and  _66
REMARK    4  A    between atoms: _27  and  _30
REMARK    5  A    between atoms: _32  and  _33
REMARK    6  A    between atoms: _38  and  _43
REMARK    7  A    between atoms: _43  and  _46
REMARK    8  A    between atoms: _53  and  _55
REMARK                            x       y       z     vdW  Elec       q    Type
REMARK                         _______ _______ _______ _____ _____    ______ ____
ROOT
ATOM     10  C   UNL     1       4.552  -5.907  16.897  0.00  0.00    +0.038 A 
ATOM     11  C   UNL     1       4.986  -5.044  15.858  0.00  0.00    +0.047 A 
ATOM     12  C   UNL     1       4.261  -3.824  15.541  0.00  0.00    +0.035 A 
ATOM     32  C   UNL     1       3.098  -3.512  16.304  0.00  0.00    +0.024 A 
ATOM     33  C   UNL     1       2.642  -4.378  17.363  0.00  0.00    +0.007 A 
ATOM     34  C   UNL     1       3.353  -5.584  17.679  0.00  0.00    -0.029 A 
ATOM     35  C   UNL     1       2.815  -6.478  18.820  0.00  0.00    +0.045 C 
ENDROOT
BRANCH  10   9
ATOM      4  C   UNL     1       8.574  -8.155  18.245  0.00  0.00    +0.077 A 
ATOM      5  C   UNL     1       9.278  -6.917  18.416  0.00  0.00    +0.048 A 
ATOM      6  C   UNL     1       8.572  -5.724  18.140  0.00  0.00    +0.116 A 
ATOM      7  N   UNL     1       7.259  -5.778  17.725  0.00  0.00    -0.223 NA
ATOM      8  C   UNL     1       6.610  -6.989  17.568  0.00  0.00    +0.220 A 
ATOM      9  N   UNL     1       5.287  -7.066  17.159  0.00  0.00    -0.283 N 
ATOM     36  H   UNL     1       4.846  -7.978  17.049  0.00  0.00    +0.155 HD
ATOM     37  N   UNL     1       7.263  -8.141  17.824  0.00  0.00    -0.214 NA
BRANCH   4   3
ATOM      1  C   UNL     1      10.080 -11.728  17.735  0.00  0.00    +0.020 A 
ATOM      2  C   UNL     1       9.492 -10.443  17.435  0.00  0.00    +0.013 A 
ATOM      3  C   UNL     1       9.183  -9.498  18.500  0.00  0.00    +0.019 A 
ATOM     38  C   UNL     1       9.484  -9.887  19.870  0.00  0.00    +0.120 A 
ATOM     39  N   UNL     1      10.049 -11.132  20.129  0.00  0.00    -0.263 NA
ATOM     40  C   UNL     1      10.350 -12.050  19.112  0.00  0.00    +0.111 A 
ENDBRANCH   4   3
ENDBRANCH  10   9
BRANCH  12  13
ATOM     13  N   UNL     1       4.649  -2.914  14.492  0.00  0.00    -0.281 N 
ATOM     14  C   UNL     1       5.106  -1.613  14.620  0.00  0.00    +0.248 C 
ATOM     30  O   UNL     1       5.048  -0.958  15.650  0.00  0.00    -0.270 OA
ATOM     31  H   UNL     1       4.578  -3.273  13.540  0.00  0.00    +0.155 HD
BRANCH  14  15
ATOM     15  C   UNL     1       5.701  -0.936  13.428  0.00  0.00    +0.037 A 
ATOM     16  C   UNL     1       7.096  -1.163  13.043  0.00  0.00    +0.013 A 
ATOM     17  C   UNL     1       7.650  -0.484  11.898  0.00  0.00    +0.005 A 
ATOM     18  C   UNL     1       6.807   0.427  11.129  0.00  0.00    -0.033 A 
ATOM     28  C   UNL     1       5.424   0.629  11.529  0.00  0.00    +0.005 A 
ATOM     29  C   UNL     1       4.878  -0.033  12.651  0.00  0.00    +0.013 A 
BRANCH  18  19
ATOM     19  C   UNL     1       7.320   1.210   9.905  0.00  0.00    +0.119 C 
BRANCH  19  20
ATOM     20  N   UNL     1       6.340   2.082   9.191  0.00  0.00    -0.302 NA
ATOM     21  C   UNL     1       6.439   1.932   7.671  0.00  0.00    +0.066 C 
ATOM     22  C   UNL     1       5.392   2.835   6.941  0.00  0.00    -0.064 C 
ATOM     23  N   UNL     1       5.602   4.292   7.356  0.00  0.00    +0.379 N 
ATOM     24  C   UNL     1       4.657   5.151   6.627  0.00  0.00    -0.096 C 
ATOM     25  H   UNL     1       6.632   4.587   7.049  0.00  0.00    -0.082 HD
ATOM     26  C   UNL     1       5.507   4.450   8.867  0.00  0.00    -0.064 C 
ATOM     27  C   UNL     1       6.532   3.526   9.584  0.00  0.00    +0.066 C 
ENDBRANCH  19  20
ENDBRANCH  18  19
ENDBRANCH  14  15
ENDBRANCH  12  13
TORSDOF 6
ENDMDL
