MODEL 1
REMARK VINA RESULT:     -10.3      0.000      0.000
REMARK  Name = C:\Users\Docking\Desktop\test protocol\1iep_ligandH.pdb
REMARK  8 active torsions:
REMARK  status: ('A' for Active; 'I' for Inactive)
REMARK    1  A    between atoms: _5  and  _11
REMARK    2  A    between atoms: _19  and  _21
REMARK    3  A    between atoms: _22  and  _66
REMARK    4  A    between atoms: _27  and  _30
REMARK    5  A    between atoms: _32  and  _33
REMARK    6  A    between atoms: _38  and  _43
REMARK    7  A    between atoms: _43  and  _46
REMARK    8  A    between atoms: _53  and  _55
REMARK                            x       y       z     vdW  Elec       q    Type
REMARK                         _______ _______ _______ _____ _____    ______ ____
ROOT
ATOM     10  C   UNL     1       3.734  -0.991  10.730  0.00  0.00    +0.038 A 
ATOM     11  C   UNL     1       3.938  -1.926  11.778  0.00  0.00    +0.047 A 
ATOM     12  C   UNL     1       3.336  -1.731  13.087  0.00  0.00    +0.035 A 
ATOM     32  C   UNL     1       2.529  -0.574  13.295  0.00  0.00    +0.024 A 
ATOM     33  C   UNL     1       2.312   0.386  12.242  0.00  0.00    +0.007 A 
ATOM     34  C   UNL     1       2.906   0.201  10.949  0.00  0.00    -0.029 A 
ATOM     35  C   UNL     1       2.645   1.267   9.859  0.00  0.00    +0.045 C 
ENDROOT
BRANCH  10   9
ATOM      4  C   UNL     1       7.593  -1.339   7.898  0.00  0.00    +0.077 A 
ATOM      5  C   UNL     1       8.483  -0.995   8.969  0.00  0.00    +0.048 A 
ATOM      6  C   UNL     1       7.907  -0.728  10.232  0.00  0.00    +0.116 A 
ATOM      7  N   UNL     1       6.542  -0.804  10.399  0.00  0.00    -0.223 NA
ATOM      8  C   UNL     1       5.711  -1.138   9.345  0.00  0.00    +0.220 A 
ATOM      9  N   UNL     1       4.336  -1.228   9.493  0.00  0.00    -0.283 N 
ATOM     36  H   UNL     1       3.757  -1.469   8.689  0.00  0.00    +0.155 HD
ATOM     37  N   UNL     1       6.237  -1.395   8.129  0.00  0.00    -0.214 NA
BRANCH   4   3
ATOM      1  C   UNL     1       9.275  -3.076   4.823  0.00  0.00    +0.020 A 
ATOM      2  C   UNL     1       8.860  -2.819   6.183  0.00  0.00    +0.013 A 
ATOM      3  C   UNL     1       8.050  -1.652   6.507  0.00  0.00    +0.019 A 
ATOM     38  C   UNL     1       7.674  -0.756   5.424  0.00  0.00    +0.120 A 
ATOM     39  N   UNL     1       8.090  -1.027   4.124  0.00  0.00    -0.263 NA
ATOM     40  C   UNL     1       8.870  -2.147   3.800  0.00  0.00    +0.111 A 
ENDBRANCH   4   3
ENDBRANCH  10   9
BRANCH  12  13
ATOM     13  N   UNL     1       3.513  -2.642  14.191  0.00  0.00    -0.281 N 
ATOM     14  C   UNL     1       2.577  -3.496  14.750  0.00  0.00    +0.248 C 
ATOM     30  O   UNL     1       1.377  -3.452  14.521  0.00  0.00    -0.270 OA
ATOM     31  H   UNL     1       4.443  -2.659  14.612  0.00  0.00    +0.155 HD
BRANCH  14  15
ATOM     15  C   UNL     1       3.038  -4.542  15.713  0.00  0.00    +0.037 A 
ATOM     16  C   UNL     1       3.049  -4.293  17.157  0.00  0.00    +0.013 A 
ATOM     17  C   UNL     1       3.514  -5.313  18.063  0.00  0.00    +0.005 A 
ATOM     18  C   UNL     1       3.971  -6.593  17.527  0.00  0.00    -0.033 A 
ATOM     28  C   UNL     1       3.945  -6.815  16.091  0.00  0.00    +0.005 A 
ATOM     29  C   UNL     1       3.490  -5.817  15.199  0.00  0.00    +0.013 A 
BRANCH  18  19
ATOM     19  C   UNL     1       4.504  -7.731  18.418  0.00  0.00    +0.119 C 
BRANCH  19  20
ATOM     20  N   UNL     1       5.895  -8.208  18.159  0.00  0.00    -0.302 NA
ATOM     21  C   UNL     1       6.186  -9.539  18.858  0.00  0.00    +0.066 C 
ATOM     22  C   UNL     1       7.638 -10.034  18.558  0.00  0.00    -0.064 C 
ATOM     23  N   UNL     1       8.640  -8.964  18.993  0.00  0.00    +0.379 N 
ATOM     24  C   UNL     1      10.008  -9.451  18.766  0.00  0.00    -0.096 C 
ATOM     25  H   UNL     1       8.513  -8.809  20.090  0.00  0.00    -0.082 HD
ATOM     26  C   UNL     1       8.356  -7.636  18.305  0.00  0.00    -0.064 C 
ATOM     27  C   UNL     1       6.901  -7.167  18.585  0.00  0.00    +0.066 C 
ENDBRANCH  19  20
ENDBRANCH  18  19
ENDBRANCH  14  15
ENDBRANCH  12  13
TORSDOF 6
ENDMDL
MODEL 2
REMARK VINA RESULT:      -9.7      3.023     12.032
REMARK  Name = C:\Users\Docking\Desktop\test protocol\1iep_ligandH.pdb
REMARK  8 active torsions:
REMARK  status: ('A' for Active; 'I' for Inactive)
REMARK    1  A    between atoms: _5  and  _11
REMARK    2  A    between atoms: _19  and  _21
REMARK    3  A    between atoms: _22  and  _66
REMARK    4  A    between atoms: _27  and  _30
REMARK    5  A    between atoms: _32  and  _33
REMARK    6  A    between atoms: _38  and  _43
REMARK    7  A    between atoms: _43  and  _46
REMARK    8  A    between atoms: _53  and  _55
REMARK                            x       y       z     vdW  Elec       q    Type
REMARK                         _______ _______ _______ _____ _____    ______ ____
ROOT
ATOM     10  C   UNL     1       6.096  -1.711  13.578  0.00  0.00    +0.038 A 
ATOM     11  C   UNL     1       6.723  -2.123  12.375  0.00  0.00    +0.047 A 
ATOM     12  C   UNL     1       6.792  -1.239  11.221  0.00  0.00    +0.035 A 
ATOM     32  C   UNL     1       6.215   0.060  11.330  0.00  0.00    +0.024 A 
ATOM     33  C   UNL     1       5.573   0.494  12.545  0.00  0.00    +0.007 A 
ATOM     34  C   UNL     1       5.499  -0.374  13.685  0.00  0.00    -0.029 A 
ATOM     35  C   UNL     1       4.793   0.143  14.960  0.00  0.00    +0.045 C 
ENDROOT
BRANCH  10   9
ATOM      4  C   UNL     1       3.938  -5.118  16.180  0.00  0.00    +0.077 A 
ATOM      5  C   UNL     1       2.775  -5.107  15.339  0.00  0.00    +0.048 A 
ATOM      6  C   UNL     1       2.770  -4.204  14.252  0.00  0.00    +0.116 A 
ATOM      7  N   UNL     1       3.852  -3.380  14.031  0.00  0.00    -0.223 NA
ATOM      8  C   UNL     1       4.956  -3.415  14.862  0.00  0.00    +0.220 A 
ATOM      9  N   UNL     1       6.059  -2.600  14.655  0.00  0.00    -0.283 N 
ATOM     36  H   UNL     1       6.851  -2.651  15.295  0.00  0.00    +0.155 HD
ATOM     37  N   UNL     1       4.985  -4.267  15.908  0.00  0.00    -0.214 NA
BRANCH   4   3
ATOM      1  C   UNL     1       3.651  -6.650  19.768  0.00  0.00    +0.020 A 
ATOM      2  C   UNL     1       3.468  -5.748  18.654  0.00  0.00    +0.013 A 
ATOM      3  C   UNL     1       4.095  -6.018  17.366  0.00  0.00    +0.019 A 
ATOM     38  C   UNL     1       4.907  -7.219  17.237  0.00  0.00    +0.120 A 
ATOM     39  N   UNL     1       5.067  -8.068  18.328  0.00  0.00    -0.263 NA
ATOM     40  C   UNL     1       4.470  -7.818  19.572  0.00  0.00    +0.111 A 
ENDBRANCH   4   3
ENDBRANCH  10   9
BRANCH  12  13
ATOM     13  N   UNL     1       7.409  -1.605   9.970  0.00  0.00    -0.281 N 
ATOM     14  C   UNL     1       8.747  -1.868   9.725  0.00  0.00    +0.248 C 
ATOM     30  O   UNL     1       9.654  -1.618  10.504  0.00  0.00    -0.270 OA
ATOM     31  H   UNL     1       6.783  -1.680   9.168  0.00  0.00    +0.155 HD
BRANCH  14  15
ATOM     15  C   UNL     1       9.134  -2.484   8.420  0.00  0.00    +0.037 A 
ATOM     16  C   UNL     1      10.221  -3.463   8.334  0.00  0.00    +0.013 A 
ATOM     17  C   UNL     1      10.585  -4.030   7.060  0.00  0.00    +0.005 A 
ATOM     18  C   UNL     1       9.861  -3.618   5.860  0.00  0.00    -0.033 A 
ATOM     28  C   UNL     1       8.784  -2.649   5.974  0.00  0.00    +0.005 A 
ATOM     29  C   UNL     1       8.424  -2.091   7.221  0.00  0.00    +0.013 A 
BRANCH  18  19
ATOM     19  C   UNL     1      10.196  -4.155   4.455  0.00  0.00    +0.119 C 
BRANCH  19  20
ATOM     20  N   UNL     1      11.501  -3.740   3.858  0.00  0.00    -0.302 NA
ATOM     21  C   UNL     1      11.798  -2.258   4.101  0.00  0.00    +0.066 C 
ATOM     22  C   UNL     1      13.177  -1.847   3.490  0.00  0.00    -0.064 C 
ATOM     23  N   UNL     1      13.183  -2.162   1.993  0.00  0.00    +0.379 N 
ATOM     24  C   UNL     1      14.456  -1.724   1.404  0.00  0.00    -0.096 C 
ATOM     25  H   UNL     1      12.368  -1.567   1.519  0.00  0.00    -0.082 HD
ATOM     26  C   UNL     1      12.885  -3.634   1.743  0.00  0.00    -0.064 C 
ATOM     27  C   UNL     1      11.526  -4.039   2.380  0.00  0.00    +0.066 C 
ENDBRANCH  19  20
ENDBRANCH  18  19
ENDBRANCH  14  15
ENDBRANCH  12  13
TORSDOF 6
ENDMDL
MODEL 3
REMARK VINA RESULT:      -9.7      3.532     11.679
REMARK  Name = C:\Users\Docking\Desktop\test protocol\1iep_ligandH.pdb
REMARK  8 active torsions:
REMARK  status: ('A' for Active; 'I' for Inactive)
REMARK    1  A    between atoms: _5  and  _11
REMARK    2  A    between atoms: _19  and  _21
REMARK    3  A    between atoms: _22  and  _66
REMARK    4  A    between atoms: _27  and  _30
REMARK    5  A    between atoms: _32  and  _33
REMARK    6  A    between atoms: _38  and  _43
REMARK    7  A    between atoms: _43  and  _46
REMARK    8  A    between atoms: _53  and  _55
REMARK                            x       y       z     vdW  Elec       q    Type
REMARK                         _______ _______ _______ _____ _____    ______ ____
ROOT
ATOM     10  C   UNL     1       4.590  -6.685  17.337  0.00  0.00    +0.038 A 
ATOM     11  C   UNL     1       4.684  -5.871  16.180  0.00  0.00    +0.047 A 
ATOM     12  C   UNL     1       4.014  -4.582  16.109  0.00  0.00    +0.035 A 
ATOM     32  C   UNL     1       3.257  -4.152  17.238  0.00  0.00    +0.024 A 
ATOM     33  C   UNL     1       3.150  -4.967  18.423  0.00  0.00    +0.007 A 
ATOM     34  C   UNL     1       3.807  -6.241  18.497  0.00  0.00    -0.029 A 
ATOM     35  C   UNL     1       3.652  -7.076  19.789  0.00  0.00    +0.045 C 
ENDROOT
BRANCH  10   9
ATOM      4  C   UNL     1       8.486  -9.383  18.103  0.00  0.00    +0.077 A 
ATOM      5  C   UNL     1       9.272  -8.244  18.484  0.00  0.00    +0.048 A 
ATOM      6  C   UNL     1       8.638  -6.982  18.462  0.00  0.00    +0.116 A 
ATOM      7  N   UNL     1       7.316  -6.877  18.087  0.00  0.00    -0.223 NA
ATOM      8  C   UNL     1       6.587  -7.995  17.724  0.00  0.00    +0.220 A 
ATOM      9  N   UNL     1       5.254  -7.914  17.350  0.00  0.00    -0.283 N 
ATOM     36  H   UNL     1       4.754  -8.761  17.082  0.00  0.00    +0.155 HD
ATOM     37  N   UNL     1       7.170  -9.212  17.735  0.00  0.00    -0.214 NA
BRANCH   4   3
ATOM      1  C   UNL     1       9.245 -13.067  17.031  0.00  0.00    +0.020 A 
ATOM      2  C   UNL     1       8.710 -11.725  17.008  0.00  0.00    +0.013 A 
ATOM      3  C   UNL     1       9.013 -10.784  18.078  0.00  0.00    +0.019 A 
ATOM     38  C   UNL     1       9.866 -11.235  19.167  0.00  0.00    +0.120 A 
ATOM     39  N   UNL     1      10.366 -12.534  19.164  0.00  0.00    -0.263 NA
ATOM     40  C   UNL     1      10.080 -13.449  18.140  0.00  0.00    +0.111 A 
ENDBRANCH   4   3
ENDBRANCH  10   9
BRANCH  12  13
ATOM     13  N   UNL     1       4.067  -3.716  14.958  0.00  0.00    -0.281 N 
ATOM     14  C   UNL     1       3.007  -3.151  14.268  0.00  0.00    +0.248 C 
ATOM     30  O   UNL     1       1.838  -3.478  14.408  0.00  0.00    -0.270 OA
ATOM     31  H   UNL     1       4.999  -3.493  14.609  0.00  0.00    +0.155 HD
BRANCH  14  15
ATOM     15  C   UNL     1       3.288  -2.076  13.268  0.00  0.00    +0.037 A 
ATOM     16  C   UNL     1       3.995  -2.368  12.018  0.00  0.00    +0.013 A 
ATOM     17  C   UNL     1       4.268  -1.310  11.078  0.00  0.00    +0.005 A 
ATOM     18  C   UNL     1       3.831   0.050  11.384  0.00  0.00    -0.033 A 
ATOM     28  C   UNL     1       3.127   0.311  12.628  0.00  0.00    +0.005 A 
ATOM     29  C   UNL     1       2.858  -0.724  13.553  0.00  0.00    +0.013 A 
BRANCH  18  19
ATOM     19  C   UNL     1       4.098   1.245  10.449  0.00  0.00    +0.119 C 
BRANCH  19  20
ATOM     20  N   UNL     1       4.952   2.350  10.977  0.00  0.00    -0.302 NA
ATOM     21  C   UNL     1       4.551   3.711  10.402  0.00  0.00    +0.066 C 
ATOM     22  C   UNL     1       5.440   4.859  10.983  0.00  0.00    -0.064 C 
ATOM     23  N   UNL     1       6.911   4.559  10.690  0.00  0.00    +0.379 N 
ATOM     24  C   UNL     1       7.745   5.664  11.185  0.00  0.00    -0.096 C 
ATOM     25  H   UNL     1       7.033   4.512   9.583  0.00  0.00    -0.082 HD
ATOM     26  C   UNL     1       7.317   3.206  11.257  0.00  0.00    -0.064 C 
ATOM     27  C   UNL     1       6.409   2.076  10.696  0.00  0.00    +0.066 C 
ENDBRANCH  19  20
ENDBRANCH  18  19
ENDBRANCH  14  15
ENDBRANCH  12  13
TORSDOF 6
ENDMDL
MODEL 4
REMARK VINA RESULT:      -9.5      3.915      6.556
REMARK  Name = C:\Users\Docking\Desktop\test protocol\1iep_ligandH.pdb
REMARK  8 active torsions:
REMARK  status: ('A' for Active; 'I' for Inactive)
REMARK    1  A    between atoms: _5  and  _11
REMARK    2  A    between atoms: _19  and  _21
REMARK    3  A    between atoms: _22  and  _66
REMARK    4  A    between atoms: _27  and  _30
REMARK    5  A    between atoms: _32  and  _33
REMARK    6  A    between atoms: _38  and  _43
REMARK    7  A    between atoms: _43  and  _46
REMARK    8  A    between atoms: _53  and  _55
REMARK                            x       y       z     vdW  Elec       q    Type
REMARK                         _______ _______ _______ _____ _____    ______ ____
ROOT
ATOM     10  C   UNL     1       8.151  -2.815  11.187  0.00  0.00    +0.038 A 
ATOM     11  C   UNL     1       8.337  -3.609  12.348  0.00  0.00    +0.047 A 
ATOM     12  C   UNL     1       9.546  -4.395  12.535  0.00  0.00    +0.035 A 
ATOM     32  C   UNL     1      10.547  -4.347  11.521  0.00  0.00    +0.024 A 
ATOM     33  C   UNL     1      10.374  -3.547  10.335  0.00  0.00    +0.007 A 
ATOM     34  C   UNL     1       9.182  -2.771  10.144  0.00  0.00    -0.029 A 
ATOM     35  C   UNL     1       9.047  -1.935   8.849  0.00  0.00    +0.045 C 
ENDROOT
BRANCH  10   9
ATOM      4  C   UNL     1       5.700   1.311  11.304  0.00  0.00    +0.077 A 
ATOM      5  C   UNL     1       6.864   2.060  11.679  0.00  0.00    +0.048 A 
ATOM      6  C   UNL     1       8.073   1.345  11.838  0.00  0.00    +0.116 A 
ATOM      7  N   UNL     1       8.103  -0.017  11.635  0.00  0.00    -0.223 NA
ATOM      8  C   UNL     1       6.962  -0.710  11.276  0.00  0.00    +0.220 A 
ATOM      9  N   UNL     1       6.971  -2.079  11.059  0.00  0.00    -0.283 N 
ATOM     36  H   UNL     1       6.106  -2.555  10.802  0.00  0.00    +0.155 HD
ATOM     37  N   UNL     1       5.795  -0.051  11.119  0.00  0.00    -0.214 NA
BRANCH   4   3
ATOM      1  C   UNL     1       2.837   3.876  10.581  0.00  0.00    +0.020 A 
ATOM      2  C   UNL     1       4.162   3.333  10.775  0.00  0.00    +0.013 A 
ATOM      3  C   UNL     1       4.351   1.924  11.094  0.00  0.00    +0.019 A 
ATOM     38  C   UNL     1       3.168   1.083  11.210  0.00  0.00    +0.120 A 
ATOM     39  N   UNL     1       1.905   1.634  11.020  0.00  0.00    -0.263 NA
ATOM     40  C   UNL     1       1.711   2.989  10.714  0.00  0.00    +0.111 A 
ENDBRANCH   4   3
ENDBRANCH  10   9
BRANCH  12  13
ATOM     13  N   UNL     1       9.787  -5.226  13.689  0.00  0.00    -0.281 N 
ATOM     14  C   UNL     1       9.936  -4.830  15.008  0.00  0.00    +0.248 C 
ATOM     30  O   UNL     1      10.097  -3.673  15.368  0.00  0.00    -0.270 OA
ATOM     31  H   UNL     1       9.857  -6.228  13.511  0.00  0.00    +0.155 HD
BRANCH  14  15
ATOM     15  C   UNL     1       9.917  -5.870  16.081  0.00  0.00    +0.037 A 
ATOM     16  C   UNL     1       8.674  -6.544  16.464  0.00  0.00    +0.013 A 
ATOM     17  C   UNL     1       8.680  -7.531  17.514  0.00  0.00    +0.005 A 
ATOM     18  C   UNL     1       9.936  -7.853  18.187  0.00  0.00    -0.033 A 
ATOM     28  C   UNL     1      11.156  -7.173  17.783  0.00  0.00    +0.005 A 
ATOM     29  C   UNL     1      11.153  -6.204  16.755  0.00  0.00    +0.013 A 
BRANCH  18  19
ATOM     19  C   UNL     1      10.033  -8.878  19.333  0.00  0.00    +0.119 C 
BRANCH  19  20
ATOM     20  N   UNL     1       9.529 -10.257  19.060  0.00  0.00    -0.302 NA
ATOM     21  C   UNL     1       9.508 -11.121  20.324  0.00  0.00    +0.066 C 
ATOM     22  C   UNL     1       8.957 -12.553  20.026  0.00  0.00    -0.064 C 
ATOM     23  N   UNL     1       9.809 -13.207  18.937  0.00  0.00    +0.379 N 
ATOM     24  C   UNL     1       9.329 -14.576  18.694  0.00  0.00    -0.096 C 
ATOM     25  H   UNL     1      10.853 -13.278  19.321  0.00  0.00    -0.082 HD
ATOM     26  C   UNL     1       9.838 -12.354  17.677  0.00  0.00    -0.064 C 
ATOM     27  C   UNL     1      10.359 -10.923  17.991  0.00  0.00    +0.066 C 
ENDBRANCH  19  20
ENDBRANCH  18  19
ENDBRANCH  14  15
ENDBRANCH  12  13
TORSDOF 6
ENDMDL
MODEL 5
REMARK VINA RESULT:      -9.5      2.942     11.467
REMARK  Name = C:\Users\Docking\Desktop\test protocol\1iep_ligandH.pdb
REMARK  8 active torsions:
REMARK  status: ('A' for Active; 'I' for Inactive)
REMARK    1  A    between atoms: _5  and  _11
REMARK    2  A    between atoms: _19  and  _21
REMARK    3  A    between atoms: _22  and  _66
REMARK    4  A    between atoms: _27  and  _30
REMARK    5  A    between atoms: _32  and  _33
REMARK    6  A    between atoms: _38  and  _43
REMARK    7  A    between atoms: _43  and  _46
REMARK    8  A    between atoms: _53  and  _55
REMARK                            x       y       z     vdW  Elec       q    Type
REMARK                         _______ _______ _______ _____ _____    ______ ____
ROOT
ATOM     10  C   UNL     1       4.035  -1.827  11.537  0.00  0.00    +0.038 A 
ATOM     11  C   UNL     1       4.803  -2.014  10.359  0.00  0.00    +0.047 A 
ATOM     12  C   UNL     1       4.955  -0.946   9.383  0.00  0.00    +0.035 A 
ATOM     32  C   UNL     1       4.313   0.301   9.640  0.00  0.00    +0.024 A 
ATOM     33  C   UNL     1       3.529   0.507  10.832  0.00  0.00    +0.007 A 
ATOM     34  C   UNL     1       3.373  -0.543  11.797  0.00  0.00    -0.029 A 
ATOM     35  C   UNL     1       2.515  -0.267  13.054  0.00  0.00    +0.045 C 
ENDROOT
BRANCH  10   9
ATOM      4  C   UNL     1       5.439  -4.213  15.458  0.00  0.00    +0.077 A 
ATOM      5  C   UNL     1       6.503  -3.286  15.713  0.00  0.00    +0.048 A 
ATOM      6  C   UNL     1       6.660  -2.212  14.808  0.00  0.00    +0.116 A 
ATOM      7  N   UNL     1       5.810  -2.086  13.731  0.00  0.00    -0.223 NA
ATOM      8  C   UNL     1       4.795  -2.999  13.512  0.00  0.00    +0.220 A 
ATOM      9  N   UNL     1       3.923  -2.886  12.440  0.00  0.00    -0.283 N 
ATOM     36  H   UNL     1       3.192  -3.585  12.310  0.00  0.00    +0.155 HD
ATOM     37  N   UNL     1       4.625  -4.033  14.362  0.00  0.00    -0.214 NA
BRANCH   4   3
ATOM      1  C   UNL     1       3.686  -7.318  17.067  0.00  0.00    +0.020 A 
ATOM      2  C   UNL     1       3.923  -6.183  16.205  0.00  0.00    +0.013 A 
ATOM      3  C   UNL     1       5.144  -5.397  16.326  0.00  0.00    +0.019 A 
ATOM     38  C   UNL     1       6.114  -5.789  17.337  0.00  0.00    +0.120 A 
ATOM     39  N   UNL     1       5.858  -6.885  18.155  0.00  0.00    -0.263 NA
ATOM     40  C   UNL     1       4.686  -7.648  18.049  0.00  0.00    +0.111 A 
ENDBRANCH   4   3
ENDBRANCH  10   9
BRANCH  12  13
ATOM     13  N   UNL     1       5.715  -1.080   8.164  0.00  0.00    -0.281 N 
ATOM     14  C   UNL     1       7.038  -0.734   7.944  0.00  0.00    +0.248 C 
ATOM     30  O   UNL     1       7.711  -0.055   8.705  0.00  0.00    -0.270 OA
ATOM     31  H   UNL     1       5.217  -1.479   7.368  0.00  0.00    +0.155 HD
BRANCH  14  15
ATOM     15  C   UNL     1       7.705  -1.197   6.689  0.00  0.00    +0.037 A 
ATOM     16  C   UNL     1       7.583  -0.441   5.440  0.00  0.00    +0.013 A 
ATOM     17  C   UNL     1       8.223  -0.919   4.240  0.00  0.00    +0.005 A 
ATOM     18  C   UNL     1       8.993  -2.159   4.284  0.00  0.00    -0.033 A 
ATOM     28  C   UNL     1       9.102  -2.887   5.538  0.00  0.00    +0.005 A 
ATOM     29  C   UNL     1       8.475  -2.422   6.716  0.00  0.00    +0.013 A 
BRANCH  18  19
ATOM     19  C   UNL     1       9.692  -2.755   3.048  0.00  0.00    +0.119 C 
BRANCH  19  20
ATOM     20  N   UNL     1      10.341  -4.090   3.206  0.00  0.00    -0.302 NA
ATOM     21  C   UNL     1      11.860  -3.976   3.360  0.00  0.00    +0.066 C 
ATOM     22  C   UNL     1      12.520  -5.381   3.547  0.00  0.00    -0.064 C 
ATOM     23  N   UNL     1      12.162  -6.272   2.356  0.00  0.00    +0.379 N 
ATOM     24  C   UNL     1      12.829  -7.575   2.501  0.00  0.00    -0.096 C 
ATOM     25  H   UNL     1      12.564  -5.786   1.437  0.00  0.00    -0.082 HD
ATOM     26  C   UNL     1      10.653  -6.389   2.194  0.00  0.00    -0.064 C 
ATOM     27  C   UNL     1      10.004  -4.986   2.039  0.00  0.00    +0.066 C 
ENDBRANCH  19  20
ENDBRANCH  18  19
ENDBRANCH  14  15
ENDBRANCH  12  13
TORSDOF 6
ENDMDL
