MODEL 1
REMARK VINA RESULT:     -20.1      0.000      0.000
REMARK  Name = C:\Users\Docking\Desktop\test protocol\1iep_ligandH.pdb
REMARK  8 active torsions:
REMARK  status: ('A' for Active; 'I' for Inactive)
REMARK    1  A    between atoms: _5  and  _11
REMARK    2  A    between atoms: _19  and  _21
REMARK    3  A    between atoms: _22  and  _66
REMARK    4  A    between atoms: _27  and  _30
REMARK    5  A    between atoms: _32  and  _33
REMARK    6  A    between atoms: _38  and  _43
REMARK    7  A    between atoms: _43  and  _46
REMARK    8  A    between atoms: _53  and  _55
REMARK                            x       y       z     vdW  Elec       q    Type
REMARK                         _______ _______ _______ _____ _____    ______ ____
ROOT
ATOM     10  C   UNL     1       3.550   2.455  11.593  0.00  0.00    +0.038 A 
ATOM     11  C   UNL     1       3.681   1.319  12.433  0.00  0.00    +0.047 A 
ATOM     12  C   UNL     1       2.679   0.265  12.434  0.00  0.00    +0.035 A 
ATOM     32  C   UNL     1       1.558   0.397  11.564  0.00  0.00    +0.024 A 
ATOM     33  C   UNL     1       1.409   1.545  10.704  0.00  0.00    +0.007 A 
ATOM     34  C   UNL     1       2.393   2.590  10.701  0.00  0.00    -0.029 A 
ATOM     35  C   UNL     1       2.178   3.801   9.763  0.00  0.00    +0.045 C 
ENDROOT
BRANCH  10   9
ATOM      4  C   UNL     1       7.425   4.633   9.782  0.00  0.00    +0.077 A 
ATOM      5  C   UNL     1       7.495   3.720   8.677  0.00  0.00    +0.048 A 
ATOM      6  C   UNL     1       6.520   2.700   8.616  0.00  0.00    +0.116 A 
ATOM      7  N   UNL     1       5.551   2.609   9.592  0.00  0.00    -0.223 NA
ATOM      8  C   UNL     1       5.512   3.505  10.644  0.00  0.00    +0.220 A 
ATOM      9  N   UNL     1       4.542   3.437  11.632  0.00  0.00    -0.283 N 
ATOM     36  H   UNL     1       4.553   4.112  12.396  0.00  0.00    +0.155 HD
ATOM     37  N   UNL     1       6.434   4.487  10.726  0.00  0.00    -0.214 NA
BRANCH   4   3
ATOM      1  C   UNL     1       9.835   7.235  11.431  0.00  0.00    +0.020 A 
ATOM      2  C   UNL     1       8.912   6.133  11.291  0.00  0.00    +0.013 A 
ATOM      3  C   UNL     1       8.382   5.766   9.983  0.00  0.00    +0.019 A 
ATOM     38  C   UNL     1       8.811   6.542   8.829  0.00  0.00    +0.120 A 
ATOM     39  N   UNL     1       9.699   7.599   8.995  0.00  0.00    -0.263 NA
ATOM     40  C   UNL     1      10.214   7.962  10.248  0.00  0.00    +0.111 A 
ENDBRANCH   4   3
ENDBRANCH  10   9
BRANCH  12  13
ATOM     13  N   UNL     1       2.754  -0.907  13.271  0.00  0.00    -0.281 N 
ATOM     14  C   UNL     1       3.383  -2.110  12.997  0.00  0.00    +0.248 C 
ATOM     30  O   UNL     1       3.798  -2.438  11.895  0.00  0.00    -0.270 OA
ATOM     31  H   UNL     1       2.286  -0.841  14.175  0.00  0.00    +0.155 HD
BRANCH  14  15
ATOM     15  C   UNL     1       3.565  -3.098  14.104  0.00  0.00    +0.037 A 
ATOM     16  C   UNL     1       2.685  -4.263  14.235  0.00  0.00    +0.013 A 
ATOM     17  C   UNL     1       2.872  -5.191  15.322  0.00  0.00    +0.005 A 
ATOM     18  C   UNL     1       3.945  -4.959  16.286  0.00  0.00    -0.033 A 
ATOM     28  C   UNL     1       4.806  -3.799  16.129  0.00  0.00    +0.005 A 
ATOM     29  C   UNL     1       4.625  -2.886  15.065  0.00  0.00    +0.013 A 
BRANCH  18  19
ATOM     19  C   UNL     1       4.204  -5.886  17.488  0.00  0.00    +0.119 C 
BRANCH  19  20
ATOM     20  N   UNL     1       5.476  -6.667  17.488  0.00  0.00    -0.302 NA
ATOM     21  C   UNL     1       5.237  -8.155  17.761  0.00  0.00    +0.066 C 
ATOM     22  C   UNL     1       6.577  -8.960  17.735  0.00  0.00    -0.064 C 
ATOM     23  N   UNL     1       7.544  -8.370  18.762  0.00  0.00    +0.379 N 
ATOM     24  C   UNL     1       8.783  -9.161  18.781  0.00  0.00    -0.096 C 
ATOM     25  H   UNL     1       7.069  -8.461  19.766  0.00  0.00    -0.082 HD
ATOM     26  C   UNL     1       7.785  -6.890  18.499  0.00  0.00    -0.064 C 
ATOM     27  C   UNL     1       6.445  -6.103  18.498  0.00  0.00    +0.066 C 
ENDBRANCH  19  20
ENDBRANCH  18  19
ENDBRANCH  14  15
ENDBRANCH  12  13
TORSDOF 6
ENDMDL
MODEL 2
REMARK VINA RESULT:     -17.8      2.888      5.338
REMARK  Name = C:\Users\Docking\Desktop\test protocol\1iep_ligandH.pdb
REMARK  8 active torsions:
REMARK  status: ('A' for Active; 'I' for Inactive)
REMARK    1  A    between atoms: _5  and  _11
REMARK    2  A    between atoms: _19  and  _21
REMARK    3  A    between atoms: _22  and  _66
REMARK    4  A    between atoms: _27  and  _30
REMARK    5  A    between atoms: _32  and  _33
REMARK    6  A    between atoms: _38  and  _43
REMARK    7  A    between atoms: _43  and  _46
REMARK    8  A    between atoms: _53  and  _55
REMARK                            x       y       z     vdW  Elec       q    Type
REMARK                         _______ _______ _______ _____ _____    ______ ____
ROOT
ATOM     10  C   UNL     1       4.602  -1.870  13.234  0.00  0.00    +0.038 A 
ATOM     11  C   UNL     1       5.510  -2.845  13.722  0.00  0.00    +0.047 A 
ATOM     12  C   UNL     1       5.216  -3.614  14.922  0.00  0.00    +0.035 A 
ATOM     32  C   UNL     1       3.986  -3.366  15.598  0.00  0.00    +0.024 A 
ATOM     33  C   UNL     1       3.052  -2.379  15.117  0.00  0.00    +0.007 A 
ATOM     34  C   UNL     1       3.338  -1.615  13.936  0.00  0.00    -0.029 A 
ATOM     35  C   UNL     1       2.303  -0.565  13.469  0.00  0.00    +0.045 C 
ENDROOT
BRANCH  10   9
ATOM      4  C   UNL     1       6.988   1.605  10.940  0.00  0.00    +0.077 A 
ATOM      5  C   UNL     1       7.604   2.064  12.152  0.00  0.00    +0.048 A 
ATOM      6  C   UNL     1       7.274   1.383  13.346  0.00  0.00    +0.116 A 
ATOM      7  N   UNL     1       6.394   0.323  13.317  0.00  0.00    -0.223 NA
ATOM      8  C   UNL     1       5.816  -0.093  12.131  0.00  0.00    +0.220 A 
ATOM      9  N   UNL     1       4.934  -1.161  12.078  0.00  0.00    -0.283 N 
ATOM     36  H   UNL     1       4.524  -1.433  11.185  0.00  0.00    +0.155 HD
ATOM     37  N   UNL     1       6.114   0.542  10.978  0.00  0.00    -0.214 NA
BRANCH   4   3
ATOM      1  C   UNL     1       7.553   2.081   7.099  0.00  0.00    +0.020 A 
ATOM      2  C   UNL     1       7.309   1.439   8.370  0.00  0.00    +0.013 A 
ATOM      3  C   UNL     1       7.239   2.220   9.598  0.00  0.00    +0.019 A 
ATOM     38  C   UNL     1       7.420   3.660   9.506  0.00  0.00    +0.120 A 
ATOM     39  N   UNL     1       7.655   4.252   8.268  0.00  0.00    -0.263 NA
ATOM     40  C   UNL     1       7.726   3.510   7.080  0.00  0.00    +0.111 A 
ENDBRANCH   4   3
ENDBRANCH  10   9
BRANCH  12  13
ATOM     13  N   UNL     1       6.103  -4.610  15.468  0.00  0.00    -0.281 N 
ATOM     14  C   UNL     1       7.349  -4.418  16.043  0.00  0.00    +0.248 C 
ATOM     30  O   UNL     1       7.986  -3.377  15.980  0.00  0.00    -0.270 OA
ATOM     31  H   UNL     1       5.772  -5.574  15.427  0.00  0.00    +0.155 HD
BRANCH  14  15
ATOM     15  C   UNL     1       7.986  -5.550  16.782  0.00  0.00    +0.037 A 
ATOM     16  C   UNL     1       9.324  -6.031  16.429  0.00  0.00    +0.013 A 
ATOM     17  C   UNL     1       9.908  -7.137  17.146  0.00  0.00    +0.005 A 
ATOM     18  C   UNL     1       9.153  -7.768  18.226  0.00  0.00    -0.033 A 
ATOM     28  C   UNL     1       7.830  -7.267  18.559  0.00  0.00    +0.005 A 
ATOM     29  C   UNL     1       7.254  -6.185  17.857  0.00  0.00    +0.013 A 
BRANCH  18  19
ATOM     19  C   UNL     1       9.690  -8.966  19.032  0.00  0.00    +0.119 C 
BRANCH  19  20
ATOM     20  N   UNL     1       9.187 -10.322  18.657  0.00  0.00    -0.302 NA
ATOM     21  C   UNL     1      10.302 -11.371  18.669  0.00  0.00    +0.066 C 
ATOM     22  C   UNL     1       9.754 -12.788  18.297  0.00  0.00    -0.064 C 
ATOM     23  N   UNL     1       9.081 -12.727  16.925  0.00  0.00    +0.379 N 
ATOM     24  C   UNL     1       8.616 -14.069  16.546  0.00  0.00    -0.096 C 
ATOM     25  H   UNL     1       9.854 -12.415  16.183  0.00  0.00    -0.082 HD
ATOM     26  C   UNL     1       7.973 -11.684  16.903  0.00  0.00    -0.064 C 
ATOM     27  C   UNL     1       8.523 -10.286  17.303  0.00  0.00    +0.066 C 
ENDBRANCH  19  20
ENDBRANCH  18  19
ENDBRANCH  14  15
ENDBRANCH  12  13
TORSDOF 6
ENDMDL
MODEL 3
REMARK VINA RESULT:     -17.7      2.390     12.374
REMARK  Name = C:\Users\Docking\Desktop\test protocol\1iep_ligandH.pdb
REMARK  8 active torsions:
REMARK  status: ('A' for Active; 'I' for Inactive)
REMARK    1  A    between atoms: _5  and  _11
REMARK    2  A    between atoms: _19  and  _21
REMARK    3  A    between atoms: _22  and  _66
REMARK    4  A    between atoms: _27  and  _30
REMARK    5  A    between atoms: _32  and  _33
REMARK    6  A    between atoms: _38  and  _43
REMARK    7  A    between atoms: _43  and  _46
REMARK    8  A    between atoms: _53  and  _55
REMARK                            x       y       z     vdW  Elec       q    Type
REMARK                         _______ _______ _______ _____ _____    ______ ____
ROOT
ATOM     10  C   UNL     1       2.888   1.168  11.527  0.00  0.00    +0.038 A 
ATOM     11  C   UNL     1       4.111   1.887  11.538  0.00  0.00    +0.047 A 
ATOM     12  C   UNL     1       4.193   3.240  11.010  0.00  0.00    +0.035 A 
ATOM     32  C   UNL     1       3.009   3.831  10.480  0.00  0.00    +0.024 A 
ATOM     33  C   UNL     1       1.758   3.115  10.460  0.00  0.00    +0.007 A 
ATOM     34  C   UNL     1       1.672   1.779  10.978  0.00  0.00    -0.029 A 
ATOM     35  C   UNL     1       0.306   1.056  10.925  0.00  0.00    +0.045 C 
ENDROOT
BRANCH  10   9
ATOM      4  C   UNL     1       4.267  -2.131  14.729  0.00  0.00    +0.077 A 
ATOM      5  C   UNL     1       5.124  -1.201  15.406  0.00  0.00    +0.048 A 
ATOM      6  C   UNL     1       5.187   0.114  14.895  0.00  0.00    +0.116 A 
ATOM      7  N   UNL     1       4.444   0.463  13.788  0.00  0.00    -0.223 NA
ATOM      8  C   UNL     1       3.629  -0.459  13.157  0.00  0.00    +0.220 A 
ATOM      9  N   UNL     1       2.866  -0.128  12.048  0.00  0.00    -0.283 N 
ATOM     36  H   UNL     1       2.283  -0.838  11.606  0.00  0.00    +0.155 HD
ATOM     37  N   UNL     1       3.552  -1.722  13.626  0.00  0.00    -0.214 NA
BRANCH   4   3
ATOM      1  C   UNL     1       2.811  -5.730  15.210  0.00  0.00    +0.020 A 
ATOM      2  C   UNL     1       2.932  -4.357  14.776  0.00  0.00    +0.013 A 
ATOM      3  C   UNL     1       4.091  -3.557  15.151  0.00  0.00    +0.019 A 
ATOM     38  C   UNL     1       5.118  -4.181  15.972  0.00  0.00    +0.120 A 
ATOM     39  N   UNL     1       4.974  -5.504  16.376  0.00  0.00    -0.263 NA
ATOM     40  C   UNL     1       3.862  -6.283  16.023  0.00  0.00    +0.111 A 
ENDBRANCH   4   3
ENDBRANCH  10   9
BRANCH  12  13
ATOM     13  N   UNL     1       5.408   4.016  10.987  0.00  0.00    -0.281 N 
ATOM     14  C   UNL     1       6.507   3.852  10.159  0.00  0.00    +0.248 C 
ATOM     30  O   UNL     1       6.701   2.874   9.453  0.00  0.00    -0.270 OA
ATOM     31  H   UNL     1       5.465   4.778  11.662  0.00  0.00    +0.155 HD
BRANCH  14  15
ATOM     15  C   UNL     1       7.548   4.924  10.122  0.00  0.00    +0.037 A 
ATOM     16  C   UNL     1       8.178   5.415  11.351  0.00  0.00    +0.013 A 
ATOM     17  C   UNL     1       9.167   6.461  11.288  0.00  0.00    +0.005 A 
ATOM     18  C   UNL     1       9.534   7.023   9.990  0.00  0.00    -0.033 A 
ATOM     28  C   UNL     1       8.898   6.513   8.787  0.00  0.00    +0.005 A 
ATOM     29  C   UNL     1       7.927   5.488   8.844  0.00  0.00    +0.013 A 
BRANCH  18  19
ATOM     19  C   UNL     1      10.565   8.156   9.831  0.00  0.00    +0.119 C 
BRANCH  19  20
ATOM     20  N   UNL     1      11.977   7.762   9.547  0.00  0.00    -0.302 NA
ATOM     21  C   UNL     1      12.982   8.696  10.226  0.00  0.00    +0.066 C 
ATOM     22  C   UNL     1      14.454   8.256   9.937  0.00  0.00    -0.064 C 
ATOM     23  N   UNL     1      14.685   8.219   8.425  0.00  0.00    +0.379 N 
ATOM     24  C   UNL     1      16.084   7.861   8.151  0.00  0.00    -0.096 C 
ATOM     25  H   UNL     1      14.515   9.248   8.032  0.00  0.00    -0.082 HD
ATOM     26  C   UNL     1      13.688   7.294   7.741  0.00  0.00    -0.064 C 
ATOM     27  C   UNL     1      12.228   7.723   8.059  0.00  0.00    +0.066 C 
ENDBRANCH  19  20
ENDBRANCH  18  19
ENDBRANCH  14  15
ENDBRANCH  12  13
TORSDOF 6
ENDMDL
MODEL 4
REMARK VINA RESULT:     -17.1      3.450      5.529
REMARK  Name = C:\Users\Docking\Desktop\test protocol\1iep_ligandH.pdb
REMARK  8 active torsions:
REMARK  status: ('A' for Active; 'I' for Inactive)
REMARK    1  A    between atoms: _5  and  _11
REMARK    2  A    between atoms: _19  and  _21
REMARK    3  A    between atoms: _22  and  _66
REMARK    4  A    between atoms: _27  and  _30
REMARK    5  A    between atoms: _32  and  _33
REMARK    6  A    between atoms: _38  and  _43
REMARK    7  A    between atoms: _43  and  _46
REMARK    8  A    between atoms: _53  and  _55
REMARK                            x       y       z     vdW  Elec       q    Type
REMARK                         _______ _______ _______ _____ _____    ______ ____
ROOT
ATOM     10  C   UNL     1       5.385   3.612   9.492  0.00  0.00    +0.038 A 
ATOM     11  C   UNL     1       4.973   2.597  10.393  0.00  0.00    +0.047 A 
ATOM     12  C   UNL     1       5.853   2.128  11.452  0.00  0.00    +0.035 A 
ATOM     32  C   UNL     1       7.145   2.718  11.568  0.00  0.00    +0.024 A 
ATOM     33  C   UNL     1       7.581   3.750  10.661  0.00  0.00    +0.007 A 
ATOM     34  C   UNL     1       6.718   4.215   9.612  0.00  0.00    -0.029 A 
ATOM     35  C   UNL     1       7.240   5.320   8.664  0.00  0.00    +0.045 C 
ENDROOT
BRANCH  10   9
ATOM      4  C   UNL     1       3.807   3.582   4.960  0.00  0.00    +0.077 A 
ATOM      5  C   UNL     1       4.850   2.691   4.540  0.00  0.00    +0.048 A 
ATOM      6  C   UNL     1       5.777   2.270   5.520  0.00  0.00    +0.116 A 
ATOM      7  N   UNL     1       5.659   2.712   6.820  0.00  0.00    -0.223 NA
ATOM      8  C   UNL     1       4.642   3.572   7.191  0.00  0.00    +0.220 A 
ATOM      9  N   UNL     1       4.500   4.024   8.494  0.00  0.00    -0.283 N 
ATOM     36  H   UNL     1       3.740   4.664   8.726  0.00  0.00    +0.155 HD
ATOM     37  N   UNL     1       3.745   3.990   6.273  0.00  0.00    -0.214 NA
BRANCH   4   3
ATOM      1  C   UNL     1       0.345   4.532   3.407  0.00  0.00    +0.020 A 
ATOM      2  C   UNL     1       1.325   4.002   4.326  0.00  0.00    +0.013 A 
ATOM      3  C   UNL     1       2.750   4.112   4.042  0.00  0.00    +0.019 A 
ATOM     38  C   UNL     1       3.153   4.771   2.809  0.00  0.00    +0.120 A 
ATOM     39  N   UNL     1       2.187   5.271   1.941  0.00  0.00    -0.263 NA
ATOM     40  C   UNL     1       0.812   5.168   2.204  0.00  0.00    +0.111 A 
ENDBRANCH   4   3
ENDBRANCH  10   9
BRANCH  12  13
ATOM     13  N   UNL     1       5.492   1.095  12.391  0.00  0.00    -0.281 N 
ATOM     14  C   UNL     1       4.232   0.578  12.647  0.00  0.00    +0.248 C 
ATOM     30  O   UNL     1       3.188   1.079  12.256  0.00  0.00    -0.270 OA
ATOM     31  H   UNL     1       6.258   0.695  12.933  0.00  0.00    +0.155 HD
BRANCH  14  15
ATOM     15  C   UNL     1       4.115  -0.667  13.466  0.00  0.00    +0.037 A 
ATOM     16  C   UNL     1       4.827  -0.809  14.738  0.00  0.00    +0.013 A 
ATOM     17  C   UNL     1       4.710  -2.027  15.500  0.00  0.00    +0.005 A 
ATOM     18  C   UNL     1       3.874  -3.112  14.992  0.00  0.00    -0.033 A 
ATOM     28  C   UNL     1       3.175  -2.942  13.729  0.00  0.00    +0.005 A 
ATOM     29  C   UNL     1       3.288  -1.751  12.979  0.00  0.00    +0.013 A 
BRANCH  18  19
ATOM     19  C   UNL     1       3.708  -4.455  15.728  0.00  0.00    +0.119 C 
BRANCH  19  20
ATOM     20  N   UNL     1       4.819  -4.883  16.630  0.00  0.00    -0.302 NA
ATOM     21  C   UNL     1       6.185  -4.790  15.942  0.00  0.00    +0.066 C 
ATOM     22  C   UNL     1       7.338  -5.220  16.907  0.00  0.00    -0.064 C 
ATOM     23  N   UNL     1       7.078  -6.642  17.406  0.00  0.00    +0.379 N 
ATOM     24  C   UNL     1       8.190  -7.070  18.267  0.00  0.00    -0.096 C 
ATOM     25  H   UNL     1       7.060  -7.314  16.517  0.00  0.00    -0.082 HD
ATOM     26  C   UNL     1       5.721  -6.743  18.088  0.00  0.00    -0.064 C 
ATOM     27  C   UNL     1       4.585  -6.286  17.131  0.00  0.00    +0.066 C 
ENDBRANCH  19  20
ENDBRANCH  18  19
ENDBRANCH  14  15
ENDBRANCH  12  13
TORSDOF 6
ENDMDL
