MODEL 1
REMARK VINA RESULT:      -8.9      0.000      0.000
REMARK  Name = C:\Users\Docking\Desktop\test protocol\1iep_ligandH.pdb
REMARK  8 active torsions:
REMARK  status: ('A' for Active; 'I' for Inactive)
REMARK    1  A    between atoms: _5  and  _11
REMARK    2  A    between atoms: _19  and  _21
REMARK    3  A    between atoms: _22  and  _66
REMARK    4  A    between atoms: _27  and  _30
REMARK    5  A    between atoms: _32  and  _33
REMARK    6  A    between atoms: _38  and  _43
REMARK    7  A    between atoms: _43  and  _46
REMARK    8  A    between atoms: _53  and  _55
REMARK                            x       y       z     vdW  Elec       q    Type
REMARK                         _______ _______ _______ _____ _____    ______ ____
ROOT
ATOM     10  C   UNL     1      11.983  13.724  12.272  0.00  0.00    +0.038 A 
ATOM     11  C   UNL     1      10.611  14.081  12.326  0.00  0.00    +0.047 A 
ATOM     12  C   UNL     1      10.072  14.828  13.452  0.00  0.00    +0.035 A 
ATOM     32  C   UNL     1      10.959  15.198  14.504  0.00  0.00    +0.024 A 
ATOM     33  C   UNL     1      12.356  14.843  14.465  0.00  0.00    +0.007 A 
ATOM     34  C   UNL     1      12.893  14.104  13.359  0.00  0.00    -0.029 A 
ATOM     35  C   UNL     1      14.397  13.745  13.373  0.00  0.00    +0.045 C 
ENDROOT
BRANCH  10   9
ATOM      4  C   UNL     1      13.283   9.633  10.124  0.00  0.00    +0.077 A 
ATOM      5  C   UNL     1      13.043   8.865  11.312  0.00  0.00    +0.048 A 
ATOM      6  C   UNL     1      12.592   9.561  12.456  0.00  0.00    +0.116 A 
ATOM      7  N   UNL     1      12.399  10.925  12.404  0.00  0.00    -0.223 NA
ATOM      8  C   UNL     1      12.642  11.636  11.244  0.00  0.00    +0.220 A 
ATOM      9  N   UNL     1      12.447  13.006  11.167  0.00  0.00    -0.283 N 
ATOM     36  H   UNL     1      12.644  13.496  10.294  0.00  0.00    +0.155 HD
ATOM     37  N   UNL     1      13.074  10.994  10.138  0.00  0.00    -0.214 NA
BRANCH   4   3
ATOM      1  C   UNL     1      14.006   7.126   7.210  0.00  0.00    +0.020 A 
ATOM      2  C   UNL     1      13.526   7.649   8.469  0.00  0.00    +0.013 A 
ATOM      3  C   UNL     1      13.758   9.040   8.834  0.00  0.00    +0.019 A 
ATOM     38  C   UNL     1      14.483   9.883   7.896  0.00  0.00    +0.120 A 
ATOM     39  N   UNL     1      14.935   9.352   6.692  0.00  0.00    -0.263 NA
ATOM     40  C   UNL     1      14.719   8.014   6.330  0.00  0.00    +0.111 A 
ENDBRANCH   4   3
ENDBRANCH  10   9
BRANCH  12  13
ATOM     13  N   UNL     1       8.687  15.211  13.566  0.00  0.00    -0.281 N 
ATOM     14  C   UNL     1       7.655  14.507  14.166  0.00  0.00    +0.248 C 
ATOM     30  O   UNL     1       7.726  13.337  14.511  0.00  0.00    -0.270 OA
ATOM     31  H   UNL     1       8.436  16.110  13.154  0.00  0.00    +0.155 HD
BRANCH  14  15
ATOM     15  C   UNL     1       6.352  15.200  14.405  0.00  0.00    +0.037 A 
ATOM     16  C   UNL     1       5.467  15.558  13.294  0.00  0.00    +0.013 A 
ATOM     17  C   UNL     1       4.224  16.241  13.551  0.00  0.00    +0.005 A 
ATOM     18  C   UNL     1       3.858  16.568  14.926  0.00  0.00    -0.033 A 
ATOM     28  C   UNL     1       4.752  16.196  16.010  0.00  0.00    +0.005 A 
ATOM     29  C   UNL     1       5.972  15.528  15.763  0.00  0.00    +0.013 A 
BRANCH  18  19
ATOM     19  C   UNL     1       2.560  17.314  15.292  0.00  0.00    +0.119 C 
BRANCH  19  20
ATOM     20  N   UNL     1       1.978  17.052  16.642  0.00  0.00    -0.302 NA
ATOM     21  C   UNL     1       0.517  16.602  16.559  0.00  0.00    +0.066 C 
ATOM     22  C   UNL     1      -0.070  16.310  17.979  0.00  0.00    -0.064 C 
ATOM     23  N   UNL     1       0.063  17.562  18.849  0.00  0.00    +0.379 N 
ATOM     24  C   UNL     1      -0.540  17.310  20.166  0.00  0.00    -0.096 C 
ATOM     25  H   UNL     1      -0.520  18.377  18.360  0.00  0.00    -0.082 HD
ATOM     26  C   UNL     1       1.513  18.018  18.934  0.00  0.00    -0.064 C 
ATOM     27  C   UNL     1       2.095  18.276  17.516  0.00  0.00    +0.066 C 
ENDBRANCH  19  20
ENDBRANCH  18  19
ENDBRANCH  14  15
ENDBRANCH  12  13
TORSDOF 6
ENDMDL
MODEL 2
REMARK VINA RESULT:      -8.9      1.416      1.730
REMARK  Name = C:\Users\Docking\Desktop\test protocol\1iep_ligandH.pdb
REMARK  8 active torsions:
REMARK  status: ('A' for Active; 'I' for Inactive)
REMARK    1  A    between atoms: _5  and  _11
REMARK    2  A    between atoms: _19  and  _21
REMARK    3  A    between atoms: _22  and  _66
REMARK    4  A    between atoms: _27  and  _30
REMARK    5  A    between atoms: _32  and  _33
REMARK    6  A    between atoms: _38  and  _43
REMARK    7  A    between atoms: _43  and  _46
REMARK    8  A    between atoms: _53  and  _55
REMARK                            x       y       z     vdW  Elec       q    Type
REMARK                         _______ _______ _______ _____ _____    ______ ____
ROOT
ATOM     10  C   UNL     1      11.999  13.706  12.286  0.00  0.00    +0.038 A 
ATOM     11  C   UNL     1      10.622  14.038  12.356  0.00  0.00    +0.047 A 
ATOM     12  C   UNL     1      10.084  14.782  13.484  0.00  0.00    +0.035 A 
ATOM     32  C   UNL     1      10.978  15.175  14.522  0.00  0.00    +0.024 A 
ATOM     33  C   UNL     1      12.381  14.846  14.467  0.00  0.00    +0.007 A 
ATOM     34  C   UNL     1      12.917  14.109  13.358  0.00  0.00    -0.029 A 
ATOM     35  C   UNL     1      14.427  13.778  13.355  0.00  0.00    +0.045 C 
ENDROOT
BRANCH  10   9
ATOM      4  C   UNL     1      13.295   9.618  10.130  0.00  0.00    +0.077 A 
ATOM      5  C   UNL     1      13.055   8.848  11.316  0.00  0.00    +0.048 A 
ATOM      6  C   UNL     1      12.606   9.542  12.461  0.00  0.00    +0.116 A 
ATOM      7  N   UNL     1      12.414  10.906  12.413  0.00  0.00    -0.223 NA
ATOM      8  C   UNL     1      12.656  11.619  11.253  0.00  0.00    +0.220 A 
ATOM      9  N   UNL     1      12.462  12.990  11.179  0.00  0.00    -0.283 N 
ATOM     36  H   UNL     1      12.659  13.481  10.307  0.00  0.00    +0.155 HD
ATOM     37  N   UNL     1      13.087  10.979  10.146  0.00  0.00    -0.214 NA
BRANCH   4   3
ATOM      1  C   UNL     1      14.029   7.112   7.218  0.00  0.00    +0.020 A 
ATOM      2  C   UNL     1      13.551   7.632   8.478  0.00  0.00    +0.013 A 
ATOM      3  C   UNL     1      13.769   9.028   8.838  0.00  0.00    +0.019 A 
ATOM     38  C   UNL     1      14.478   9.877   7.893  0.00  0.00    +0.120 A 
ATOM     39  N   UNL     1      14.928   9.347   6.687  0.00  0.00    -0.263 NA
ATOM     40  C   UNL     1      14.725   8.005   6.331  0.00  0.00    +0.111 A 
ENDBRANCH   4   3
ENDBRANCH  10   9
BRANCH  12  13
ATOM     13  N   UNL     1       8.693  15.141  13.614  0.00  0.00    -0.281 N 
ATOM     14  C   UNL     1       7.715  14.502  14.358  0.00  0.00    +0.248 C 
ATOM     30  O   UNL     1       7.841  13.394  14.859  0.00  0.00    -0.270 OA
ATOM     31  H   UNL     1       8.394  15.966  13.094  0.00  0.00    +0.155 HD
BRANCH  14  15
ATOM     15  C   UNL     1       6.403  15.186  14.564  0.00  0.00    +0.037 A 
ATOM     16  C   UNL     1       5.538  15.528  13.432  0.00  0.00    +0.013 A 
ATOM     17  C   UNL     1       4.284  16.203  13.657  0.00  0.00    +0.005 A 
ATOM     18  C   UNL     1       3.887  16.540  15.022  0.00  0.00    -0.033 A 
ATOM     28  C   UNL     1       4.762  16.185  16.127  0.00  0.00    +0.005 A 
ATOM     29  C   UNL     1       5.992  15.524  15.910  0.00  0.00    +0.013 A 
BRANCH  18  19
ATOM     19  C   UNL     1       2.577  17.279  15.354  0.00  0.00    +0.119 C 
BRANCH  19  20
ATOM     20  N   UNL     1       1.298  16.598  14.994  0.00  0.00    -0.302 NA
ATOM     21  C   UNL     1       0.074  17.411  15.423  0.00  0.00    +0.066 C 
ATOM     22  C   UNL     1      -1.256  16.694  15.019  0.00  0.00    -0.064 C 
ATOM     23  N   UNL     1      -1.288  15.297  15.640  0.00  0.00    +0.379 N 
ATOM     24  C   UNL     1      -2.563  14.643  15.310  0.00  0.00    -0.096 C 
ATOM     25  H   UNL     1      -1.248  15.419  16.748  0.00  0.00    -0.082 HD
ATOM     26  C   UNL     1      -0.073  14.483  15.221  0.00  0.00    -0.064 C 
ATOM     27  C   UNL     1       1.243  15.217  15.601  0.00  0.00    +0.066 C 
ENDBRANCH  19  20
ENDBRANCH  18  19
ENDBRANCH  14  15
ENDBRANCH  12  13
TORSDOF 6
ENDMDL
MODEL 3
REMARK VINA RESULT:      -8.6      6.196     15.162
REMARK  Name = C:\Users\Docking\Desktop\test protocol\1iep_ligandH.pdb
REMARK  8 active torsions:
REMARK  status: ('A' for Active; 'I' for Inactive)
REMARK    1  A    between atoms: _5  and  _11
REMARK    2  A    between atoms: _19  and  _21
REMARK    3  A    between atoms: _22  and  _66
REMARK    4  A    between atoms: _27  and  _30
REMARK    5  A    between atoms: _32  and  _33
REMARK    6  A    between atoms: _38  and  _43
REMARK    7  A    between atoms: _43  and  _46
REMARK    8  A    between atoms: _53  and  _55
REMARK                            x       y       z     vdW  Elec       q    Type
REMARK                         _______ _______ _______ _____ _____    ______ ____
ROOT
ATOM     10  C   UNL     1      13.737   9.539   8.770  0.00  0.00    +0.038 A 
ATOM     11  C   UNL     1      14.209  10.184   7.599  0.00  0.00    +0.047 A 
ATOM     12  C   UNL     1      15.255   9.590   6.782  0.00  0.00    +0.035 A 
ATOM     32  C   UNL     1      15.798   8.336   7.186  0.00  0.00    +0.024 A 
ATOM     33  C   UNL     1      15.332   7.666   8.375  0.00  0.00    +0.007 A 
ATOM     34  C   UNL     1      14.301   8.249   9.186  0.00  0.00    -0.029 A 
ATOM     35  C   UNL     1      13.844   7.489  10.453  0.00  0.00    +0.045 C 
ENDROOT
BRANCH  10   9
ATOM      4  C   UNL     1      12.229  12.739  12.014  0.00  0.00    +0.077 A 
ATOM      5  C   UNL     1      13.562  13.206  12.260  0.00  0.00    +0.048 A 
ATOM      6  C   UNL     1      14.609  12.592  11.537  0.00  0.00    +0.116 A 
ATOM      7  N   UNL     1      14.331  11.587  10.636  0.00  0.00    -0.223 NA
ATOM      8  C   UNL     1      13.034  11.158  10.424  0.00  0.00    +0.220 A 
ATOM      9  N   UNL     1      12.731  10.154   9.517  0.00  0.00    -0.283 N 
ATOM     36  H   UNL     1      11.761   9.862   9.395  0.00  0.00    +0.155 HD
ATOM     37  N   UNL     1      12.017  11.728  11.103  0.00  0.00    -0.214 NA
BRANCH   4   3
ATOM      1  C   UNL     1       9.531  15.197  13.421  0.00  0.00    +0.020 A 
ATOM      2  C   UNL     1      10.715  14.716  12.748  0.00  0.00    +0.013 A 
ATOM      3  C   UNL     1      11.017  13.291  12.697  0.00  0.00    +0.019 A 
ATOM     38  C   UNL     1      10.091  12.372  13.342  0.00  0.00    +0.120 A 
ATOM     39  N   UNL     1       8.959  12.864  13.984  0.00  0.00    -0.263 NA
ATOM     40  C   UNL     1       8.660  14.233  14.041  0.00  0.00    +0.111 A 
ENDBRANCH   4   3
ENDBRANCH  10   9
BRANCH  12  13
ATOM     13  N   UNL     1      15.780  10.203   5.586  0.00  0.00    -0.281 N 
ATOM     14  C   UNL     1      15.542   9.843   4.270  0.00  0.00    +0.248 C 
ATOM     30  O   UNL     1      15.008   8.799   3.925  0.00  0.00    -0.270 OA
ATOM     31  H   UNL     1      16.401  10.999   5.728  0.00  0.00    +0.155 HD
BRANCH  14  15
ATOM     15  C   UNL     1      15.972  10.769   3.179  0.00  0.00    +0.037 A 
ATOM     16  C   UNL     1      15.046  11.176   2.119  0.00  0.00    +0.013 A 
ATOM     17  C   UNL     1      15.492  12.057   1.068  0.00  0.00    +0.005 A 
ATOM     18  C   UNL     1      16.872  12.538   1.074  0.00  0.00    -0.033 A 
ATOM     28  C   UNL     1      17.767  12.123   2.141  0.00  0.00    +0.005 A 
ATOM     29  C   UNL     1      17.334  11.258   3.171  0.00  0.00    +0.013 A 
BRANCH  18  19
ATOM     19  C   UNL     1      17.439  13.464  -0.018  0.00  0.00    +0.119 C 
BRANCH  19  20
ATOM     20  N   UNL     1      16.458  14.228  -0.845  0.00  0.00    -0.302 NA
ATOM     21  C   UNL     1      16.035  13.454  -2.096  0.00  0.00    +0.066 C 
ATOM     22  C   UNL     1      14.991  14.258  -2.937  0.00  0.00    -0.064 C 
ATOM     23  N   UNL     1      15.583  15.617  -3.316  0.00  0.00    +0.379 N 
ATOM     24  C   UNL     1      14.626  16.352  -4.155  0.00  0.00    -0.096 C 
ATOM     25  H   UNL     1      16.496  15.429  -3.927  0.00  0.00    -0.082 HD
ATOM     26  C   UNL     1      16.009  16.392  -2.077  0.00  0.00    -0.064 C 
ATOM     27  C   UNL     1      17.024  15.572  -1.233  0.00  0.00    +0.066 C 
ENDBRANCH  19  20
ENDBRANCH  18  19
ENDBRANCH  14  15
ENDBRANCH  12  13
TORSDOF 6
ENDMDL
MODEL 4
REMARK VINA RESULT:      -8.4      3.011      6.465
REMARK  Name = C:\Users\Docking\Desktop\test protocol\1iep_ligandH.pdb
REMARK  8 active torsions:
REMARK  status: ('A' for Active; 'I' for Inactive)
REMARK    1  A    between atoms: _5  and  _11
REMARK    2  A    between atoms: _19  and  _21
REMARK    3  A    between atoms: _22  and  _66
REMARK    4  A    between atoms: _27  and  _30
REMARK    5  A    between atoms: _32  and  _33
REMARK    6  A    between atoms: _38  and  _43
REMARK    7  A    between atoms: _43  and  _46
REMARK    8  A    between atoms: _53  and  _55
REMARK                            x       y       z     vdW  Elec       q    Type
REMARK                         _______ _______ _______ _____ _____    ______ ____
ROOT
ATOM     10  C   UNL     1      13.717   8.939   8.485  0.00  0.00    +0.038 A 
ATOM     11  C   UNL     1      13.002   9.901   9.243  0.00  0.00    +0.047 A 
ATOM     12  C   UNL     1      12.711   9.684  10.651  0.00  0.00    +0.035 A 
ATOM     32  C   UNL     1      13.165   8.476  11.257  0.00  0.00    +0.024 A 
ATOM     33  C   UNL     1      13.892   7.487  10.501  0.00  0.00    +0.007 A 
ATOM     34  C   UNL     1      14.180   7.694   9.110  0.00  0.00    -0.029 A 
ATOM     35  C   UNL     1      14.957   6.597   8.347  0.00  0.00    +0.045 C 
ENDROOT
BRANCH  10   9
ATOM      4  C   UNL     1      16.590  10.362   4.914  0.00  0.00    +0.077 A 
ATOM      5  C   UNL     1      17.672  10.637   5.814  0.00  0.00    +0.048 A 
ATOM      6  C   UNL     1      17.446  10.405   7.190  0.00  0.00    +0.116 A 
ATOM      7  N   UNL     1      16.225   9.933   7.621  0.00  0.00    -0.223 NA
ATOM      8  C   UNL     1      15.202   9.681   6.725  0.00  0.00    +0.220 A 
ATOM      9  N   UNL     1      13.969   9.199   7.136  0.00  0.00    -0.283 N 
ATOM     36  H   UNL     1      13.237   9.032   6.445  0.00  0.00    +0.155 HD
ATOM     37  N   UNL     1      15.393   9.896   5.407  0.00  0.00    -0.214 NA
BRANCH   4   3
ATOM      1  C   UNL     1      15.711  11.253   1.207  0.00  0.00    +0.020 A 
ATOM      2  C   UNL     1      15.577  11.087   2.636  0.00  0.00    +0.013 A 
ATOM      3  C   UNL     1      16.676  10.554   3.431  0.00  0.00    +0.019 A 
ATOM     38  C   UNL     1      17.908  10.196   2.744  0.00  0.00    +0.120 A 
ATOM     39  N   UNL     1      18.008  10.366   1.367  0.00  0.00    -0.263 NA
ATOM     40  C   UNL     1      16.956  10.876   0.591  0.00  0.00    +0.111 A 
ENDBRANCH   4   3
ENDBRANCH  10   9
BRANCH  12  13
ATOM     13  N   UNL     1      11.982  10.621  11.470  0.00  0.00    -0.281 N 
ATOM     14  C   UNL     1      12.168  11.990  11.568  0.00  0.00    +0.248 C 
ATOM     30  O   UNL     1      13.136  12.590  11.124  0.00  0.00    -0.270 OA
ATOM     31  H   UNL     1      11.239  10.227  12.047  0.00  0.00    +0.155 HD
BRANCH  14  15
ATOM     15  C   UNL     1      11.137  12.810  12.274  0.00  0.00    +0.037 A 
ATOM     16  C   UNL     1      10.938  14.225  11.948  0.00  0.00    +0.013 A 
ATOM     17  C   UNL     1       9.948  14.998  12.656  0.00  0.00    +0.005 A 
ATOM     18  C   UNL     1       9.148  14.356  13.696  0.00  0.00    -0.033 A 
ATOM     28  C   UNL     1       9.362  12.949  13.995  0.00  0.00    +0.005 A 
ATOM     29  C   UNL     1      10.332  12.189  13.304  0.00  0.00    +0.013 A 
BRANCH  18  19
ATOM     19  C   UNL     1       8.084  15.108  14.517  0.00  0.00    +0.119 C 
BRANCH  19  20
ATOM     20  N   UNL     1       6.710  14.523  14.556  0.00  0.00    -0.302 NA
ATOM     21  C   UNL     1       5.709  15.354  13.748  0.00  0.00    +0.066 C 
ATOM     22  C   UNL     1       4.282  14.716  13.781  0.00  0.00    -0.064 C 
ATOM     23  N   UNL     1       3.823  14.576  15.233  0.00  0.00    +0.379 N 
ATOM     24  C   UNL     1       2.458  14.030  15.265  0.00  0.00    -0.096 C 
ATOM     25  H   UNL     1       3.789  15.598  15.677  0.00  0.00    -0.082 HD
ATOM     26  C   UNL     1       4.814  13.753  16.044  0.00  0.00    -0.064 C 
ATOM     27  C   UNL     1       6.235  14.380  15.981  0.00  0.00    +0.066 C 
ENDBRANCH  19  20
ENDBRANCH  18  19
ENDBRANCH  14  15
ENDBRANCH  12  13
TORSDOF 6
ENDMDL
MODEL 5
REMARK VINA RESULT:      -8.4      2.210      3.213
REMARK  Name = C:\Users\Docking\Desktop\test protocol\1iep_ligandH.pdb
REMARK  8 active torsions:
REMARK  status: ('A' for Active; 'I' for Inactive)
REMARK    1  A    between atoms: _5  and  _11
REMARK    2  A    between atoms: _19  and  _21
REMARK    3  A    between atoms: _22  and  _66
REMARK    4  A    between atoms: _27  and  _30
REMARK    5  A    between atoms: _32  and  _33
REMARK    6  A    between atoms: _38  and  _43
REMARK    7  A    between atoms: _43  and  _46
REMARK    8  A    between atoms: _53  and  _55
REMARK                            x       y       z     vdW  Elec       q    Type
REMARK                         _______ _______ _______ _____ _____    ______ ____
ROOT
ATOM     10  C   UNL     1      13.277  13.026  11.490  0.00  0.00    +0.038 A 
ATOM     11  C   UNL     1      11.889  13.228  11.697  0.00  0.00    +0.047 A 
ATOM     12  C   UNL     1      11.383  13.734  12.963  0.00  0.00    +0.035 A 
ATOM     32  C   UNL     1      12.320  14.027  13.997  0.00  0.00    +0.024 A 
ATOM     33  C   UNL     1      13.734  13.827  13.803  0.00  0.00    +0.007 A 
ATOM     34  C   UNL     1      14.239  13.325  12.557  0.00  0.00    -0.029 A 
ATOM     35  C   UNL     1      15.765  13.124  12.408  0.00  0.00    +0.045 C 
ENDROOT
BRANCH  10   9
ATOM      4  C   UNL     1      14.152   9.433   8.429  0.00  0.00    +0.077 A 
ATOM      5  C   UNL     1      13.741   8.443   9.382  0.00  0.00    +0.048 A 
ATOM      6  C   UNL     1      13.318   8.899  10.651  0.00  0.00    +0.116 A 
ATOM      7  N   UNL     1      13.311  10.248  10.935  0.00  0.00    -0.223 NA
ATOM      8  C   UNL     1      13.715  11.176   9.993  0.00  0.00    +0.220 A 
ATOM      9  N   UNL     1      13.708  12.538  10.254  0.00  0.00    -0.283 N 
ATOM     36  H   UNL     1      14.021  13.191   9.535  0.00  0.00    +0.155 HD
ATOM     37  N   UNL     1      14.124  10.766   8.775  0.00  0.00    -0.214 NA
BRANCH   4   3
ATOM      1  C   UNL     1      15.782   9.693   4.883  0.00  0.00    +0.020 A 
ATOM      2  C   UNL     1      15.350  10.057   6.213  0.00  0.00    +0.013 A 
ATOM      3  C   UNL     1      14.621   9.109   7.045  0.00  0.00    +0.019 A 
ATOM     38  C   UNL     1      14.344   7.789   6.498  0.00  0.00    +0.120 A 
ATOM     39  N   UNL     1      14.770   7.467   5.214  0.00  0.00    -0.263 NA
ATOM     40  C   UNL     1      15.471   8.373   4.403  0.00  0.00    +0.111 A 
ENDBRANCH   4   3
ENDBRANCH  10   9
BRANCH  12  13
ATOM     13  N   UNL     1       9.983  13.951  13.234  0.00  0.00    -0.281 N 
ATOM     14  C   UNL     1       9.074  13.062  13.782  0.00  0.00    +0.248 C 
ATOM     30  O   UNL     1       9.278  11.865  13.925  0.00  0.00    -0.270 OA
ATOM     31  H   UNL     1       9.619  14.873  12.993  0.00  0.00    +0.155 HD
BRANCH  14  15
ATOM     15  C   UNL     1       7.739  13.572  14.220  0.00  0.00    +0.037 A 
ATOM     16  C   UNL     1       6.651  12.654  14.568  0.00  0.00    +0.013 A 
ATOM     17  C   UNL     1       5.368  13.172  14.972  0.00  0.00    +0.005 A 
ATOM     18  C   UNL     1       5.167  14.618  15.031  0.00  0.00    -0.033 A 
ATOM     28  C   UNL     1       6.264  15.506  14.685  0.00  0.00    +0.005 A 
ATOM     29  C   UNL     1       7.523  15.001  14.288  0.00  0.00    +0.013 A 
BRANCH  18  19
ATOM     19  C   UNL     1       3.825  15.260  15.430  0.00  0.00    +0.119 C 
BRANCH  19  20
ATOM     20  N   UNL     1       2.631  14.923  14.598  0.00  0.00    -0.302 NA
ATOM     21  C   UNL     1       2.871  15.199  13.111  0.00  0.00    +0.066 C 
ATOM     22  C   UNL     1       1.621  14.819  12.253  0.00  0.00    -0.064 C 
ATOM     23  N   UNL     1       0.404  15.596  12.758  0.00  0.00    +0.379 N 
ATOM     24  C   UNL     1      -0.761  15.286  11.917  0.00  0.00    -0.096 C 
ATOM     25  H   UNL     1       0.625  16.683  12.643  0.00  0.00    -0.082 HD
ATOM     26  C   UNL     1       0.160  15.330  14.237  0.00  0.00    -0.064 C 
ATOM     27  C   UNL     1       1.419  15.682  15.077  0.00  0.00    +0.066 C 
ENDBRANCH  19  20
ENDBRANCH  18  19
ENDBRANCH  14  15
ENDBRANCH  12  13
TORSDOF 6
ENDMDL
