MODEL 1
REMARK VINA RESULT:      -7.6      0.000      0.000
REMARK  Name = C:\Users\Docking\Desktop\test protocol\1iep_ligandH.pdb
REMARK  8 active torsions:
REMARK  status: ('A' for Active; 'I' for Inactive)
REMARK    1  A    between atoms: _5  and  _11
REMARK    2  A    between atoms: _19  and  _21
REMARK    3  A    between atoms: _22  and  _66
REMARK    4  A    between atoms: _27  and  _30
REMARK    5  A    between atoms: _32  and  _33
REMARK    6  A    between atoms: _38  and  _43
REMARK    7  A    between atoms: _43  and  _46
REMARK    8  A    between atoms: _53  and  _55
REMARK                            x       y       z     vdW  Elec       q    Type
REMARK                         _______ _______ _______ _____ _____    ______ ____
ROOT
ATOM     10  C   UNL     1      25.909   9.882   3.562  0.00  0.00    +0.038 A 
ATOM     11  C   UNL     1      24.653   9.627   4.169  0.00  0.00    +0.047 A 
ATOM     12  C   UNL     1      24.451   9.833   5.595  0.00  0.00    +0.035 A 
ATOM     32  C   UNL     1      25.550  10.302   6.372  0.00  0.00    +0.024 A 
ATOM     33  C   UNL     1      26.834  10.565   5.771  0.00  0.00    +0.007 A 
ATOM     34  C   UNL     1      27.040  10.361   4.365  0.00  0.00    -0.029 A 
ATOM     35  C   UNL     1      28.439  10.654   3.776  0.00  0.00    +0.045 C 
ENDROOT
BRANCH  10   9
ATOM      4  C   UNL     1      26.181   6.996  -0.264  0.00  0.00    +0.077 A 
ATOM      5  C   UNL     1      26.066   5.816   0.544  0.00  0.00    +0.048 A 
ATOM      6  C   UNL     1      25.946   5.995   1.940  0.00  0.00    +0.116 A 
ATOM      7  N   UNL     1      25.942   7.264   2.477  0.00  0.00    -0.223 NA
ATOM      8  C   UNL     1      26.056   8.381   1.670  0.00  0.00    +0.220 A 
ATOM      9  N   UNL     1      26.047   9.666   2.188  0.00  0.00    -0.283 N 
ATOM     36  H   UNL     1      26.141  10.464   1.560  0.00  0.00    +0.155 HD
ATOM     37  N   UNL     1      26.174   8.236   0.334  0.00  0.00    -0.214 NA
BRANCH   4   3
ATOM      1  C   UNL     1      25.391   6.607  -4.075  0.00  0.00    +0.020 A 
ATOM      2  C   UNL     1      25.212   6.615  -2.642  0.00  0.00    +0.013 A 
ATOM      3  C   UNL     1      26.312   6.971  -1.755  0.00  0.00    +0.019 A 
ATOM     38  C   UNL     1      27.591   7.318  -2.357  0.00  0.00    +0.120 A 
ATOM     39  N   UNL     1      27.735   7.300  -3.740  0.00  0.00    -0.263 NA
ATOM     40  C   UNL     1      26.683   6.957  -4.603  0.00  0.00    +0.111 A 
ENDBRANCH   4   3
ENDBRANCH  10   9
BRANCH  12  13
ATOM     13  N   UNL     1      23.201   9.584   6.269  0.00  0.00    -0.281 N 
ATOM     14  C   UNL     1      21.995  10.244   6.098  0.00  0.00    +0.248 C 
ATOM     30  O   UNL     1      21.863  11.296   5.491  0.00  0.00    -0.270 OA
ATOM     31  H   UNL     1      23.205   8.828   6.954  0.00  0.00    +0.155 HD
BRANCH  14  15
ATOM     15  C   UNL     1      20.759   9.659   6.702  0.00  0.00    +0.037 A 
ATOM     16  C   UNL     1      20.567   9.622   8.154  0.00  0.00    +0.013 A 
ATOM     17  C   UNL     1      19.374   9.036   8.711  0.00  0.00    +0.005 A 
ATOM     18  C   UNL     1      18.362   8.483   7.815  0.00  0.00    -0.033 A 
ATOM     28  C   UNL     1      18.575   8.538   6.378  0.00  0.00    +0.005 A 
ATOM     29  C   UNL     1      19.744   9.110   5.828  0.00  0.00    +0.013 A 
BRANCH  18  19
ATOM     19  C   UNL     1      17.067   7.820   8.322  0.00  0.00    +0.119 C 
BRANCH  19  20
ATOM     20  N   UNL     1      15.970   7.615   7.330  0.00  0.00    -0.302 NA
ATOM     21  C   UNL     1      14.618   8.098   7.861  0.00  0.00    +0.066 C 
ATOM     22  C   UNL     1      13.485   7.897   6.802  0.00  0.00    -0.064 C 
ATOM     23  N   UNL     1      13.416   6.420   6.408  0.00  0.00    +0.379 N 
ATOM     24  C   UNL     1      12.315   6.217   5.456  0.00  0.00    -0.096 C 
ATOM     25  H   UNL     1      13.181   5.836   7.328  0.00  0.00    -0.082 HD
ATOM     26  C   UNL     1      14.758   5.930   5.881  0.00  0.00    -0.064 C 
ATOM     27  C   UNL     1      15.881   6.162   6.930  0.00  0.00    +0.066 C 
ENDBRANCH  19  20
ENDBRANCH  18  19
ENDBRANCH  14  15
ENDBRANCH  12  13
TORSDOF 6
ENDMDL
MODEL 2
REMARK VINA RESULT:      -7.5     17.272     21.669
REMARK  Name = C:\Users\Docking\Desktop\test protocol\1iep_ligandH.pdb
REMARK  8 active torsions:
REMARK  status: ('A' for Active; 'I' for Inactive)
REMARK    1  A    between atoms: _5  and  _11
REMARK    2  A    between atoms: _19  and  _21
REMARK    3  A    between atoms: _22  and  _66
REMARK    4  A    between atoms: _27  and  _30
REMARK    5  A    between atoms: _32  and  _33
REMARK    6  A    between atoms: _38  and  _43
REMARK    7  A    between atoms: _43  and  _46
REMARK    8  A    between atoms: _53  and  _55
REMARK                            x       y       z     vdW  Elec       q    Type
REMARK                         _______ _______ _______ _____ _____    ______ ____
ROOT
ATOM     10  C   UNL     1      13.025  -5.545  -3.329  0.00  0.00    +0.038 A 
ATOM     11  C   UNL     1      13.953  -6.527  -3.760  0.00  0.00    +0.047 A 
ATOM     12  C   UNL     1      13.508  -7.839  -4.204  0.00  0.00    +0.035 A 
ATOM     32  C   UNL     1      12.109  -8.116  -4.197  0.00  0.00    +0.024 A 
ATOM     33  C   UNL     1      11.153  -7.130  -3.760  0.00  0.00    +0.007 A 
ATOM     34  C   UNL     1      11.586  -5.835  -3.320  0.00  0.00    -0.029 A 
ATOM     35  C   UNL     1      10.517  -4.818  -2.856  0.00  0.00    +0.045 C 
ENDROOT
BRANCH  10   9
ATOM      4  C   UNL     1      14.860  -2.613  -0.000  0.00  0.00    +0.077 A 
ATOM      5  C   UNL     1      14.829  -3.638   1.004  0.00  0.00    +0.048 A 
ATOM      6  C   UNL     1      14.327  -4.903   0.625  0.00  0.00    +0.116 A 
ATOM      7  N   UNL     1      13.891  -5.117  -0.665  0.00  0.00    -0.223 NA
ATOM      8  C   UNL     1      13.933  -4.107  -1.609  0.00  0.00    +0.220 A 
ATOM      9  N   UNL     1      13.508  -4.302  -2.914  0.00  0.00    -0.283 N 
ATOM     36  H   UNL     1      13.549  -3.529  -3.578  0.00  0.00    +0.155 HD
ATOM     37  N   UNL     1      14.407  -2.889  -1.271  0.00  0.00    -0.214 NA
BRANCH   4   3
ATOM      1  C   UNL     1      15.221   1.281   0.006  0.00  0.00    +0.020 A 
ATOM      2  C   UNL     1      14.691  -0.036  -0.260  0.00  0.00    +0.013 A 
ATOM      3  C   UNL     1      15.365  -1.226   0.245  0.00  0.00    +0.019 A 
ATOM     38  C   UNL     1      16.582  -1.046   1.023  0.00  0.00    +0.120 A 
ATOM     39  N   UNL     1      17.069   0.235   1.262  0.00  0.00    -0.263 NA
ATOM     40  C   UNL     1      16.430   1.387   0.779  0.00  0.00    +0.111 A 
ENDBRANCH   4   3
ENDBRANCH  10   9
BRANCH  12  13
ATOM     13  N   UNL     1      14.403  -8.879  -4.645  0.00  0.00    -0.281 N 
ATOM     14  C   UNL     1      15.193  -8.897  -5.783  0.00  0.00    +0.248 C 
ATOM     30  O   UNL     1      15.088  -8.107  -6.710  0.00  0.00    -0.270 OA
ATOM     31  H   UNL     1      14.462  -9.703  -4.046  0.00  0.00    +0.155 HD
BRANCH  14  15
ATOM     15  C   UNL     1      16.242  -9.953  -5.918  0.00  0.00    +0.037 A 
ATOM     16  C   UNL     1      17.649  -9.604  -6.133  0.00  0.00    +0.013 A 
ATOM     17  C   UNL     1      18.638 -10.642  -6.277  0.00  0.00    +0.005 A 
ATOM     18  C   UNL     1      18.224 -12.041  -6.204  0.00  0.00    -0.033 A 
ATOM     28  C   UNL     1      16.822 -12.359  -5.984  0.00  0.00    +0.005 A 
ATOM     29  C   UNL     1      15.850 -11.344  -5.844  0.00  0.00    +0.013 A 
BRANCH  18  19
ATOM     19  C   UNL     1      19.208 -13.215  -6.367  0.00  0.00    +0.119 C 
BRANCH  19  20
ATOM     20  N   UNL     1      19.054 -14.371  -5.435  0.00  0.00    -0.302 NA
ATOM     21  C   UNL     1      19.430 -14.003  -3.997  0.00  0.00    +0.066 C 
ATOM     22  C   UNL     1      19.242 -15.218  -3.031  0.00  0.00    -0.064 C 
ATOM     23  N   UNL     1      20.083 -16.396  -3.527  0.00  0.00    +0.379 N 
ATOM     24  C   UNL     1      19.954 -17.520  -2.589  0.00  0.00    -0.096 C 
ATOM     25  H   UNL     1      21.150 -16.073  -3.524  0.00  0.00    -0.082 HD
ATOM     26  C   UNL     1      19.717 -16.766  -4.957  0.00  0.00    -0.064 C 
ATOM     27  C   UNL     1      19.879 -15.544  -5.903  0.00  0.00    +0.066 C 
ENDBRANCH  19  20
ENDBRANCH  18  19
ENDBRANCH  14  15
ENDBRANCH  12  13
TORSDOF 6
ENDMDL
MODEL 3
REMARK VINA RESULT:      -7.4     23.820     27.939
REMARK  Name = C:\Users\Docking\Desktop\test protocol\1iep_ligandH.pdb
REMARK  8 active torsions:
REMARK  status: ('A' for Active; 'I' for Inactive)
REMARK    1  A    between atoms: _5  and  _11
REMARK    2  A    between atoms: _19  and  _21
REMARK    3  A    between atoms: _22  and  _66
REMARK    4  A    between atoms: _27  and  _30
REMARK    5  A    between atoms: _32  and  _33
REMARK    6  A    between atoms: _38  and  _43
REMARK    7  A    between atoms: _43  and  _46
REMARK    8  A    between atoms: _53  and  _55
REMARK                            x       y       z     vdW  Elec       q    Type
REMARK                         _______ _______ _______ _____ _____    ______ ____
ROOT
ATOM     10  C   UNL     1      16.496 -11.012  -6.523  0.00  0.00    +0.038 A 
ATOM     11  C   UNL     1      17.194 -12.247  -6.543  0.00  0.00    +0.047 A 
ATOM     12  C   UNL     1      18.612 -12.316  -6.224  0.00  0.00    +0.035 A 
ATOM     32  C   UNL     1      19.287 -11.107  -5.887  0.00  0.00    +0.024 A 
ATOM     33  C   UNL     1      18.594  -9.843  -5.863  0.00  0.00    +0.007 A 
ATOM     34  C   UNL     1      17.196  -9.769  -6.179  0.00  0.00    -0.029 A 
ATOM     35  C   UNL     1      16.505  -8.386  -6.144  0.00  0.00    +0.045 C 
ENDROOT
BRANCH  10   9
ATOM      4  C   UNL     1      11.928 -12.140  -5.579  0.00  0.00    +0.077 A 
ATOM      5  C   UNL     1      12.285 -12.825  -4.370  0.00  0.00    +0.048 A 
ATOM      6  C   UNL     1      13.656 -12.871  -4.031  0.00  0.00    +0.116 A 
ATOM      7  N   UNL     1      14.591 -12.272  -4.847  0.00  0.00    -0.223 NA
ATOM      8  C   UNL     1      14.213 -11.621  -6.006  0.00  0.00    +0.220 A 
ATOM      9  N   UNL     1      15.136 -11.005  -6.838  0.00  0.00    -0.283 N 
ATOM     36  H   UNL     1      14.817 -10.541  -7.688  0.00  0.00    +0.155 HD
ATOM     37  N   UNL     1      12.910 -11.564  -6.353  0.00  0.00    -0.214 NA
BRANCH   4   3
ATOM      1  C   UNL     1       8.788 -11.935  -7.903  0.00  0.00    +0.020 A 
ATOM      2  C   UNL     1      10.163 -12.073  -7.482  0.00  0.00    +0.013 A 
ATOM      3  C   UNL     1      10.520 -12.003  -6.070  0.00  0.00    +0.019 A 
ATOM     38  C   UNL     1       9.453 -11.791  -5.103  0.00  0.00    +0.120 A 
ATOM     39  N   UNL     1       8.138 -11.660  -5.539  0.00  0.00    -0.263 NA
ATOM     40  C   UNL     1       7.783 -11.725  -6.895  0.00  0.00    +0.111 A 
ENDBRANCH   4   3
ENDBRANCH  10   9
BRANCH  12  13
ATOM     13  N   UNL     1      19.375 -13.539  -6.235  0.00  0.00    -0.281 N 
ATOM     14  C   UNL     1      19.301 -14.597  -5.343  0.00  0.00    +0.248 C 
ATOM     30  O   UNL     1      18.716 -14.558  -4.272  0.00  0.00    -0.270 OA
ATOM     31  H   UNL     1      20.051 -13.638  -6.993  0.00  0.00    +0.155 HD
BRANCH  14  15
ATOM     15  C   UNL     1      19.990 -15.878  -5.685  0.00  0.00    +0.037 A 
ATOM     16  C   UNL     1      21.165 -15.900  -6.561  0.00  0.00    +0.013 A 
ATOM     17  C   UNL     1      21.800 -17.152  -6.888  0.00  0.00    +0.005 A 
ATOM     18  C   UNL     1      21.262 -18.393  -6.337  0.00  0.00    -0.033 A 
ATOM     28  C   UNL     1      20.099 -18.343  -5.467  0.00  0.00    +0.005 A 
ATOM     29  C   UNL     1      19.473 -17.118  -5.145  0.00  0.00    +0.013 A 
BRANCH  18  19
ATOM     19  C   UNL     1      21.863 -19.776  -6.650  0.00  0.00    +0.119 C 
BRANCH  19  20
ATOM     20  N   UNL     1      21.114 -20.648  -7.603  0.00  0.00    -0.302 NA
ATOM     21  C   UNL     1      21.156 -22.122  -7.190  0.00  0.00    +0.066 C 
ATOM     22  C   UNL     1      20.349 -23.016  -8.186  0.00  0.00    -0.064 C 
ATOM     23  N   UNL     1      20.906 -22.834  -9.598  0.00  0.00    +0.379 N 
ATOM     24  C   UNL     1      20.187 -23.717 -10.528  0.00  0.00    -0.096 C 
ATOM     25  H   UNL     1      21.974 -23.155  -9.584  0.00  0.00    -0.082 HD
ATOM     26  C   UNL     1      20.870 -21.371 -10.016  0.00  0.00    -0.064 C 
ATOM     27  C   UNL     1      21.651 -20.487  -9.004  0.00  0.00    +0.066 C 
ENDBRANCH  19  20
ENDBRANCH  18  19
ENDBRANCH  14  15
ENDBRANCH  12  13
TORSDOF 6
ENDMDL
MODEL 4
REMARK VINA RESULT:      -7.3     23.423     27.707
REMARK  Name = C:\Users\Docking\Desktop\test protocol\1iep_ligandH.pdb
REMARK  8 active torsions:
REMARK  status: ('A' for Active; 'I' for Inactive)
REMARK    1  A    between atoms: _5  and  _11
REMARK    2  A    between atoms: _19  and  _21
REMARK    3  A    between atoms: _22  and  _66
REMARK    4  A    between atoms: _27  and  _30
REMARK    5  A    between atoms: _32  and  _33
REMARK    6  A    between atoms: _38  and  _43
REMARK    7  A    between atoms: _43  and  _46
REMARK    8  A    between atoms: _53  and  _55
REMARK                            x       y       z     vdW  Elec       q    Type
REMARK                         _______ _______ _______ _____ _____    ______ ____
ROOT
ATOM     10  C   UNL     1      16.410 -11.047  -5.516  0.00  0.00    +0.038 A 
ATOM     11  C   UNL     1      17.119 -12.271  -5.620  0.00  0.00    +0.047 A 
ATOM     12  C   UNL     1      18.456 -12.320  -6.191  0.00  0.00    +0.035 A 
ATOM     32  C   UNL     1      19.042 -11.103  -6.644  0.00  0.00    +0.024 A 
ATOM     33  C   UNL     1      18.335  -9.850  -6.547  0.00  0.00    +0.007 A 
ATOM     34  C   UNL     1      17.015  -9.796  -5.987  0.00  0.00    -0.029 A 
ATOM     35  C   UNL     1      16.302  -8.425  -5.913  0.00  0.00    +0.045 C 
ENDROOT
BRANCH  10   9
ATOM      4  C   UNL     1      11.630 -11.256  -5.899  0.00  0.00    +0.077 A 
ATOM      5  C   UNL     1      11.688 -11.321  -7.331  0.00  0.00    +0.048 A 
ATOM      6  C   UNL     1      12.968 -11.292  -7.930  0.00  0.00    +0.116 A 
ATOM      7  N   UNL     1      14.097 -11.203  -7.146  0.00  0.00    -0.223 NA
ATOM      8  C   UNL     1      14.006 -11.140  -5.768  0.00  0.00    +0.220 A 
ATOM      9  N   UNL     1      15.129 -11.058  -4.959  0.00  0.00    -0.283 N 
ATOM     36  H   UNL     1      15.019 -11.006  -3.947  0.00  0.00    +0.155 HD
ATOM     37  N   UNL     1      12.796 -11.165  -5.171  0.00  0.00    -0.214 NA
BRANCH   4   3
ATOM      1  C   UNL     1       8.946 -10.680  -3.112  0.00  0.00    +0.020 A 
ATOM      2  C   UNL     1      10.202 -10.627  -3.824  0.00  0.00    +0.013 A 
ATOM      3  C   UNL     1      10.353 -11.280  -5.118  0.00  0.00    +0.019 A 
ATOM     38  C   UNL     1       9.204 -11.984  -5.669  0.00  0.00    +0.120 A 
ATOM     39  N   UNL     1       8.007 -12.019  -4.959  0.00  0.00    -0.263 NA
ATOM     40  C   UNL     1       7.851 -11.396  -3.712  0.00  0.00    +0.111 A 
ENDBRANCH   4   3
ENDBRANCH  10   9
BRANCH  12  13
ATOM     13  N   UNL     1      19.221 -13.535  -6.330  0.00  0.00    -0.281 N 
ATOM     14  C   UNL     1      19.951 -14.197  -5.358  0.00  0.00    +0.248 C 
ATOM     30  O   UNL     1      20.234 -13.727  -4.266  0.00  0.00    -0.270 OA
ATOM     31  H   UNL     1      19.224 -13.957  -7.259  0.00  0.00    +0.155 HD
BRANCH  14  15
ATOM     15  C   UNL     1      20.453 -15.575  -5.645  0.00  0.00    +0.037 A 
ATOM     16  C   UNL     1      21.749 -15.792  -6.293  0.00  0.00    +0.013 A 
ATOM     17  C   UNL     1      22.202 -17.132  -6.574  0.00  0.00    +0.005 A 
ATOM     18  C   UNL     1      21.357 -18.265  -6.205  0.00  0.00    -0.033 A 
ATOM     28  C   UNL     1      20.078 -18.021  -5.558  0.00  0.00    +0.005 A 
ATOM     29  C   UNL     1      19.631 -16.710  -5.282  0.00  0.00    +0.013 A 
BRANCH  18  19
ATOM     19  C   UNL     1      21.751 -19.728  -6.485  0.00  0.00    +0.119 C 
BRANCH  19  20
ATOM     20  N   UNL     1      21.017 -20.436  -7.577  0.00  0.00    -0.302 NA
ATOM     21  C   UNL     1      20.718 -21.894  -7.216  0.00  0.00    +0.066 C 
ATOM     22  C   UNL     1      19.931 -22.613  -8.359  0.00  0.00    -0.064 C 
ATOM     23  N   UNL     1      20.734 -22.530  -9.658  0.00  0.00    +0.379 N 
ATOM     24  C   UNL     1      20.023 -23.256 -10.722  0.00  0.00    -0.096 C 
ATOM     25  H   UNL     1      21.707 -23.047  -9.488  0.00  0.00    -0.082 HD
ATOM     26  C   UNL     1      21.038 -21.084 -10.023  0.00  0.00    -0.064 C 
ATOM     27  C   UNL     1      21.795 -20.370  -8.868  0.00  0.00    +0.066 C 
ENDBRANCH  19  20
ENDBRANCH  18  19
ENDBRANCH  14  15
ENDBRANCH  12  13
TORSDOF 6
ENDMDL
MODEL 5
REMARK VINA RESULT:      -7.3     14.823     18.009
REMARK  Name = C:\Users\Docking\Desktop\test protocol\1iep_ligandH.pdb
REMARK  8 active torsions:
REMARK  status: ('A' for Active; 'I' for Inactive)
REMARK    1  A    between atoms: _5  and  _11
REMARK    2  A    between atoms: _19  and  _21
REMARK    3  A    between atoms: _22  and  _66
REMARK    4  A    between atoms: _27  and  _30
REMARK    5  A    between atoms: _32  and  _33
REMARK    6  A    between atoms: _38  and  _43
REMARK    7  A    between atoms: _43  and  _46
REMARK    8  A    between atoms: _53  and  _55
REMARK                            x       y       z     vdW  Elec       q    Type
REMARK                         _______ _______ _______ _____ _____    ______ ____
ROOT
ATOM     10  C   UNL     1      13.634  -7.798  -3.223  0.00  0.00    +0.038 A 
ATOM     11  C   UNL     1      14.049  -6.532  -2.737  0.00  0.00    +0.047 A 
ATOM     12  C   UNL     1      13.123  -5.412  -2.667  0.00  0.00    +0.035 A 
ATOM     32  C   UNL     1      11.780  -5.618  -3.097  0.00  0.00    +0.024 A 
ATOM     33  C   UNL     1      11.341  -6.899  -3.595  0.00  0.00    +0.007 A 
ATOM     34  C   UNL     1      12.251  -8.006  -3.669  0.00  0.00    -0.029 A 
ATOM     35  C   UNL     1      11.727  -9.354  -4.217  0.00  0.00    +0.045 C 
ENDROOT
BRANCH  10   9
ATOM      4  C   UNL     1      17.209 -10.188  -5.356  0.00  0.00    +0.077 A 
ATOM      5  C   UNL     1      17.203  -9.305  -6.486  0.00  0.00    +0.048 A 
ATOM      6  C   UNL     1      16.260  -8.253  -6.484  0.00  0.00    +0.116 A 
ATOM      7  N   UNL     1      15.392  -8.104  -5.424  0.00  0.00    -0.223 NA
ATOM      8  C   UNL     1      15.423  -8.974  -4.349  0.00  0.00    +0.220 A 
ATOM      9  N   UNL     1      14.565  -8.838  -3.269  0.00  0.00    -0.283 N 
ATOM     36  H   UNL     1      14.614  -9.505  -2.499  0.00  0.00    +0.155 HD
ATOM     37  N   UNL     1      16.313  -9.988  -4.329  0.00  0.00    -0.214 NA
BRANCH   4   3
ATOM      1  C   UNL     1      18.754 -13.779  -5.473  0.00  0.00    +0.020 A 
ATOM      2  C   UNL     1      17.811 -12.697  -5.635  0.00  0.00    +0.013 A 
ATOM      3  C   UNL     1      18.148 -11.344  -5.210  0.00  0.00    +0.019 A 
ATOM     38  C   UNL     1      19.459 -11.118  -4.621  0.00  0.00    +0.120 A 
ATOM     39  N   UNL     1      20.347 -12.180  -4.476  0.00  0.00    -0.263 NA
ATOM     40  C   UNL     1      20.033 -13.486  -4.880  0.00  0.00    +0.111 A 
ENDBRANCH   4   3
ENDBRANCH  10   9
BRANCH  12  13
ATOM     13  N   UNL     1      13.489  -4.102  -2.190  0.00  0.00    -0.281 N 
ATOM     14  C   UNL     1      13.522  -3.650  -0.881  0.00  0.00    +0.248 C 
ATOM     30  O   UNL     1      13.033  -4.245   0.068  0.00  0.00    -0.270 OA
ATOM     31  H   UNL     1      13.757  -3.425  -2.905  0.00  0.00    +0.155 HD
BRANCH  14  15
ATOM     15  C   UNL     1      14.181  -2.341  -0.585  0.00  0.00    +0.037 A 
ATOM     16  C   UNL     1      13.396  -1.113  -0.433  0.00  0.00    +0.013 A 
ATOM     17  C   UNL     1      14.058   0.139  -0.164  0.00  0.00    +0.005 A 
ATOM     18  C   UNL     1      15.514   0.168  -0.045  0.00  0.00    -0.033 A 
ATOM     28  C   UNL     1      16.267  -1.066  -0.196  0.00  0.00    +0.005 A 
ATOM     29  C   UNL     1      15.622  -2.295  -0.460  0.00  0.00    +0.013 A 
BRANCH  18  19
ATOM     19  C   UNL     1      16.305   1.463   0.219  0.00  0.00    +0.119 C 
BRANCH  19  20
ATOM     20  N   UNL     1      16.521   1.854   1.644  0.00  0.00    -0.302 NA
ATOM     21  C   UNL     1      15.528   2.927   2.102  0.00  0.00    +0.066 C 
ATOM     22  C   UNL     1      15.753   3.308   3.601  0.00  0.00    -0.064 C 
ATOM     23  N   UNL     1      17.193   3.786   3.793  0.00  0.00    +0.379 N 
ATOM     24  C   UNL     1      17.391   4.199   5.190  0.00  0.00    -0.096 C 
ATOM     25  H   UNL     1      17.340   4.684   3.150  0.00  0.00    -0.082 HD
ATOM     26  C   UNL     1      18.187   2.726   3.338  0.00  0.00    -0.064 C 
ATOM     27  C   UNL     1      17.936   2.333   1.855  0.00  0.00    +0.066 C 
ENDBRANCH  19  20
ENDBRANCH  18  19
ENDBRANCH  14  15
ENDBRANCH  12  13
TORSDOF 6
ENDMDL
