MODEL 1
REMARK VINA RESULT:      -8.4      0.000      0.000
REMARK  Name = C:\Users\Docking\Desktop\test protocol\1iep_ligandH.pdb
REMARK  8 active torsions:
REMARK  status: ('A' for Active; 'I' for Inactive)
REMARK    1  A    between atoms: _5  and  _11
REMARK    2  A    between atoms: _19  and  _21
REMARK    3  A    between atoms: _22  and  _66
REMARK    4  A    between atoms: _27  and  _30
REMARK    5  A    between atoms: _32  and  _33
REMARK    6  A    between atoms: _38  and  _43
REMARK    7  A    between atoms: _43  and  _46
REMARK    8  A    between atoms: _53  and  _55
REMARK                            x       y       z     vdW  Elec       q    Type
REMARK                         _______ _______ _______ _____ _____    ______ ____
ROOT
ATOM     10  C   UNL     1      20.498  -1.151   8.683  0.00  0.00    +0.038 A 
ATOM     11  C   UNL     1      20.963  -1.205  10.022  0.00  0.00    +0.047 A 
ATOM     12  C   UNL     1      20.376  -2.122  10.986  0.00  0.00    +0.035 A 
ATOM     32  C   UNL     1      19.318  -2.973  10.552  0.00  0.00    +0.024 A 
ATOM     33  C   UNL     1      18.833  -2.931   9.195  0.00  0.00    +0.007 A 
ATOM     34  C   UNL     1      19.406  -2.026   8.240  0.00  0.00    -0.029 A 
ATOM     35  C   UNL     1      18.841  -2.020   6.800  0.00  0.00    +0.045 C 
ENDROOT
BRANCH  10   9
ATOM      4  C   UNL     1      20.504   2.926   6.150  0.00  0.00    +0.077 A 
ATOM      5  C   UNL     1      19.191   3.281   6.606  0.00  0.00    +0.048 A 
ATOM      6  C   UNL     1      18.545   2.383   7.485  0.00  0.00    +0.116 A 
ATOM      7  N   UNL     1      19.175   1.221   7.874  0.00  0.00    -0.223 NA
ATOM      8  C   UNL     1      20.442   0.908   7.415  0.00  0.00    +0.220 A 
ATOM      9  N   UNL     1      21.097  -0.251   7.799  0.00  0.00    -0.283 N 
ATOM     36  H   UNL     1      22.028  -0.449   7.432  0.00  0.00    +0.155 HD
ATOM     37  N   UNL     1      21.079   1.748   6.573  0.00  0.00    -0.214 NA
BRANCH   4   3
ATOM      1  C   UNL     1      21.615   5.127   3.113  0.00  0.00    +0.020 A 
ATOM      2  C   UNL     1      20.788   4.314   3.975  0.00  0.00    +0.013 A 
ATOM      3  C   UNL     1      21.317   3.773   5.221  0.00  0.00    +0.019 A 
ATOM     38  C   UNL     1      22.697   4.077   5.568  0.00  0.00    +0.120 A 
ATOM     39  N   UNL     1      23.470   4.861   4.718  0.00  0.00    -0.263 NA
ATOM     40  C   UNL     1      22.972   5.386   3.516  0.00  0.00    +0.111 A 
ENDBRANCH   4   3
ENDBRANCH  10   9
BRANCH  12  13
ATOM     13  N   UNL     1      20.801  -2.215  12.361  0.00  0.00    -0.281 N 
ATOM     14  C   UNL     1      21.325  -3.317  13.017  0.00  0.00    +0.248 C 
ATOM     30  O   UNL     1      21.308  -4.456  12.576  0.00  0.00    -0.270 OA
ATOM     31  H   UNL     1      20.704  -1.366  12.917  0.00  0.00    +0.155 HD
BRANCH  14  15
ATOM     15  C   UNL     1      21.944  -3.127  14.365  0.00  0.00    +0.037 A 
ATOM     16  C   UNL     1      23.098  -3.924  14.790  0.00  0.00    +0.013 A 
ATOM     17  C   UNL     1      23.665  -3.733  16.101  0.00  0.00    +0.005 A 
ATOM     18  C   UNL     1      23.078  -2.739  16.997  0.00  0.00    -0.033 A 
ATOM     28  C   UNL     1      21.936  -1.960  16.548  0.00  0.00    +0.005 A 
ATOM     29  C   UNL     1      21.378  -2.145  15.264  0.00  0.00    +0.013 A 
BRANCH  18  19
ATOM     19  C   UNL     1      23.605  -2.484  18.422  0.00  0.00    +0.119 C 
BRANCH  19  20
ATOM     20  N   UNL     1      23.396  -3.563  19.432  0.00  0.00    -0.302 NA
ATOM     21  C   UNL     1      21.948  -4.064  19.447  0.00  0.00    +0.066 C 
ATOM     22  C   UNL     1      21.753  -5.209  20.494  0.00  0.00    -0.064 C 
ATOM     23  N   UNL     1      22.167  -4.706  21.878  0.00  0.00    +0.379 N 
ATOM     24  C   UNL     1      21.929  -5.762  22.874  0.00  0.00    -0.096 C 
ATOM     25  H   UNL     1      21.508  -3.844  22.135  0.00  0.00    -0.082 HD
ATOM     26  C   UNL     1      23.603  -4.204  21.871  0.00  0.00    -0.064 C 
ATOM     27  C   UNL     1      23.794  -3.087  20.807  0.00  0.00    +0.066 C 
ENDBRANCH  19  20
ENDBRANCH  18  19
ENDBRANCH  14  15
ENDBRANCH  12  13
TORSDOF 6
ENDMDL
MODEL 2
REMARK VINA RESULT:      -8.0      4.184     12.680
REMARK  Name = C:\Users\Docking\Desktop\test protocol\1iep_ligandH.pdb
REMARK  8 active torsions:
REMARK  status: ('A' for Active; 'I' for Inactive)
REMARK    1  A    between atoms: _5  and  _11
REMARK    2  A    between atoms: _19  and  _21
REMARK    3  A    between atoms: _22  and  _66
REMARK    4  A    between atoms: _27  and  _30
REMARK    5  A    between atoms: _32  and  _33
REMARK    6  A    between atoms: _38  and  _43
REMARK    7  A    between atoms: _43  and  _46
REMARK    8  A    between atoms: _53  and  _55
REMARK                            x       y       z     vdW  Elec       q    Type
REMARK                         _______ _______ _______ _____ _____    ______ ____
ROOT
ATOM     10  C   UNL     1      23.149  -1.320  18.498  0.00  0.00    +0.038 A 
ATOM     11  C   UNL     1      22.510  -1.280  17.233  0.00  0.00    +0.047 A 
ATOM     12  C   UNL     1      22.779  -2.291  16.221  0.00  0.00    +0.035 A 
ATOM     32  C   UNL     1      23.705  -3.329  16.534  0.00  0.00    +0.024 A 
ATOM     33  C   UNL     1      24.365  -3.384  17.814  0.00  0.00    +0.007 A 
ATOM     34  C   UNL     1      24.105  -2.389  18.815  0.00  0.00    -0.029 A 
ATOM     35  C   UNL     1      24.846  -2.493  20.168  0.00  0.00    +0.045 C 
ENDROOT
BRANCH  10   9
ATOM      4  C   UNL     1      24.045   2.887  20.628  0.00  0.00    +0.077 A 
ATOM      5  C   UNL     1      25.217   3.108  19.831  0.00  0.00    +0.048 A 
ATOM      6  C   UNL     1      25.559   2.112  18.890  0.00  0.00    +0.116 A 
ATOM      7  N   UNL     1      24.780   0.982  18.763  0.00  0.00    -0.223 NA
ATOM      8  C   UNL     1      23.656   0.800  19.548  0.00  0.00    +0.220 A 
ATOM      9  N   UNL     1      22.853  -0.324  19.432  0.00  0.00    -0.283 N 
ATOM     36  H   UNL     1      22.037  -0.425  20.035  0.00  0.00    +0.155 HD
ATOM     37  N   UNL     1      23.309   1.736  20.455  0.00  0.00    -0.214 NA
BRANCH   4   3
ATOM      1  C   UNL     1      23.918   5.536  23.503  0.00  0.00    +0.020 A 
ATOM      2  C   UNL     1      24.446   4.620  22.519  0.00  0.00    +0.013 A 
ATOM      3  C   UNL     1      23.552   3.850  21.663  0.00  0.00    +0.019 A 
ATOM     38  C   UNL     1      22.118   4.033  21.829  0.00  0.00    +0.120 A 
ATOM     39  N   UNL     1      21.638   4.922  22.786  0.00  0.00    -0.263 NA
ATOM     40  C   UNL     1      22.489   5.667  23.617  0.00  0.00    +0.111 A 
ENDBRANCH   4   3
ENDBRANCH  10   9
BRANCH  12  13
ATOM     13  N   UNL     1      22.166  -2.297  14.916  0.00  0.00    -0.281 N 
ATOM     14  C   UNL     1      20.863  -2.635  14.590  0.00  0.00    +0.248 C 
ATOM     30  O   UNL     1      20.082  -3.190  15.348  0.00  0.00    -0.270 OA
ATOM     31  H   UNL     1      22.766  -2.020  14.139  0.00  0.00    +0.155 HD
BRANCH  14  15
ATOM     15  C   UNL     1      20.359  -2.323  13.217  0.00  0.00    +0.037 A 
ATOM     16  C   UNL     1      19.302  -1.331  13.003  0.00  0.00    +0.013 A 
ATOM     17  C   UNL     1      18.822  -1.062  11.671  0.00  0.00    +0.005 A 
ATOM     18  C   UNL     1      19.401  -1.785  10.541  0.00  0.00    -0.033 A 
ATOM     28  C   UNL     1      20.452  -2.760  10.782  0.00  0.00    +0.005 A 
ATOM     29  C   UNL     1      20.924  -3.028  12.086  0.00  0.00    +0.013 A 
BRANCH  18  19
ATOM     19  C   UNL     1      18.936  -1.577   9.088  0.00  0.00    +0.119 C 
BRANCH  19  20
ATOM     20  N   UNL     1      18.978  -0.185   8.549  0.00  0.00    -0.302 NA
ATOM     21  C   UNL     1      18.549  -0.125   7.080  0.00  0.00    +0.066 C 
ATOM     22  C   UNL     1      18.578   1.342   6.539  0.00  0.00    -0.064 C 
ATOM     23  N   UNL     1      19.983   1.921   6.717  0.00  0.00    +0.379 N 
ATOM     24  C   UNL     1      20.028   3.279   6.156  0.00  0.00    -0.096 C 
ATOM     25  H   UNL     1      20.686   1.288   6.128  0.00  0.00    -0.082 HD
ATOM     26  C   UNL     1      20.418   1.862   8.174  0.00  0.00    -0.064 C 
ATOM     27  C   UNL     1      20.358   0.404   8.711  0.00  0.00    +0.066 C 
ENDBRANCH  19  20
ENDBRANCH  18  19
ENDBRANCH  14  15
ENDBRANCH  12  13
TORSDOF 6
ENDMDL
MODEL 3
REMARK VINA RESULT:      -8.0      2.082      2.977
REMARK  Name = C:\Users\Docking\Desktop\test protocol\1iep_ligandH.pdb
REMARK  8 active torsions:
REMARK  status: ('A' for Active; 'I' for Inactive)
REMARK    1  A    between atoms: _5  and  _11
REMARK    2  A    between atoms: _19  and  _21
REMARK    3  A    between atoms: _22  and  _66
REMARK    4  A    between atoms: _27  and  _30
REMARK    5  A    between atoms: _32  and  _33
REMARK    6  A    between atoms: _38  and  _43
REMARK    7  A    between atoms: _43  and  _46
REMARK    8  A    between atoms: _53  and  _55
REMARK                            x       y       z     vdW  Elec       q    Type
REMARK                         _______ _______ _______ _____ _____    ______ ____
ROOT
ATOM     10  C   UNL     1      20.151  -0.867   8.349  0.00  0.00    +0.038 A 
ATOM     11  C   UNL     1      20.517  -0.870   9.720  0.00  0.00    +0.047 A 
ATOM     12  C   UNL     1      19.835  -1.727  10.678  0.00  0.00    +0.035 A 
ATOM     32  C   UNL     1      18.787  -2.569  10.205  0.00  0.00    +0.024 A 
ATOM     33  C   UNL     1      18.402  -2.577   8.816  0.00  0.00    +0.007 A 
ATOM     34  C   UNL     1      19.069  -1.733   7.867  0.00  0.00    -0.029 A 
ATOM     35  C   UNL     1      18.609  -1.778   6.391  0.00  0.00    +0.045 C 
ENDROOT
BRANCH  10   9
ATOM      4  C   UNL     1      20.533   3.173   5.786  0.00  0.00    +0.077 A 
ATOM      5  C   UNL     1      19.241   3.633   6.208  0.00  0.00    +0.048 A 
ATOM      6  C   UNL     1      18.507   2.797   7.079  0.00  0.00    +0.116 A 
ATOM      7  N   UNL     1      19.036   1.593   7.491  0.00  0.00    -0.223 NA
ATOM      8  C   UNL     1      20.284   1.179   7.064  0.00  0.00    +0.220 A 
ATOM      9  N   UNL     1      20.839  -0.025   7.473  0.00  0.00    -0.283 N 
ATOM     36  H   UNL     1      21.759  -0.298   7.129  0.00  0.00    +0.155 HD
ATOM     37  N   UNL     1      21.004   1.958   6.231  0.00  0.00    -0.214 NA
BRANCH   4   3
ATOM      1  C   UNL     1      23.680   4.863   4.192  0.00  0.00    +0.020 A 
ATOM      2  C   UNL     1      22.858   4.107   5.109  0.00  0.00    +0.013 A 
ATOM      3  C   UNL     1      21.430   3.946   4.869  0.00  0.00    +0.019 A 
ATOM     38  C   UNL     1      20.860   4.566   3.683  0.00  0.00    +0.120 A 
ATOM     39  N   UNL     1      21.675   5.289   2.818  0.00  0.00    -0.263 NA
ATOM     40  C   UNL     1      23.051   5.452   3.040  0.00  0.00    +0.111 A 
ENDBRANCH   4   3
ENDBRANCH  10   9
BRANCH  12  13
ATOM     13  N   UNL     1      20.158  -1.767  12.083  0.00  0.00    -0.281 N 
ATOM     14  C   UNL     1      20.792  -2.781  12.782  0.00  0.00    +0.248 C 
ATOM     30  O   UNL     1      20.989  -3.905  12.344  0.00  0.00    -0.270 OA
ATOM     31  H   UNL     1      19.885  -0.949  12.628  0.00  0.00    +0.155 HD
BRANCH  14  15
ATOM     15  C   UNL     1      21.263  -2.512  14.175  0.00  0.00    +0.037 A 
ATOM     16  C   UNL     1      22.556  -3.011  14.649  0.00  0.00    +0.013 A 
ATOM     17  C   UNL     1      22.979  -2.752  16.003  0.00  0.00    +0.005 A 
ATOM     18  C   UNL     1      22.107  -1.988  16.892  0.00  0.00    -0.033 A 
ATOM     28  C   UNL     1      20.831  -1.501  16.394  0.00  0.00    +0.005 A 
ATOM     29  C   UNL     1      20.413  -1.754  15.068  0.00  0.00    +0.013 A 
BRANCH  18  19
ATOM     19  C   UNL     1      22.468  -1.683  18.358  0.00  0.00    +0.119 C 
BRANCH  19  20
ATOM     20  N   UNL     1      23.127  -0.373  18.641  0.00  0.00    -0.302 NA
ATOM     21  C   UNL     1      24.076  -0.455  19.840  0.00  0.00    +0.066 C 
ATOM     22  C   UNL     1      24.775   0.917  20.108  0.00  0.00    -0.064 C 
ATOM     23  N   UNL     1      23.710   1.993  20.332  0.00  0.00    +0.379 N 
ATOM     24  C   UNL     1      24.364   3.273  20.642  0.00  0.00    -0.096 C 
ATOM     25  H   UNL     1      23.111   1.695  21.224  0.00  0.00    -0.082 HD
ATOM     26  C   UNL     1      22.761   2.079  19.146  0.00  0.00    -0.064 C 
ATOM     27  C   UNL     1      22.095   0.703  18.869  0.00  0.00    +0.066 C 
ENDBRANCH  19  20
ENDBRANCH  18  19
ENDBRANCH  14  15
ENDBRANCH  12  13
TORSDOF 6
ENDMDL
MODEL 4
REMARK VINA RESULT:      -7.8      5.984     14.297
REMARK  Name = C:\Users\Docking\Desktop\test protocol\1iep_ligandH.pdb
REMARK  8 active torsions:
REMARK  status: ('A' for Active; 'I' for Inactive)
REMARK    1  A    between atoms: _5  and  _11
REMARK    2  A    between atoms: _19  and  _21
REMARK    3  A    between atoms: _22  and  _66
REMARK    4  A    between atoms: _27  and  _30
REMARK    5  A    between atoms: _32  and  _33
REMARK    6  A    between atoms: _38  and  _43
REMARK    7  A    between atoms: _43  and  _46
REMARK    8  A    between atoms: _53  and  _55
REMARK                            x       y       z     vdW  Elec       q    Type
REMARK                         _______ _______ _______ _____ _____    ______ ____
ROOT
ATOM     10  C   UNL     1      18.236   0.428   7.367  0.00  0.00    +0.038 A 
ATOM     11  C   UNL     1      19.117   1.157   6.528  0.00  0.00    +0.047 A 
ATOM     12  C   UNL     1      18.998   2.599   6.384  0.00  0.00    +0.035 A 
ATOM     32  C   UNL     1      17.971   3.268   7.112  0.00  0.00    +0.024 A 
ATOM     33  C   UNL     1      17.066   2.543   7.968  0.00  0.00    +0.007 A 
ATOM     34  C   UNL     1      17.177   1.120   8.112  0.00  0.00    -0.029 A 
ATOM     35  C   UNL     1      16.175   0.393   9.039  0.00  0.00    +0.045 C 
ENDROOT
BRANCH  10   9
ATOM      4  C   UNL     1      20.001  -3.483   9.518  0.00  0.00    +0.077 A 
ATOM      5  C   UNL     1      20.684  -2.702  10.508  0.00  0.00    +0.048 A 
ATOM      6  C   UNL     1      20.562  -1.297  10.424  0.00  0.00    +0.116 A 
ATOM      7  N   UNL     1      19.809  -0.726   9.421  0.00  0.00    -0.223 NA
ATOM      8  C   UNL     1      19.164  -1.508   8.481  0.00  0.00    +0.220 A 
ATOM      9  N   UNL     1      18.395  -0.956   7.468  0.00  0.00    -0.283 N 
ATOM     36  H   UNL     1      17.941  -1.567   6.789  0.00  0.00    +0.155 HD
ATOM     37  N   UNL     1      19.266  -2.852   8.538  0.00  0.00    -0.214 NA
BRANCH   4   3
ATOM      1  C   UNL     1      20.752  -7.227  10.363  0.00  0.00    +0.020 A 
ATOM      2  C   UNL     1      20.756  -5.785  10.449  0.00  0.00    +0.013 A 
ATOM      3  C   UNL     1      20.031  -4.979   9.475  0.00  0.00    +0.019 A 
ATOM     38  C   UNL     1      19.306  -5.669   8.418  0.00  0.00    +0.120 A 
ATOM     39  N   UNL     1      19.322  -7.059   8.360  0.00  0.00    -0.263 NA
ATOM     40  C   UNL     1      20.018  -7.845   9.290  0.00  0.00    +0.111 A 
ENDBRANCH   4   3
ENDBRANCH  10   9
BRANCH  12  13
ATOM     13  N   UNL     1      19.858   3.391   5.540  0.00  0.00    -0.281 N 
ATOM     14  C   UNL     1      21.226   3.579   5.656  0.00  0.00    +0.248 C 
ATOM     30  O   UNL     1      21.886   3.264   6.635  0.00  0.00    -0.270 OA
ATOM     31  H   UNL     1      19.404   3.872   4.764  0.00  0.00    +0.155 HD
BRANCH  14  15
ATOM     15  C   UNL     1      21.964   4.224   4.528  0.00  0.00    +0.037 A 
ATOM     16  C   UNL     1      21.259   4.726   3.346  0.00  0.00    +0.013 A 
ATOM     17  C   UNL     1      21.997   5.328   2.264  0.00  0.00    +0.005 A 
ATOM     18  C   UNL     1      23.451   5.432   2.360  0.00  0.00    -0.033 A 
ATOM     28  C   UNL     1      24.125   4.930   3.546  0.00  0.00    +0.005 A 
ATOM     29  C   UNL     1      23.405   4.338   4.608  0.00  0.00    +0.013 A 
BRANCH  18  19
ATOM     19  C   UNL     1      24.321   6.040   1.245  0.00  0.00    +0.119 C 
BRANCH  19  20
ATOM     20  N   UNL     1      24.505   7.522   1.252  0.00  0.00    -0.302 NA
ATOM     21  C   UNL     1      23.769   8.198   0.092  0.00  0.00    +0.066 C 
ATOM     22  C   UNL     1      23.954   9.750   0.128  0.00  0.00    -0.064 C 
ATOM     23  N   UNL     1      25.446  10.085   0.091  0.00  0.00    +0.379 N 
ATOM     24  C   UNL     1      25.621  11.544   0.066  0.00  0.00    -0.096 C 
ATOM     25  H   UNL     1      25.860   9.678  -0.861  0.00  0.00    -0.082 HD
ATOM     26  C   UNL     1      26.186   9.414   1.240  0.00  0.00    -0.064 C 
ATOM     27  C   UNL     1      25.972   7.875   1.212  0.00  0.00    +0.066 C 
ENDBRANCH  19  20
ENDBRANCH  18  19
ENDBRANCH  14  15
ENDBRANCH  12  13
TORSDOF 6
ENDMDL
MODEL 5
REMARK VINA RESULT:      -7.7      5.495      8.616
REMARK  Name = C:\Users\Docking\Desktop\test protocol\1iep_ligandH.pdb
REMARK  8 active torsions:
REMARK  status: ('A' for Active; 'I' for Inactive)
REMARK    1  A    between atoms: _5  and  _11
REMARK    2  A    between atoms: _19  and  _21
REMARK    3  A    between atoms: _22  and  _66
REMARK    4  A    between atoms: _27  and  _30
REMARK    5  A    between atoms: _32  and  _33
REMARK    6  A    between atoms: _38  and  _43
REMARK    7  A    between atoms: _43  and  _46
REMARK    8  A    between atoms: _53  and  _55
REMARK                            x       y       z     vdW  Elec       q    Type
REMARK                         _______ _______ _______ _____ _____    ______ ____
ROOT
ATOM     10  C   UNL     1      22.262  -2.758  15.885  0.00  0.00    +0.038 A 
ATOM     11  C   UNL     1      22.712  -1.556  16.490  0.00  0.00    +0.047 A 
ATOM     12  C   UNL     1      22.888  -1.459  17.930  0.00  0.00    +0.035 A 
ATOM     32  C   UNL     1      22.599  -2.606  18.725  0.00  0.00    +0.024 A 
ATOM     33  C   UNL     1      22.139  -3.835  18.128  0.00  0.00    +0.007 A 
ATOM     34  C   UNL     1      21.961  -3.936  16.707  0.00  0.00    -0.029 A 
ATOM     35  C   UNL     1      21.460  -5.277  16.122  0.00  0.00    +0.045 C 
ENDROOT
BRANCH  10   9
ATOM      4  C   UNL     1      19.749  -1.943  11.878  0.00  0.00    +0.077 A 
ATOM      5  C   UNL     1      18.632  -1.422  12.613  0.00  0.00    +0.048 A 
ATOM      6  C   UNL     1      18.742  -1.388  14.021  0.00  0.00    +0.116 A 
ATOM      7  N   UNL     1      19.888  -1.843  14.638  0.00  0.00    -0.223 NA
ATOM      8  C   UNL     1      20.945  -2.340  13.899  0.00  0.00    +0.220 A 
ATOM      9  N   UNL     1      22.110  -2.796  14.497  0.00  0.00    -0.283 N 
ATOM     36  H   UNL     1      22.865  -3.162  13.917  0.00  0.00    +0.155 HD
ATOM     37  N   UNL     1      20.865  -2.385  12.553  0.00  0.00    -0.214 NA
BRANCH   4   3
ATOM      1  C   UNL     1      20.864  -1.625   8.142  0.00  0.00    +0.020 A 
ATOM      2  C   UNL     1      20.877  -1.504   9.581  0.00  0.00    +0.013 A 
ATOM      3  C   UNL     1      19.785  -2.041  10.384  0.00  0.00    +0.019 A 
ATOM     38  C   UNL     1      18.688  -2.702   9.694  0.00  0.00    +0.120 A 
ATOM     39  N   UNL     1      18.702  -2.803   8.307  0.00  0.00    -0.263 NA
ATOM     40  C   UNL     1      19.746  -2.288   7.523  0.00  0.00    +0.111 A 
ENDBRANCH   4   3
ENDBRANCH  10   9
BRANCH  12  13
ATOM     13  N   UNL     1      23.334  -0.263  18.601  0.00  0.00    -0.281 N 
ATOM     14  C   UNL     1      22.721   0.979  18.625  0.00  0.00    +0.248 C 
ATOM     30  O   UNL     1      21.799   1.309  17.894  0.00  0.00    -0.270 OA
ATOM     31  H   UNL     1      24.208  -0.341  19.121  0.00  0.00    +0.155 HD
BRANCH  14  15
ATOM     15  C   UNL     1      23.211   2.007  19.593  0.00  0.00    +0.037 A 
ATOM     16  C   UNL     1      24.570   1.951  20.138  0.00  0.00    +0.013 A 
ATOM     17  C   UNL     1      25.012   2.946  21.082  0.00  0.00    +0.005 A 
ATOM     18  C   UNL     1      24.093   4.008  21.487  0.00  0.00    -0.033 A 
ATOM     28  C   UNL     1      22.752   4.043  20.927  0.00  0.00    +0.005 A 
ATOM     29  C   UNL     1      22.315   3.068  20.001  0.00  0.00    +0.013 A 
BRANCH  18  19
ATOM     19  C   UNL     1      24.473   5.099  22.505  0.00  0.00    +0.119 C 
BRANCH  19  20
ATOM     20  N   UNL     1      24.547   4.698  23.942  0.00  0.00    -0.302 NA
ATOM     21  C   UNL     1      23.158   4.509  24.558  0.00  0.00    +0.066 C 
ATOM     22  C   UNL     1      23.255   4.067  26.055  0.00  0.00    -0.064 C 
ATOM     23  N   UNL     1      24.059   5.105  26.839  0.00  0.00    +0.379 N 
ATOM     24  C   UNL     1      24.102   4.722  28.258  0.00  0.00    -0.096 C 
ATOM     25  H   UNL     1      23.517   6.077  26.767  0.00  0.00    -0.082 HD
ATOM     26  C   UNL     1      25.440   5.302  26.231  0.00  0.00    -0.064 C 
ATOM     27  C   UNL     1      25.333   5.712  24.736  0.00  0.00    +0.066 C 
ENDBRANCH  19  20
ENDBRANCH  18  19
ENDBRANCH  14  15
ENDBRANCH  12  13
TORSDOF 6
ENDMDL
