MODEL 1
REMARK VINA RESULT:      -9.2      0.000      0.000
REMARK  Name = C:\Users\Docking\Desktop\test protocol\1iep_ligandH.pdb
REMARK  8 active torsions:
REMARK  status: ('A' for Active; 'I' for Inactive)
REMARK    1  A    between atoms: _5  and  _11
REMARK    2  A    between atoms: _19  and  _21
REMARK    3  A    between atoms: _22  and  _66
REMARK    4  A    between atoms: _27  and  _30
REMARK    5  A    between atoms: _32  and  _33
REMARK    6  A    between atoms: _38  and  _43
REMARK    7  A    between atoms: _43  and  _46
REMARK    8  A    between atoms: _53  and  _55
REMARK                            x       y       z     vdW  Elec       q    Type
REMARK                         _______ _______ _______ _____ _____    ______ ____
ROOT
ATOM     10  C   UNL     1      20.969  -4.235  15.349  0.00  0.00    +0.038 A 
ATOM     11  C   UNL     1      21.781  -4.891  14.389  0.00  0.00    +0.047 A 
ATOM     12  C   UNL     1      21.429  -6.206  13.878  0.00  0.00    +0.035 A 
ATOM     32  C   UNL     1      20.240  -6.824  14.363  0.00  0.00    +0.024 A 
ATOM     33  C   UNL     1      19.403  -6.172  15.340  0.00  0.00    +0.007 A 
ATOM     34  C   UNL     1      19.747  -4.876  15.850  0.00  0.00    -0.029 A 
ATOM     35  C   UNL     1      18.815  -4.227  16.901  0.00  0.00    +0.045 C 
ENDROOT
BRANCH  10   9
ATOM      4  C   UNL     1      23.295  -1.376  18.423  0.00  0.00    +0.077 A 
ATOM      5  C   UNL     1      23.759  -2.489  19.199  0.00  0.00    +0.048 A 
ATOM      6  C   UNL     1      23.371  -3.781  18.778  0.00  0.00    +0.116 A 
ATOM      7  N   UNL     1      22.578  -3.935  17.662  0.00  0.00    -0.223 NA
ATOM      8  C   UNL     1      22.146  -2.840  16.937  0.00  0.00    +0.220 A 
ATOM      9  N   UNL     1      21.354  -2.973  15.806  0.00  0.00    -0.283 N 
ATOM     36  H   UNL     1      21.051  -2.140  15.303  0.00  0.00    +0.155 HD
ATOM     37  N   UNL     1      22.502  -1.596  17.319  0.00  0.00    -0.214 NA
BRANCH   4   3
ATOM      1  C   UNL     1      25.242   1.969  18.994  0.00  0.00    +0.020 A 
ATOM      2  C   UNL     1      24.979   0.583  18.680  0.00  0.00    +0.013 A 
ATOM      3  C   UNL     1      23.623   0.051  18.739  0.00  0.00    +0.019 A 
ATOM     38  C   UNL     1      22.548   0.953  19.122  0.00  0.00    +0.120 A 
ATOM     39  N   UNL     1      22.832   2.282  19.420  0.00  0.00    -0.263 NA
ATOM     40  C   UNL     1      24.133   2.806  19.368  0.00  0.00    +0.111 A 
ENDBRANCH   4   3
ENDBRANCH  10   9
BRANCH  12  13
ATOM     13  N   UNL     1      22.220  -6.924  12.909  0.00  0.00    -0.281 N 
ATOM     14  C   UNL     1      22.326  -6.682  11.549  0.00  0.00    +0.248 C 
ATOM     30  O   UNL     1      21.587  -5.939  10.919  0.00  0.00    -0.270 OA
ATOM     31  H   UNL     1      22.767  -7.705  13.269  0.00  0.00    +0.155 HD
BRANCH  14  15
ATOM     15  C   UNL     1      23.399  -7.376  10.773  0.00  0.00    +0.037 A 
ATOM     16  C   UNL     1      23.654  -8.808  10.944  0.00  0.00    +0.013 A 
ATOM     17  C   UNL     1      24.706  -9.450  10.196  0.00  0.00    +0.005 A 
ATOM     18  C   UNL     1      25.511  -8.657   9.269  0.00  0.00    -0.033 A 
ATOM     28  C   UNL     1      25.233  -7.239   9.116  0.00  0.00    +0.005 A 
ATOM     29  C   UNL     1      24.203  -6.607   9.848  0.00  0.00    +0.013 A 
BRANCH  18  19
ATOM     19  C   UNL     1      26.668  -9.254   8.446  0.00  0.00    +0.119 C 
BRANCH  19  20
ATOM     20  N   UNL     1      28.036  -9.187   9.041  0.00  0.00    -0.302 NA
ATOM     21  C   UNL     1      28.776  -7.908   8.638  0.00  0.00    +0.066 C 
ATOM     22  C   UNL     1      30.197  -7.843   9.288  0.00  0.00    -0.064 C 
ATOM     23  N   UNL     1      30.997  -9.082   8.882  0.00  0.00    +0.379 N 
ATOM     24  C   UNL     1      32.353  -8.996   9.444  0.00  0.00    -0.096 C 
ATOM     25  H   UNL     1      31.090  -9.076   7.771  0.00  0.00    -0.082 HD
ATOM     26  C   UNL     1      30.267 -10.359   9.277  0.00  0.00    -0.064 C 
ATOM     27  C   UNL     1      28.845 -10.399   8.650  0.00  0.00    +0.066 C 
ENDBRANCH  19  20
ENDBRANCH  18  19
ENDBRANCH  14  15
ENDBRANCH  12  13
TORSDOF 6
ENDMDL
MODEL 2
REMARK VINA RESULT:      -8.6      7.672     11.862
REMARK  Name = C:\Users\Docking\Desktop\test protocol\1iep_ligandH.pdb
REMARK  8 active torsions:
REMARK  status: ('A' for Active; 'I' for Inactive)
REMARK    1  A    between atoms: _5  and  _11
REMARK    2  A    between atoms: _19  and  _21
REMARK    3  A    between atoms: _22  and  _66
REMARK    4  A    between atoms: _27  and  _30
REMARK    5  A    between atoms: _32  and  _33
REMARK    6  A    between atoms: _38  and  _43
REMARK    7  A    between atoms: _43  and  _46
REMARK    8  A    between atoms: _53  and  _55
REMARK                            x       y       z     vdW  Elec       q    Type
REMARK                         _______ _______ _______ _____ _____    ______ ____
ROOT
ATOM     10  C   UNL     1      20.594  -0.960   8.629  0.00  0.00    +0.038 A 
ATOM     11  C   UNL     1      20.912  -0.817  10.004  0.00  0.00    +0.047 A 
ATOM     12  C   UNL     1      20.371  -1.729  11.000  0.00  0.00    +0.035 A 
ATOM     32  C   UNL     1      19.511  -2.777  10.560  0.00  0.00    +0.024 A 
ATOM     33  C   UNL     1      19.177  -2.937   9.166  0.00  0.00    +0.007 A 
ATOM     34  C   UNL     1      19.706  -2.039   8.180  0.00  0.00    -0.029 A 
ATOM     35  C   UNL     1      19.308  -2.253   6.701  0.00  0.00    +0.045 C 
ENDROOT
BRANCH  10   9
ATOM      4  C   UNL     1      20.400   3.066   6.024  0.00  0.00    +0.077 A 
ATOM      5  C   UNL     1      19.086   3.383   6.503  0.00  0.00    +0.048 A 
ATOM      6  C   UNL     1      18.492   2.480   7.413  0.00  0.00    +0.116 A 
ATOM      7  N   UNL     1      19.171   1.348   7.808  0.00  0.00    -0.223 NA
ATOM      8  C   UNL     1      20.437   1.072   7.326  0.00  0.00    +0.220 A 
ATOM      9  N   UNL     1      21.142  -0.057   7.715  0.00  0.00    -0.283 N 
ATOM     36  H   UNL     1      22.071  -0.229   7.331  0.00  0.00    +0.155 HD
ATOM     37  N   UNL     1      21.026   1.918   6.455  0.00  0.00    -0.214 NA
BRANCH   4   3
ATOM      1  C   UNL     1      21.362   5.253   2.927  0.00  0.00    +0.020 A 
ATOM      2  C   UNL     1      20.584   4.429   3.822  0.00  0.00    +0.013 A 
ATOM      3  C   UNL     1      21.161   3.924   5.061  0.00  0.00    +0.019 A 
ATOM     38  C   UNL     1      22.540   4.276   5.368  0.00  0.00    +0.120 A 
ATOM     39  N   UNL     1      23.265   5.070   4.486  0.00  0.00    -0.263 NA
ATOM     40  C   UNL     1      22.720   5.560   3.289  0.00  0.00    +0.111 A 
ENDBRANCH   4   3
ENDBRANCH  10   9
BRANCH  12  13
ATOM     13  N   UNL     1      20.652  -1.628  12.411  0.00  0.00    -0.281 N 
ATOM     14  C   UNL     1      19.776  -1.295  13.431  0.00  0.00    +0.248 C 
ATOM     30  O   UNL     1      18.662  -0.823  13.260  0.00  0.00    -0.270 OA
ATOM     31  H   UNL     1      21.612  -1.826  12.691  0.00  0.00    +0.155 HD
BRANCH  14  15
ATOM     15  C   UNL     1      20.206  -1.504  14.848  0.00  0.00    +0.037 A 
ATOM     16  C   UNL     1      21.212  -2.511  15.196  0.00  0.00    +0.013 A 
ATOM     17  C   UNL     1      21.596  -2.703  16.572  0.00  0.00    +0.005 A 
ATOM     18  C   UNL     1      20.974  -1.885  17.610  0.00  0.00    -0.033 A 
ATOM     28  C   UNL     1      19.982  -0.890  17.236  0.00  0.00    +0.005 A 
ATOM     29  C   UNL     1      19.603  -0.699  15.889  0.00  0.00    +0.013 A 
BRANCH  18  19
ATOM     19  C   UNL     1      21.307  -2.037  19.106  0.00  0.00    +0.119 C 
BRANCH  19  20
ATOM     20  N   UNL     1      22.340  -3.049  19.478  0.00  0.00    -0.302 NA
ATOM     21  C   UNL     1      21.715  -4.388  19.879  0.00  0.00    +0.066 C 
ATOM     22  C   UNL     1      22.811  -5.442  20.243  0.00  0.00    -0.064 C 
ATOM     23  N   UNL     1      23.688  -4.893  21.370  0.00  0.00    +0.379 N 
ATOM     24  C   UNL     1      24.684  -5.905  21.753  0.00  0.00    -0.096 C 
ATOM     25  H   UNL     1      23.031  -4.714  22.252  0.00  0.00    -0.082 HD
ATOM     26  C   UNL     1      24.312  -3.561  20.980  0.00  0.00    -0.064 C 
ATOM     27  C   UNL     1      23.215  -2.530  20.592  0.00  0.00    +0.066 C 
ENDBRANCH  19  20
ENDBRANCH  18  19
ENDBRANCH  14  15
ENDBRANCH  12  13
TORSDOF 6
ENDMDL
MODEL 3
REMARK VINA RESULT:      -8.5      6.576      9.830
REMARK  Name = C:\Users\Docking\Desktop\test protocol\1iep_ligandH.pdb
REMARK  8 active torsions:
REMARK  status: ('A' for Active; 'I' for Inactive)
REMARK    1  A    between atoms: _5  and  _11
REMARK    2  A    between atoms: _19  and  _21
REMARK    3  A    between atoms: _22  and  _66
REMARK    4  A    between atoms: _27  and  _30
REMARK    5  A    between atoms: _32  and  _33
REMARK    6  A    between atoms: _38  and  _43
REMARK    7  A    between atoms: _43  and  _46
REMARK    8  A    between atoms: _53  and  _55
REMARK                            x       y       z     vdW  Elec       q    Type
REMARK                         _______ _______ _______ _____ _____    ______ ____
ROOT
ATOM     10  C   UNL     1      22.403  -3.467  21.287  0.00  0.00    +0.038 A 
ATOM     11  C   UNL     1      21.847  -3.593  19.988  0.00  0.00    +0.047 A 
ATOM     12  C   UNL     1      22.279  -2.734  18.897  0.00  0.00    +0.035 A 
ATOM     32  C   UNL     1      23.282  -1.757  19.164  0.00  0.00    +0.024 A 
ATOM     33  C   UNL     1      23.858  -1.614  20.478  0.00  0.00    +0.007 A 
ATOM     34  C   UNL     1      23.434  -2.458  21.558  0.00  0.00    -0.029 A 
ATOM     35  C   UNL     1      24.081  -2.255  22.948  0.00  0.00    +0.045 C 
ENDROOT
BRANCH  10   9
ATOM      4  C   UNL     1      22.632  -7.553  23.795  0.00  0.00    +0.077 A 
ATOM      5  C   UNL     1      23.728  -8.043  23.009  0.00  0.00    +0.048 A 
ATOM      6  C   UNL     1      24.198  -7.216  21.964  0.00  0.00    +0.116 A 
ATOM      7  N   UNL     1      23.609  -5.992  21.732  0.00  0.00    -0.223 NA
ATOM      8  C   UNL     1      22.553  -5.550  22.507  0.00  0.00    +0.220 A 
ATOM      9  N   UNL     1      21.951  -4.319  22.297  0.00  0.00    -0.283 N 
ATOM     36  H   UNL     1      21.170  -4.032  22.886  0.00  0.00    +0.155 HD
ATOM     37  N   UNL     1      22.085  -6.322  23.510  0.00  0.00    -0.214 NA
BRANCH   4   3
ATOM      1  C   UNL     1      20.439 -10.021  25.892  0.00  0.00    +0.020 A 
ATOM      2  C   UNL     1      20.991  -9.319  24.756  0.00  0.00    +0.013 A 
ATOM      3  C   UNL     1      22.026  -8.309  24.936  0.00  0.00    +0.019 A 
ATOM     38  C   UNL     1      22.485  -8.031  26.289  0.00  0.00    +0.120 A 
ATOM     39  N   UNL     1      21.934  -8.722  27.363  0.00  0.00    -0.263 NA
ATOM     40  C   UNL     1      20.936  -9.695  27.203  0.00  0.00    +0.111 A 
ENDBRANCH   4   3
ENDBRANCH  10   9
BRANCH  12  13
ATOM     13  N   UNL     1      21.744  -2.810  17.560  0.00  0.00    -0.281 N 
ATOM     14  C   UNL     1      21.125  -1.808  16.832  0.00  0.00    +0.248 C 
ATOM     30  O   UNL     1      20.743  -0.747  17.303  0.00  0.00    -0.270 OA
ATOM     31  H   UNL     1      21.834  -3.713  17.094  0.00  0.00    +0.155 HD
BRANCH  14  15
ATOM     15  C   UNL     1      20.881  -2.021  15.373  0.00  0.00    +0.037 A 
ATOM     16  C   UNL     1      19.823  -1.294  14.665  0.00  0.00    +0.013 A 
ATOM     17  C   UNL     1      19.598  -1.531  13.261  0.00  0.00    +0.005 A 
ATOM     18  C   UNL     1      20.434  -2.499  12.555  0.00  0.00    -0.033 A 
ATOM     28  C   UNL     1      21.479  -3.202  13.281  0.00  0.00    +0.005 A 
ATOM     29  C   UNL     1      21.702  -2.973  14.657  0.00  0.00    +0.013 A 
BRANCH  18  19
ATOM     19  C   UNL     1      20.251  -2.830  11.062  0.00  0.00    +0.119 C 
BRANCH  19  20
ATOM     20  N   UNL     1      19.888  -1.704  10.151  0.00  0.00    -0.302 NA
ATOM     21  C   UNL     1      19.326  -2.202   8.817  0.00  0.00    +0.066 C 
ATOM     22  C   UNL     1      18.931  -1.011   7.885  0.00  0.00    -0.064 C 
ATOM     23  N   UNL     1      20.152  -0.118   7.659  0.00  0.00    +0.379 N 
ATOM     24  C   UNL     1      19.799   0.971   6.736  0.00  0.00    -0.096 C 
ATOM     25  H   UNL     1      20.937  -0.737   7.166  0.00  0.00    -0.082 HD
ATOM     26  C   UNL     1      20.719   0.380   8.981  0.00  0.00    -0.064 C 
ATOM     27  C   UNL     1      21.081  -0.811   9.911  0.00  0.00    +0.066 C 
ENDBRANCH  19  20
ENDBRANCH  18  19
ENDBRANCH  14  15
ENDBRANCH  12  13
TORSDOF 6
ENDMDL
MODEL 4
REMARK VINA RESULT:      -8.4      6.959     11.669
REMARK  Name = C:\Users\Docking\Desktop\test protocol\1iep_ligandH.pdb
REMARK  8 active torsions:
REMARK  status: ('A' for Active; 'I' for Inactive)
REMARK    1  A    between atoms: _5  and  _11
REMARK    2  A    between atoms: _19  and  _21
REMARK    3  A    between atoms: _22  and  _66
REMARK    4  A    between atoms: _27  and  _30
REMARK    5  A    between atoms: _32  and  _33
REMARK    6  A    between atoms: _38  and  _43
REMARK    7  A    between atoms: _43  and  _46
REMARK    8  A    between atoms: _53  and  _55
REMARK                            x       y       z     vdW  Elec       q    Type
REMARK                         _______ _______ _______ _____ _____    ______ ____
ROOT
ATOM     10  C   UNL     1      20.755  -1.686   9.027  0.00  0.00    +0.038 A 
ATOM     11  C   UNL     1      20.862  -1.576  10.437  0.00  0.00    +0.047 A 
ATOM     12  C   UNL     1      20.309  -2.594  11.316  0.00  0.00    +0.035 A 
ATOM     32  C   UNL     1      19.656  -3.714  10.725  0.00  0.00    +0.024 A 
ATOM     33  C   UNL     1      19.536  -3.842   9.293  0.00  0.00    +0.007 A 
ATOM     34  C   UNL     1      20.078  -2.839   8.421  0.00  0.00    -0.029 A 
ATOM     35  C   UNL     1      19.915  -3.025   6.895  0.00  0.00    +0.045 C 
ENDROOT
BRANCH  10   9
ATOM      4  C   UNL     1      20.399   2.383   6.506  0.00  0.00    +0.077 A 
ATOM      5  C   UNL     1      18.995   2.497   6.777  0.00  0.00    +0.048 A 
ATOM      6  C   UNL     1      18.401   1.484   7.563  0.00  0.00    +0.116 A 
ATOM      7  N   UNL     1      19.164   0.440   8.038  0.00  0.00    -0.223 NA
ATOM      8  C   UNL     1      20.516   0.359   7.757  0.00  0.00    +0.220 A 
ATOM      9  N   UNL     1      21.304  -0.679   8.231  0.00  0.00    -0.283 N 
ATOM     36  H   UNL     1      22.296  -0.707   7.995  0.00  0.00    +0.155 HD
ATOM     37  N   UNL     1      21.106   1.313   7.007  0.00  0.00    -0.214 NA
BRANCH   4   3
ATOM      1  C   UNL     1      21.419   4.963   3.749  0.00  0.00    +0.020 A 
ATOM      2  C   UNL     1      20.632   4.010   4.498  0.00  0.00    +0.013 A 
ATOM      3  C   UNL     1      21.171   3.376   5.694  0.00  0.00    +0.019 A 
ATOM     38  C   UNL     1      22.520   3.730   6.110  0.00  0.00    +0.120 A 
ATOM     39  N   UNL     1      23.255   4.650   5.368  0.00  0.00    -0.263 NA
ATOM     40  C   UNL     1      22.747   5.266   4.214  0.00  0.00    +0.111 A 
ENDBRANCH   4   3
ENDBRANCH  10   9
BRANCH  12  13
ATOM     13  N   UNL     1      20.381  -2.532  12.755  0.00  0.00    -0.281 N 
ATOM     14  C   UNL     1      21.132  -3.326  13.605  0.00  0.00    +0.248 C 
ATOM     30  O   UNL     1      21.697  -4.357  13.270  0.00  0.00    -0.270 OA
ATOM     31  H   UNL     1      19.808  -1.815  13.200  0.00  0.00    +0.155 HD
BRANCH  14  15
ATOM     15  C   UNL     1      21.264  -2.926  15.039  0.00  0.00    +0.037 A 
ATOM     16  C   UNL     1      22.115  -3.678  15.964  0.00  0.00    +0.013 A 
ATOM     17  C   UNL     1      22.211  -3.281  17.346  0.00  0.00    +0.005 A 
ATOM     18  C   UNL     1      21.453  -2.122  17.812  0.00  0.00    -0.033 A 
ATOM     28  C   UNL     1      20.619  -1.390  16.872  0.00  0.00    +0.005 A 
ATOM     29  C   UNL     1      20.522  -1.778  15.517  0.00  0.00    +0.013 A 
BRANCH  18  19
ATOM     19  C   UNL     1      21.478  -1.639  19.274  0.00  0.00    +0.119 C 
BRANCH  19  20
ATOM     20  N   UNL     1      22.440  -0.549  19.618  0.00  0.00    -0.302 NA
ATOM     21  C   UNL     1      21.940   0.824  19.158  0.00  0.00    +0.066 C 
ATOM     22  C   UNL     1      22.948   1.954  19.546  0.00  0.00    -0.064 C 
ATOM     23  N   UNL     1      24.317   1.645  18.937  0.00  0.00    +0.379 N 
ATOM     24  C   UNL     1      25.252   2.735  19.251  0.00  0.00    -0.096 C 
ATOM     25  H   UNL     1      24.195   1.612  17.830  0.00  0.00    -0.082 HD
ATOM     26  C   UNL     1      24.820   0.280  19.387  0.00  0.00    -0.064 C 
ATOM     27  C   UNL     1      23.797  -0.833  19.023  0.00  0.00    +0.066 C 
ENDBRANCH  19  20
ENDBRANCH  18  19
ENDBRANCH  14  15
ENDBRANCH  12  13
TORSDOF 6
ENDMDL
MODEL 5
REMARK VINA RESULT:      -8.3      6.984     13.206
REMARK  Name = C:\Users\Docking\Desktop\test protocol\1iep_ligandH.pdb
REMARK  8 active torsions:
REMARK  status: ('A' for Active; 'I' for Inactive)
REMARK    1  A    between atoms: _5  and  _11
REMARK    2  A    between atoms: _19  and  _21
REMARK    3  A    between atoms: _22  and  _66
REMARK    4  A    between atoms: _27  and  _30
REMARK    5  A    between atoms: _32  and  _33
REMARK    6  A    between atoms: _38  and  _43
REMARK    7  A    between atoms: _43  and  _46
REMARK    8  A    between atoms: _53  and  _55
REMARK                            x       y       z     vdW  Elec       q    Type
REMARK                         _______ _______ _______ _____ _____    ______ ____
ROOT
ATOM     10  C   UNL     1      22.573  -2.186  20.322  0.00  0.00    +0.038 A 
ATOM     11  C   UNL     1      22.061  -3.337  20.973  0.00  0.00    +0.047 A 
ATOM     12  C   UNL     1      22.593  -3.777  22.253  0.00  0.00    +0.035 A 
ATOM     32  C   UNL     1      23.647  -3.019  22.843  0.00  0.00    +0.024 A 
ATOM     33  C   UNL     1      24.180  -1.847  22.195  0.00  0.00    +0.007 A 
ATOM     34  C   UNL     1      23.661  -1.410  20.931  0.00  0.00    -0.029 A 
ATOM     35  C   UNL     1      24.275  -0.150  20.278  0.00  0.00    +0.045 C 
ENDROOT
BRANCH  10   9
ATOM      4  C   UNL     1      21.684  -2.954  15.668  0.00  0.00    +0.077 A 
ATOM      5  C   UNL     1      22.396  -4.200  15.677  0.00  0.00    +0.048 A 
ATOM      6  C   UNL     1      22.982  -4.603  16.898  0.00  0.00    +0.116 A 
ATOM      7  N   UNL     1      22.859  -3.812  18.020  0.00  0.00    -0.223 NA
ATOM      8  C   UNL     1      22.168  -2.616  17.976  0.00  0.00    +0.220 A 
ATOM      9  N   UNL     1      22.025  -1.809  19.094  0.00  0.00    -0.283 N 
ATOM     36  H   UNL     1      21.513  -0.930  19.020  0.00  0.00    +0.155 HD
ATOM     37  N   UNL     1      21.600  -2.207  16.822  0.00  0.00    -0.214 NA
BRANCH   4   3
ATOM      1  C   UNL     1      20.651  -2.242  11.963  0.00  0.00    +0.020 A 
ATOM      2  C   UNL     1      21.335  -2.814  13.100  0.00  0.00    +0.013 A 
ATOM      3  C   UNL     1      21.007  -2.394  14.456  0.00  0.00    +0.019 A 
ATOM     38  C   UNL     1      19.973  -1.385  14.629  0.00  0.00    +0.120 A 
ATOM     39  N   UNL     1      19.332  -0.850  13.516  0.00  0.00    -0.263 NA
ATOM     40  C   UNL     1      19.641  -1.246  12.206  0.00  0.00    +0.111 A 
ENDBRANCH   4   3
ENDBRANCH  10   9
BRANCH  12  13
ATOM     13  N   UNL     1      22.119  -4.942  22.958  0.00  0.00    -0.281 N 
ATOM     14  C   UNL     1      22.339  -6.274  22.647  0.00  0.00    +0.248 C 
ATOM     30  O   UNL     1      22.803  -6.668  21.587  0.00  0.00    -0.270 OA
ATOM     31  H   UNL     1      21.551  -4.763  23.786  0.00  0.00    +0.155 HD
BRANCH  14  15
ATOM     15  C   UNL     1      21.978  -7.319  23.652  0.00  0.00    +0.037 A 
ATOM     16  C   UNL     1      22.549  -7.305  25.002  0.00  0.00    +0.013 A 
ATOM     17  C   UNL     1      22.197  -8.335  25.946  0.00  0.00    +0.005 A 
ATOM     18  C   UNL     1      21.268  -9.389  25.545  0.00  0.00    -0.033 A 
ATOM     28  C   UNL     1      20.713  -9.376  24.201  0.00  0.00    +0.005 A 
ATOM     29  C   UNL     1      21.056  -8.368  23.272  0.00  0.00    +0.013 A 
BRANCH  18  19
ATOM     19  C   UNL     1      20.853 -10.539  26.480  0.00  0.00    +0.119 C 
BRANCH  19  20
ATOM     20  N   UNL     1      19.588 -10.369  27.255  0.00  0.00    -0.302 NA
ATOM     21  C   UNL     1      18.383 -10.126  26.341  0.00  0.00    +0.066 C 
ATOM     22  C   UNL     1      17.064  -9.972  27.166  0.00  0.00    -0.064 C 
ATOM     23  N   UNL     1      17.223  -8.827  28.168  0.00  0.00    +0.379 N 
ATOM     24  C   UNL     1      15.965  -8.642  28.905  0.00  0.00    -0.096 C 
ATOM     25  H   UNL     1      17.416  -7.895  27.588  0.00  0.00    -0.082 HD
ATOM     26  C   UNL     1      18.420  -9.059  29.079  0.00  0.00    -0.064 C 
ATOM     27  C   UNL     1      19.721  -9.240  28.247  0.00  0.00    +0.066 C 
ENDBRANCH  19  20
ENDBRANCH  18  19
ENDBRANCH  14  15
ENDBRANCH  12  13
TORSDOF 6
ENDMDL
