MODEL 1
REMARK VINA RESULT:     -11.7      0.000      0.000
REMARK  Name = C:\Users\Docking\Desktop\test protocol\1iep_ligandH.pdb
REMARK  8 active torsions:
REMARK  status: ('A' for Active; 'I' for Inactive)
REMARK    1  A    between atoms: _5  and  _11
REMARK    2  A    between atoms: _19  and  _21
REMARK    3  A    between atoms: _22  and  _66
REMARK    4  A    between atoms: _27  and  _30
REMARK    5  A    between atoms: _32  and  _33
REMARK    6  A    between atoms: _38  and  _43
REMARK    7  A    between atoms: _43  and  _46
REMARK    8  A    between atoms: _53  and  _55
REMARK                            x       y       z     vdW  Elec       q    Type
REMARK                         _______ _______ _______ _____ _____    ______ ____
ROOT
ATOM     10  C   UNL     1       1.015   2.237   6.830  0.00  0.00    +0.038 A 
ATOM     11  C   UNL     1       0.043   2.761   7.721  0.00  0.00    +0.047 A 
ATOM     12  C   UNL     1       0.435   3.457   8.936  0.00  0.00    +0.035 A 
ATOM     32  C   UNL     1       1.825   3.604   9.213  0.00  0.00    +0.024 A 
ATOM     33  C   UNL     1       2.826   3.077   8.319  0.00  0.00    +0.007 A 
ATOM     34  C   UNL     1       2.446   2.387   7.120  0.00  0.00    -0.029 A 
ATOM     35  C   UNL     1       3.562   1.836   6.202  0.00  0.00    +0.045 C 
ENDROOT
BRANCH  10   9
ATOM      4  C   UNL     1       0.071   2.116   2.126  0.00  0.00    +0.077 A 
ATOM      5  C   UNL     1       0.444   3.491   1.955  0.00  0.00    +0.048 A 
ATOM      6  C   UNL     1       0.867   4.196   3.105  0.00  0.00    +0.116 A 
ATOM      7  N   UNL     1       0.909   3.563   4.328  0.00  0.00    -0.223 NA
ATOM      8  C   UNL     1       0.541   2.236   4.458  0.00  0.00    +0.220 A 
ATOM      9  N   UNL     1       0.583   1.578   5.677  0.00  0.00    -0.283 N 
ATOM     36  H   UNL     1       0.296   0.601   5.733  0.00  0.00    +0.155 HD
ATOM     37  N   UNL     1       0.132   1.542   3.376  0.00  0.00    -0.214 NA
BRANCH   4   3
ATOM      1  C   UNL     1      -1.762  -0.669   0.080  0.00  0.00    +0.020 A 
ATOM      2  C   UNL     1      -1.346   0.150   1.195  0.00  0.00    +0.013 A 
ATOM      3  C   UNL     1      -0.394   1.238   1.006  0.00  0.00    +0.019 A 
ATOM     38  C   UNL     1       0.121   1.473  -0.335  0.00  0.00    +0.120 A 
ATOM     39  N   UNL     1      -0.297   0.667  -1.389  0.00  0.00    -0.263 NA
ATOM     40  C   UNL     1      -1.211  -0.384  -1.219  0.00  0.00    +0.111 A 
ENDBRANCH   4   3
ENDBRANCH  10   9
BRANCH  12  13
ATOM     13  N   UNL     1      -0.507   4.003   9.882  0.00  0.00    -0.281 N 
ATOM     14  C   UNL     1      -0.910   3.462  11.092  0.00  0.00    +0.248 C 
ATOM     30  O   UNL     1      -0.681   2.315  11.447  0.00  0.00    -0.270 OA
ATOM     31  H   UNL     1      -0.927   4.898   9.629  0.00  0.00    +0.155 HD
BRANCH  14  15
ATOM     15  C   UNL     1      -1.693   4.313  12.038  0.00  0.00    +0.037 A 
ATOM     16  C   UNL     1      -1.408   5.742  12.189  0.00  0.00    +0.013 A 
ATOM     17  C   UNL     1      -2.168   6.537  13.122  0.00  0.00    +0.005 A 
ATOM     18  C   UNL     1      -3.222   5.903  13.910  0.00  0.00    -0.033 A 
ATOM     28  C   UNL     1      -3.487   4.485  13.737  0.00  0.00    +0.005 A 
ATOM     29  C   UNL     1      -2.744   3.702  12.825  0.00  0.00    +0.013 A 
BRANCH  18  19
ATOM     19  C   UNL     1      -4.068   6.669  14.944  0.00  0.00    +0.119 C 
BRANCH  19  20
ATOM     20  N   UNL     1      -4.796   7.883  14.468  0.00  0.00    -0.302 NA
ATOM     21  C   UNL     1      -4.741   9.023  15.489  0.00  0.00    +0.066 C 
ATOM     22  C   UNL     1      -5.488  10.293  14.965  0.00  0.00    -0.064 C 
ATOM     23  N   UNL     1      -6.937   9.929  14.636  0.00  0.00    +0.379 N 
ATOM     24  C   UNL     1      -7.657  11.134  14.198  0.00  0.00    -0.096 C 
ATOM     25  H   UNL     1      -7.417   9.571  15.576  0.00  0.00    -0.082 HD
ATOM     26  C   UNL     1      -7.000   8.795  13.624  0.00  0.00    -0.064 C 
ATOM     27  C   UNL     1      -6.230   7.548  14.142  0.00  0.00    +0.066 C 
ENDBRANCH  19  20
ENDBRANCH  18  19
ENDBRANCH  14  15
ENDBRANCH  12  13
TORSDOF 6
ENDMDL
MODEL 2
REMARK VINA RESULT:     -11.5      2.598      4.311
REMARK  Name = C:\Users\Docking\Desktop\test protocol\1iep_ligandH.pdb
REMARK  8 active torsions:
REMARK  status: ('A' for Active; 'I' for Inactive)
REMARK    1  A    between atoms: _5  and  _11
REMARK    2  A    between atoms: _19  and  _21
REMARK    3  A    between atoms: _22  and  _66
REMARK    4  A    between atoms: _27  and  _30
REMARK    5  A    between atoms: _32  and  _33
REMARK    6  A    between atoms: _38  and  _43
REMARK    7  A    between atoms: _43  and  _46
REMARK    8  A    between atoms: _53  and  _55
REMARK                            x       y       z     vdW  Elec       q    Type
REMARK                         _______ _______ _______ _____ _____    ______ ____
ROOT
ATOM     10  C   UNL     1       0.805   3.497   3.348  0.00  0.00    +0.038 A 
ATOM     11  C   UNL     1       0.009   3.305   4.506  0.00  0.00    +0.047 A 
ATOM     12  C   UNL     1       0.618   3.078   5.808  0.00  0.00    +0.035 A 
ATOM     32  C   UNL     1       2.041   3.057   5.894  0.00  0.00    +0.024 A 
ATOM     33  C   UNL     1       2.864   3.249   4.726  0.00  0.00    +0.007 A 
ATOM     34  C   UNL     1       2.270   3.470   3.439  0.00  0.00    -0.029 A 
ATOM     35  C   UNL     1       3.202   3.664   2.220  0.00  0.00    +0.045 C 
ENDROOT
BRANCH  10   9
ATOM      4  C   UNL     1      -1.677   1.950  -0.459  0.00  0.00    +0.077 A 
ATOM      5  C   UNL     1      -1.681   0.598   0.020  0.00  0.00    +0.048 A 
ATOM      6  C   UNL     1      -1.027   0.341   1.246  0.00  0.00    +0.116 A 
ATOM      7  N   UNL     1      -0.419   1.368   1.934  0.00  0.00    -0.223 NA
ATOM      8  C   UNL     1      -0.431   2.661   1.444  0.00  0.00    +0.220 A 
ATOM      9  N   UNL     1       0.168   3.710   2.123  0.00  0.00    -0.283 N 
ATOM     36  H   UNL     1       0.143   4.648   1.725  0.00  0.00    +0.155 HD
ATOM     37  N   UNL     1      -1.048   2.931   0.274  0.00  0.00    -0.214 NA
BRANCH   4   3
ATOM      1  C   UNL     1      -3.659   4.009  -3.129  0.00  0.00    +0.020 A 
ATOM      2  C   UNL     1      -3.048   3.640  -1.873  0.00  0.00    +0.013 A 
ATOM      3  C   UNL     1      -2.328   2.380  -1.736  0.00  0.00    +0.019 A 
ATOM     38  C   UNL     1      -2.242   1.510  -2.899  0.00  0.00    +0.120 A 
ATOM     39  N   UNL     1      -2.841   1.891  -4.096  0.00  0.00    -0.263 NA
ATOM     40  C   UNL     1      -3.539   3.100  -4.239  0.00  0.00    +0.111 A 
ENDBRANCH   4   3
ENDBRANCH  10   9
BRANCH  12  13
ATOM     13  N   UNL     1      -0.138   2.869   7.017  0.00  0.00    -0.281 N 
ATOM     14  C   UNL     1       0.010   1.856   7.950  0.00  0.00    +0.248 C 
ATOM     30  O   UNL     1       0.680   0.848   7.775  0.00  0.00    -0.270 OA
ATOM     31  H   UNL     1      -0.873   3.551   7.209  0.00  0.00    +0.155 HD
BRANCH  14  15
ATOM     15  C   UNL     1      -0.699   1.971   9.261  0.00  0.00    +0.037 A 
ATOM     16  C   UNL     1       0.044   2.079  10.519  0.00  0.00    +0.013 A 
ATOM     17  C   UNL     1      -0.665   2.172  11.771  0.00  0.00    +0.005 A 
ATOM     18  C   UNL     1      -2.126   2.158  11.770  0.00  0.00    -0.033 A 
ATOM     28  C   UNL     1      -2.837   2.055  10.507  0.00  0.00    +0.005 A 
ATOM     29  C   UNL     1      -2.146   1.963   9.278  0.00  0.00    +0.013 A 
BRANCH  18  19
ATOM     19  C   UNL     1      -2.964   2.232  13.060  0.00  0.00    +0.119 C 
BRANCH  19  20
ATOM     20  N   UNL     1      -3.182   3.583  13.658  0.00  0.00    -0.302 NA
ATOM     21  C   UNL     1      -2.236   3.852  14.831  0.00  0.00    +0.066 C 
ATOM     22  C   UNL     1      -2.463   5.279  15.429  0.00  0.00    -0.064 C 
ATOM     23  N   UNL     1      -3.921   5.419  15.867  0.00  0.00    +0.379 N 
ATOM     24  C   UNL     1      -4.124   6.738  16.484  0.00  0.00    -0.096 C 
ATOM     25  H   UNL     1      -4.115   4.647  16.648  0.00  0.00    -0.082 HD
ATOM     26  C   UNL     1      -4.870   5.149  14.708  0.00  0.00    -0.064 C 
ATOM     27  C   UNL     1      -4.616   3.741  14.101  0.00  0.00    +0.066 C 
ENDBRANCH  19  20
ENDBRANCH  18  19
ENDBRANCH  14  15
ENDBRANCH  12  13
TORSDOF 6
ENDMDL
MODEL 3
REMARK VINA RESULT:     -11.1      2.537     13.322
REMARK  Name = C:\Users\Docking\Desktop\test protocol\1iep_ligandH.pdb
REMARK  8 active torsions:
REMARK  status: ('A' for Active; 'I' for Inactive)
REMARK    1  A    between atoms: _5  and  _11
REMARK    2  A    between atoms: _19  and  _21
REMARK    3  A    between atoms: _22  and  _66
REMARK    4  A    between atoms: _27  and  _30
REMARK    5  A    between atoms: _32  and  _33
REMARK    6  A    between atoms: _38  and  _43
REMARK    7  A    between atoms: _43  and  _46
REMARK    8  A    between atoms: _53  and  _55
REMARK                            x       y       z     vdW  Elec       q    Type
REMARK                         _______ _______ _______ _____ _____    ______ ____
ROOT
ATOM     10  C   UNL     1       1.303   3.357   8.419  0.00  0.00    +0.038 A 
ATOM     11  C   UNL     1       0.627   3.095   7.200  0.00  0.00    +0.047 A 
ATOM     12  C   UNL     1       1.229   2.263   6.169  0.00  0.00    +0.035 A 
ATOM     32  C   UNL     1       2.520   1.711   6.416  0.00  0.00    +0.024 A 
ATOM     33  C   UNL     1       3.221   1.968   7.649  0.00  0.00    +0.007 A 
ATOM     34  C   UNL     1       2.634   2.790   8.667  0.00  0.00    -0.029 A 
ATOM     35  C   UNL     1       3.434   3.037   9.967  0.00  0.00    +0.045 C 
ENDROOT
BRANCH  10   9
ATOM      4  C   UNL     1      -1.476   3.959  12.286  0.00  0.00    +0.077 A 
ATOM      5  C   UNL     1      -1.726   2.551  12.398  0.00  0.00    +0.048 A 
ATOM      6  C   UNL     1      -1.127   1.707  11.437  0.00  0.00    +0.116 A 
ATOM      7  N   UNL     1      -0.338   2.241  10.442  0.00  0.00    -0.223 NA
ATOM      8  C   UNL     1      -0.118   3.604  10.361  0.00  0.00    +0.220 A 
ATOM      9  N   UNL     1       0.678   4.163   9.373  0.00  0.00    -0.283 N 
ATOM     36  H   UNL     1       0.810   5.174   9.343  0.00  0.00    +0.155 HD
ATOM     37  N   UNL     1      -0.680   4.432  11.266  0.00  0.00    -0.214 NA
BRANCH   4   3
ATOM      1  C   UNL     1      -2.881   7.292  13.774  0.00  0.00    +0.020 A 
ATOM      2  C   UNL     1      -2.341   6.346  12.825  0.00  0.00    +0.013 A 
ATOM      3  C   UNL     1      -2.036   4.979  13.228  0.00  0.00    +0.019 A 
ATOM     38  C   UNL     1      -2.292   4.598  14.609  0.00  0.00    +0.120 A 
ATOM     39  N   UNL     1      -2.811   5.531  15.501  0.00  0.00    -0.263 NA
ATOM     40  C   UNL     1      -3.107   6.850  15.125  0.00  0.00    +0.111 A 
ENDBRANCH   4   3
ENDBRANCH  10   9
BRANCH  12  13
ATOM     13  N   UNL     1       0.594   1.969   4.909  0.00  0.00    -0.281 N 
ATOM     14  C   UNL     1       0.370   2.830   3.847  0.00  0.00    +0.248 C 
ATOM     30  O   UNL     1       0.490   4.044   3.905  0.00  0.00    -0.270 OA
ATOM     31  H   UNL     1       0.271   1.009   4.784  0.00  0.00    +0.155 HD
BRANCH  14  15
ATOM     15  C   UNL     1      -0.066   2.260   2.535  0.00  0.00    +0.037 A 
ATOM     16  C   UNL     1      -0.156   3.097   1.336  0.00  0.00    +0.013 A 
ATOM     17  C   UNL     1      -0.596   2.527   0.087  0.00  0.00    +0.005 A 
ATOM     18  C   UNL     1      -0.947   1.110   0.032  0.00  0.00    -0.033 A 
ATOM     28  C   UNL     1      -0.843   0.301   1.235  0.00  0.00    +0.005 A 
ATOM     29  C   UNL     1      -0.414   0.857   2.461  0.00  0.00    +0.013 A 
BRANCH  18  19
ATOM     19  C   UNL     1      -1.446   0.421  -1.253  0.00  0.00    +0.119 C 
BRANCH  19  20
ATOM     20  N   UNL     1      -0.430   0.118  -2.304  0.00  0.00    -0.302 NA
ATOM     21  C   UNL     1       0.968  -0.085  -1.712  0.00  0.00    +0.066 C 
ATOM     22  C   UNL     1       2.013  -0.423  -2.824  0.00  0.00    -0.064 C 
ATOM     23  N   UNL     1       2.025   0.696  -3.867  0.00  0.00    +0.379 N 
ATOM     24  C   UNL     1       3.048   0.409  -4.883  0.00  0.00    -0.096 C 
ATOM     25  H   UNL     1       2.317   1.638  -3.348  0.00  0.00    -0.082 HD
ATOM     26  C   UNL     1       0.638   0.906  -4.459  0.00  0.00    -0.064 C 
ATOM     27  C   UNL     1      -0.399   1.213  -3.343  0.00  0.00    +0.066 C 
ENDBRANCH  19  20
ENDBRANCH  18  19
ENDBRANCH  14  15
ENDBRANCH  12  13
TORSDOF 6
ENDMDL
MODEL 4
REMARK VINA RESULT:     -10.8      2.795     12.730
REMARK  Name = C:\Users\Docking\Desktop\test protocol\1iep_ligandH.pdb
REMARK  8 active torsions:
REMARK  status: ('A' for Active; 'I' for Inactive)
REMARK    1  A    between atoms: _5  and  _11
REMARK    2  A    between atoms: _19  and  _21
REMARK    3  A    between atoms: _22  and  _66
REMARK    4  A    between atoms: _27  and  _30
REMARK    5  A    between atoms: _32  and  _33
REMARK    6  A    between atoms: _38  and  _43
REMARK    7  A    between atoms: _43  and  _46
REMARK    8  A    between atoms: _53  and  _55
REMARK                            x       y       z     vdW  Elec       q    Type
REMARK                         _______ _______ _______ _____ _____    ______ ____
ROOT
ATOM     10  C   UNL     1       1.235   3.492   8.325  0.00  0.00    +0.038 A 
ATOM     11  C   UNL     1       0.509   3.354   7.114  0.00  0.00    +0.047 A 
ATOM     12  C   UNL     1       1.023   2.548   6.017  0.00  0.00    +0.035 A 
ATOM     32  C   UNL     1       2.278   1.896   6.188  0.00  0.00    +0.024 A 
ATOM     33  C   UNL     1       3.030   2.027   7.411  0.00  0.00    +0.007 A 
ATOM     34  C   UNL     1       2.530   2.822   8.496  0.00  0.00    -0.029 A 
ATOM     35  C   UNL     1       3.381   2.933   9.782  0.00  0.00    +0.045 C 
ENDROOT
BRANCH  10   9
ATOM      4  C   UNL     1      -1.637   4.111  12.120  0.00  0.00    +0.077 A 
ATOM      5  C   UNL     1      -2.123   2.763  12.047  0.00  0.00    +0.048 A 
ATOM      6  C   UNL     1      -1.614   1.945  11.013  0.00  0.00    +0.116 A 
ATOM      7  N   UNL     1      -0.688   2.448  10.125  0.00  0.00    -0.223 NA
ATOM      8  C   UNL     1      -0.242   3.753  10.223  0.00  0.00    +0.220 A 
ATOM      9  N   UNL     1       0.695   4.278   9.346  0.00  0.00    -0.283 N 
ATOM     36  H   UNL     1       0.993   5.248   9.447  0.00  0.00    +0.155 HD
ATOM     37  N   UNL     1      -0.714   4.555  11.200  0.00  0.00    -0.214 NA
BRANCH   4   3
ATOM      1  C   UNL     1      -2.853   7.385  13.882  0.00  0.00    +0.020 A 
ATOM      2  C   UNL     1      -2.434   6.473  12.842  0.00  0.00    +0.013 A 
ATOM      3  C   UNL     1      -2.078   5.096  13.158  0.00  0.00    +0.019 A 
ATOM     38  C   UNL     1      -2.159   4.668  14.546  0.00  0.00    +0.120 A 
ATOM     39  N   UNL     1      -2.565   5.568  15.527  0.00  0.00    -0.263 NA
ATOM     40  C   UNL     1      -2.908   6.897  15.235  0.00  0.00    +0.111 A 
ENDBRANCH   4   3
ENDBRANCH  10   9
BRANCH  12  13
ATOM     13  N   UNL     1       0.334   2.377   4.762  0.00  0.00    -0.281 N 
ATOM     14  C   UNL     1       0.690   2.878   3.520  0.00  0.00    +0.248 C 
ATOM     30  O   UNL     1       1.544   3.733   3.339  0.00  0.00    -0.270 OA
ATOM     31  H   UNL     1      -0.519   1.819   4.792  0.00  0.00    +0.155 HD
BRANCH  14  15
ATOM     15  C   UNL     1      -0.016   2.366   2.306  0.00  0.00    +0.037 A 
ATOM     16  C   UNL     1      -0.262   3.231   1.149  0.00  0.00    +0.013 A 
ATOM     17  C   UNL     1      -0.960   2.717  -0.002  0.00  0.00    +0.005 A 
ATOM     18  C   UNL     1      -1.416   1.329  -0.003  0.00  0.00    -0.033 A 
ATOM     28  C   UNL     1      -1.153   0.492   1.156  0.00  0.00    +0.005 A 
ATOM     29  C   UNL     1      -0.471   0.992   2.287  0.00  0.00    +0.013 A 
BRANCH  18  19
ATOM     19  C   UNL     1      -2.187   0.702  -1.180  0.00  0.00    +0.119 C 
BRANCH  19  20
ATOM     20  N   UNL     1      -3.116   1.591  -1.939  0.00  0.00    -0.302 NA
ATOM     21  C   UNL     1      -4.571   1.125  -1.835  0.00  0.00    +0.066 C 
ATOM     22  C   UNL     1      -5.532   2.079  -2.616  0.00  0.00    -0.064 C 
ATOM     23  N   UNL     1      -5.092   2.155  -4.079  0.00  0.00    +0.379 N 
ATOM     24  C   UNL     1      -6.027   3.006  -4.829  0.00  0.00    -0.096 C 
ATOM     25  H   UNL     1      -5.153   1.127  -4.505  0.00  0.00    -0.082 HD
ATOM     26  C   UNL     1      -3.645   2.616  -4.192  0.00  0.00    -0.064 C 
ATOM     27  C   UNL     1      -2.702   1.678  -3.388  0.00  0.00    +0.066 C 
ENDBRANCH  19  20
ENDBRANCH  18  19
ENDBRANCH  14  15
ENDBRANCH  12  13
TORSDOF 6
ENDMDL
MODEL 5
REMARK VINA RESULT:     -10.2      1.661      2.719
REMARK  Name = C:\Users\Docking\Desktop\test protocol\1iep_ligandH.pdb
REMARK  8 active torsions:
REMARK  status: ('A' for Active; 'I' for Inactive)
REMARK    1  A    between atoms: _5  and  _11
REMARK    2  A    between atoms: _19  and  _21
REMARK    3  A    between atoms: _22  and  _66
REMARK    4  A    between atoms: _27  and  _30
REMARK    5  A    between atoms: _32  and  _33
REMARK    6  A    between atoms: _38  and  _43
REMARK    7  A    between atoms: _43  and  _46
REMARK    8  A    between atoms: _53  and  _55
REMARK                            x       y       z     vdW  Elec       q    Type
REMARK                         _______ _______ _______ _____ _____    ______ ____
ROOT
ATOM     10  C   UNL     1       1.191   2.182   6.684  0.00  0.00    +0.038 A 
ATOM     11  C   UNL     1       0.198   2.691   7.559  0.00  0.00    +0.047 A 
ATOM     12  C   UNL     1       0.559   3.376   8.790  0.00  0.00    +0.035 A 
ATOM     32  C   UNL     1       1.942   3.528   9.098  0.00  0.00    +0.024 A 
ATOM     33  C   UNL     1       2.965   3.016   8.221  0.00  0.00    +0.007 A 
ATOM     34  C   UNL     1       2.615   2.337   7.006  0.00  0.00    -0.029 A 
ATOM     35  C   UNL     1       3.754   1.803   6.107  0.00  0.00    +0.045 C 
ENDROOT
BRANCH  10   9
ATOM      4  C   UNL     1       0.240   2.139   1.980  0.00  0.00    +0.077 A 
ATOM      5  C   UNL     1       0.547   3.534   1.845  0.00  0.00    +0.048 A 
ATOM      6  C   UNL     1       0.938   4.228   3.011  0.00  0.00    +0.116 A 
ATOM      7  N   UNL     1       1.015   3.566   4.218  0.00  0.00    -0.223 NA
ATOM      8  C   UNL     1       0.711   2.221   4.313  0.00  0.00    +0.220 A 
ATOM      9  N   UNL     1       0.788   1.533   5.515  0.00  0.00    -0.283 N 
ATOM     36  H   UNL     1       0.549   0.543   5.545  0.00  0.00    +0.155 HD
ATOM     37  N   UNL     1       0.333   1.536   3.214  0.00  0.00    -0.214 NA
BRANCH   4   3
ATOM      1  C   UNL     1      -0.211   0.639  -1.605  0.00  0.00    +0.020 A 
ATOM      2  C   UNL     1       0.227   1.511  -0.539  0.00  0.00    +0.013 A 
ATOM      3  C   UNL     1      -0.185   1.268   0.838  0.00  0.00    +0.019 A 
ATOM     38  C   UNL     1      -1.047   0.127   1.105  0.00  0.00    +0.120 A 
ATOM     39  N   UNL     1      -1.454  -0.694   0.058  0.00  0.00    -0.263 NA
ATOM     40  C   UNL     1      -1.065  -0.470  -1.271  0.00  0.00    +0.111 A 
ENDBRANCH   4   3
ENDBRANCH  10   9
BRANCH  12  13
ATOM     13  N   UNL     1      -0.406   3.907   9.721  0.00  0.00    -0.281 N 
ATOM     14  C   UNL     1      -0.842   3.344  10.909  0.00  0.00    +0.248 C 
ATOM     30  O   UNL     1      -0.625   2.190  11.248  0.00  0.00    -0.270 OA
ATOM     31  H   UNL     1      -0.818   4.807   9.474  0.00  0.00    +0.155 HD
BRANCH  14  15
ATOM     15  C   UNL     1      -1.648   4.179  11.851  0.00  0.00    +0.037 A 
ATOM     16  C   UNL     1      -2.692   3.585  12.690  0.00  0.00    +0.013 A 
ATOM     17  C   UNL     1      -3.467   4.416  13.577  0.00  0.00    +0.005 A 
ATOM     18  C   UNL     1      -3.199   5.851  13.631  0.00  0.00    -0.033 A 
ATOM     28  C   UNL     1      -2.153   6.413  12.792  0.00  0.00    +0.005 A 
ATOM     29  C   UNL     1      -1.393   5.602  11.920  0.00  0.00    +0.013 A 
BRANCH  18  19
ATOM     19  C   UNL     1      -3.990   6.817  14.533  0.00  0.00    +0.119 C 
BRANCH  19  20
ATOM     20  N   UNL     1      -4.094   6.469  15.982  0.00  0.00    -0.302 NA
ATOM     21  C   UNL     1      -4.175   7.716  16.867  0.00  0.00    +0.066 C 
ATOM     22  C   UNL     1      -4.306   7.333  18.377  0.00  0.00    -0.064 C 
ATOM     23  N   UNL     1      -3.120   6.456  18.783  0.00  0.00    +0.379 N 
ATOM     24  C   UNL     1      -3.210   6.143  20.217  0.00  0.00    -0.096 C 
ATOM     25  H   UNL     1      -2.190   7.051  18.624  0.00  0.00    -0.082 HD
ATOM     26  C   UNL     1      -3.031   5.216  17.906  0.00  0.00    -0.064 C 
ATOM     27  C   UNL     1      -2.931   5.606  16.405  0.00  0.00    +0.066 C 
ENDBRANCH  19  20
ENDBRANCH  18  19
ENDBRANCH  14  15
ENDBRANCH  12  13
TORSDOF 6
ENDMDL
