MODEL 1
REMARK VINA RESULT:      -8.2      0.000      0.000
REMARK  Name = C:\Users\Docking\Desktop\test protocol\1iep_ligandH.pdb
REMARK  8 active torsions:
REMARK  status: ('A' for Active; 'I' for Inactive)
REMARK    1  A    between atoms: _5  and  _11
REMARK    2  A    between atoms: _19  and  _21
REMARK    3  A    between atoms: _22  and  _66
REMARK    4  A    between atoms: _27  and  _30
REMARK    5  A    between atoms: _32  and  _33
REMARK    6  A    between atoms: _38  and  _43
REMARK    7  A    between atoms: _43  and  _46
REMARK    8  A    between atoms: _53  and  _55
REMARK                            x       y       z     vdW  Elec       q    Type
REMARK                         _______ _______ _______ _____ _____    ______ ____
ROOT
ATOM     10  C   UNL     1     -10.178   8.832  -8.480  0.00  0.00    +0.038 A 
ATOM     11  C   UNL     1      -8.890   8.269  -8.671  0.00  0.00    +0.047 A 
ATOM     12  C   UNL     1      -7.807   8.537  -7.739  0.00  0.00    +0.035 A 
ATOM     32  C   UNL     1      -8.071   9.380  -6.620  0.00  0.00    +0.024 A 
ATOM     33  C   UNL     1      -9.374   9.961  -6.411  0.00  0.00    +0.007 A 
ATOM     34  C   UNL     1     -10.446   9.703  -7.329  0.00  0.00    -0.029 A 
ATOM     35  C   UNL     1     -11.821  10.357  -7.059  0.00  0.00    +0.045 C 
ENDROOT
BRANCH  10   9
ATOM      4  C   UNL     1     -12.439   9.584 -12.646  0.00  0.00    +0.077 A 
ATOM      5  C   UNL     1     -11.563  10.665 -12.995  0.00  0.00    +0.048 A 
ATOM      6  C   UNL     1     -10.548  11.000 -12.071  0.00  0.00    +0.116 A 
ATOM      7  N   UNL     1     -10.427  10.300 -10.890  0.00  0.00    -0.223 NA
ATOM      8  C   UNL     1     -11.290   9.264 -10.584  0.00  0.00    +0.220 A 
ATOM      9  N   UNL     1     -11.182   8.541  -9.406  0.00  0.00    -0.283 N 
ATOM     36  H   UNL     1     -11.843   7.789  -9.214  0.00  0.00    +0.155 HD
ATOM     37  N   UNL     1     -12.269   8.925 -11.449  0.00  0.00    -0.214 NA
BRANCH   4   3
ATOM      1  C   UNL     1     -14.551   8.530 -15.766  0.00  0.00    +0.020 A 
ATOM      2  C   UNL     1     -13.440   8.995 -14.968  0.00  0.00    +0.013 A 
ATOM      3  C   UNL     1     -13.559   9.109 -13.520  0.00  0.00    +0.019 A 
ATOM     38  C   UNL     1     -14.825   8.740 -12.905  0.00  0.00    +0.120 A 
ATOM     39  N   UNL     1     -15.878   8.297 -13.699  0.00  0.00    -0.263 NA
ATOM     40  C   UNL     1     -15.776   8.185 -15.094  0.00  0.00    +0.111 A 
ENDBRANCH   4   3
ENDBRANCH  10   9
BRANCH  12  13
ATOM     13  N   UNL     1      -6.476   8.001  -7.885  0.00  0.00    -0.281 N 
ATOM     14  C   UNL     1      -6.035   6.723  -7.582  0.00  0.00    +0.248 C 
ATOM     30  O   UNL     1      -6.673   5.907  -6.935  0.00  0.00    -0.270 OA
ATOM     31  H   UNL     1      -5.775   8.641  -8.258  0.00  0.00    +0.155 HD
BRANCH  14  15
ATOM     15  C   UNL     1      -4.683   6.296  -8.054  0.00  0.00    +0.037 A 
ATOM     16  C   UNL     1      -4.480   5.000  -8.707  0.00  0.00    +0.013 A 
ATOM     17  C   UNL     1      -3.162   4.605  -9.137  0.00  0.00    +0.005 A 
ATOM     18  C   UNL     1      -2.036   5.509  -8.917  0.00  0.00    -0.033 A 
ATOM     28  C   UNL     1      -2.266   6.790  -8.271  0.00  0.00    +0.005 A 
ATOM     29  C   UNL     1      -3.556   7.181  -7.847  0.00  0.00    +0.013 A 
BRANCH  18  19
ATOM     19  C   UNL     1      -0.592   5.160  -9.324  0.00  0.00    +0.119 C 
BRANCH  19  20
ATOM     20  N   UNL     1      -0.180   5.482 -10.723  0.00  0.00    -0.302 NA
ATOM     21  C   UNL     1      -0.660   4.425 -11.721  0.00  0.00    +0.066 C 
ATOM     22  C   UNL     1      -0.239   4.789 -13.182  0.00  0.00    -0.064 C 
ATOM     23  N   UNL     1       1.281   4.946 -13.248  0.00  0.00    +0.379 N 
ATOM     24  C   UNL     1       1.685   5.231 -14.633  0.00  0.00    -0.096 C 
ATOM     25  H   UNL     1       1.735   3.969 -12.958  0.00  0.00    -0.082 HD
ATOM     26  C   UNL     1       1.767   5.993 -12.257  0.00  0.00    -0.064 C 
ATOM     27  C   UNL     1       1.319   5.637 -10.812  0.00  0.00    +0.066 C 
ENDBRANCH  19  20
ENDBRANCH  18  19
ENDBRANCH  14  15
ENDBRANCH  12  13
TORSDOF 6
ENDMDL
MODEL 2
REMARK VINA RESULT:      -8.1     10.849     12.437
REMARK  Name = C:\Users\Docking\Desktop\test protocol\1iep_ligandH.pdb
REMARK  8 active torsions:
REMARK  status: ('A' for Active; 'I' for Inactive)
REMARK    1  A    between atoms: _5  and  _11
REMARK    2  A    between atoms: _19  and  _21
REMARK    3  A    between atoms: _22  and  _66
REMARK    4  A    between atoms: _27  and  _30
REMARK    5  A    between atoms: _32  and  _33
REMARK    6  A    between atoms: _38  and  _43
REMARK    7  A    between atoms: _43  and  _46
REMARK    8  A    between atoms: _53  and  _55
REMARK                            x       y       z     vdW  Elec       q    Type
REMARK                         _______ _______ _______ _____ _____    ______ ____
ROOT
ATOM     10  C   UNL     1     -11.971   1.398  -6.657  0.00  0.00    +0.038 A 
ATOM     11  C   UNL     1     -11.560   0.256  -7.391  0.00  0.00    +0.047 A 
ATOM     12  C   UNL     1     -11.529  -1.062  -6.776  0.00  0.00    +0.035 A 
ATOM     32  C   UNL     1     -11.927  -1.181  -5.413  0.00  0.00    +0.024 A 
ATOM     33  C   UNL     1     -12.346  -0.031  -4.652  0.00  0.00    +0.007 A 
ATOM     34  C   UNL     1     -12.376   1.272  -5.252  0.00  0.00    -0.029 A 
ATOM     35  C   UNL     1     -12.828   2.472  -4.386  0.00  0.00    +0.045 C 
ENDROOT
BRANCH  10   9
ATOM      4  C   UNL     1     -10.026   5.679  -7.621  0.00  0.00    +0.077 A 
ATOM      5  C   UNL     1      -8.909   5.432  -6.756  0.00  0.00    +0.048 A 
ATOM      6  C   UNL     1      -8.876   4.194  -6.076  0.00  0.00    +0.116 A 
ATOM      7  N   UNL     1      -9.890   3.279  -6.255  0.00  0.00    -0.223 NA
ATOM      8  C   UNL     1     -10.954   3.549  -7.095  0.00  0.00    +0.220 A 
ATOM      9  N   UNL     1     -11.981   2.640  -7.297  0.00  0.00    -0.283 N 
ATOM     36  H   UNL     1     -12.753   2.880  -7.919  0.00  0.00    +0.155 HD
ATOM     37  N   UNL     1     -11.010   4.725  -7.755  0.00  0.00    -0.214 NA
BRANCH   4   3
ATOM      1  C   UNL     1      -9.417   8.659 -10.081  0.00  0.00    +0.020 A 
ATOM      2  C   UNL     1      -9.197   7.437  -9.342  0.00  0.00    +0.013 A 
ATOM      3  C   UNL     1     -10.202   6.939  -8.411  0.00  0.00    +0.019 A 
ATOM     38  C   UNL     1     -11.427   7.707  -8.250  0.00  0.00    +0.120 A 
ATOM     39  N   UNL     1     -11.610   8.881  -8.973  0.00  0.00    -0.263 NA
ATOM     40  C   UNL     1     -10.650   9.371  -9.871  0.00  0.00    +0.111 A 
ENDBRANCH   4   3
ENDBRANCH  10   9
BRANCH  12  13
ATOM     13  N   UNL     1     -11.114  -2.257  -7.469  0.00  0.00    -0.281 N 
ATOM     14  C   UNL     1     -11.914  -3.248  -8.013  0.00  0.00    +0.248 C 
ATOM     30  O   UNL     1     -13.112  -3.365  -7.798  0.00  0.00    -0.270 OA
ATOM     31  H   UNL     1     -10.107  -2.387  -7.570  0.00  0.00    +0.155 HD
BRANCH  14  15
ATOM     15  C   UNL     1     -11.292  -4.264  -8.915  0.00  0.00    +0.037 A 
ATOM     16  C   UNL     1     -10.705  -3.881 -10.202  0.00  0.00    +0.013 A 
ATOM     17  C   UNL     1     -10.127  -4.884 -11.060  0.00  0.00    +0.005 A 
ATOM     18  C   UNL     1     -10.131  -6.281 -10.633  0.00  0.00    -0.033 A 
ATOM     28  C   UNL     1     -10.715  -6.633  -9.349  0.00  0.00    +0.005 A 
ATOM     29  C   UNL     1     -11.284  -5.653  -8.506  0.00  0.00    +0.013 A 
BRANCH  18  19
ATOM     19  C   UNL     1      -9.555  -7.421 -11.494  0.00  0.00    +0.119 C 
BRANCH  19  20
ATOM     20  N   UNL     1     -10.297  -8.717 -11.498  0.00  0.00    -0.302 NA
ATOM     21  C   UNL     1      -9.999  -9.554 -10.251  0.00  0.00    +0.066 C 
ATOM     22  C   UNL     1     -10.801 -10.896 -10.261  0.00  0.00    -0.064 C 
ATOM     23  N   UNL     1     -10.464 -11.678 -11.531  0.00  0.00    +0.379 N 
ATOM     24  C   UNL     1     -11.171 -12.967 -11.516  0.00  0.00    -0.096 C 
ATOM     25  H   UNL     1      -9.370 -11.893 -11.516  0.00  0.00    -0.082 HD
ATOM     26  C   UNL     1     -10.754 -10.853 -12.777  0.00  0.00    -0.064 C 
ATOM     27  C   UNL     1      -9.975  -9.508 -12.742  0.00  0.00    +0.066 C 
ENDBRANCH  19  20
ENDBRANCH  18  19
ENDBRANCH  14  15
ENDBRANCH  12  13
TORSDOF 6
ENDMDL
MODEL 3
REMARK VINA RESULT:      -7.9     12.100     15.048
REMARK  Name = C:\Users\Docking\Desktop\test protocol\1iep_ligandH.pdb
REMARK  8 active torsions:
REMARK  status: ('A' for Active; 'I' for Inactive)
REMARK    1  A    between atoms: _5  and  _11
REMARK    2  A    between atoms: _19  and  _21
REMARK    3  A    between atoms: _22  and  _66
REMARK    4  A    between atoms: _27  and  _30
REMARK    5  A    between atoms: _32  and  _33
REMARK    6  A    between atoms: _38  and  _43
REMARK    7  A    between atoms: _43  and  _46
REMARK    8  A    between atoms: _53  and  _55
REMARK                            x       y       z     vdW  Elec       q    Type
REMARK                         _______ _______ _______ _____ _____    ______ ____
ROOT
ATOM     10  C   UNL     1     -10.518  -0.016  -5.966  0.00  0.00    +0.038 A 
ATOM     11  C   UNL     1     -10.342  -1.278  -6.589  0.00  0.00    +0.047 A 
ATOM     12  C   UNL     1     -11.467  -1.992  -7.172  0.00  0.00    +0.035 A 
ATOM     32  C   UNL     1     -12.757  -1.391  -7.105  0.00  0.00    +0.024 A 
ATOM     33  C   UNL     1     -12.954  -0.109  -6.474  0.00  0.00    +0.007 A 
ATOM     34  C   UNL     1     -11.849   0.599  -5.895  0.00  0.00    -0.029 A 
ATOM     35  C   UNL     1     -12.119   1.967  -5.226  0.00  0.00    +0.045 C 
ENDROOT
BRANCH  10   9
ATOM      4  C   UNL     1      -7.336   0.683  -2.441  0.00  0.00    +0.077 A 
ATOM      5  C   UNL     1      -7.965  -0.294  -1.600  0.00  0.00    +0.048 A 
ATOM      6  C   UNL     1      -9.108  -0.949  -2.109  0.00  0.00    +0.116 A 
ATOM      7  N   UNL     1      -9.579  -0.642  -3.367  0.00  0.00    -0.223 NA
ATOM      8  C   UNL     1      -8.951   0.307  -4.152  0.00  0.00    +0.220 A 
ATOM      9  N   UNL     1      -9.402   0.626  -5.423  0.00  0.00    -0.283 N 
ATOM     36  H   UNL     1      -8.915   1.337  -5.967  0.00  0.00    +0.155 HD
ATOM     37  N   UNL     1      -7.857   0.948  -3.688  0.00  0.00    -0.214 NA
BRANCH   4   3
ATOM      1  C   UNL     1      -4.966   3.537  -1.201  0.00  0.00    +0.020 A 
ATOM      2  C   UNL     1      -6.173   2.834  -1.570  0.00  0.00    +0.013 A 
ATOM      3  C   UNL     1      -6.117   1.458  -2.046  0.00  0.00    +0.019 A 
ATOM     38  C   UNL     1      -4.814   0.816  -2.135  0.00  0.00    +0.120 A 
ATOM     39  N   UNL     1      -3.669   1.518  -1.773  0.00  0.00    -0.263 NA
ATOM     40  C   UNL     1      -3.710   2.844  -1.316  0.00  0.00    +0.111 A 
ENDBRANCH   4   3
ENDBRANCH  10   9
BRANCH  12  13
ATOM     13  N   UNL     1     -11.350  -3.280  -7.811  0.00  0.00    -0.281 N 
ATOM     14  C   UNL     1     -11.186  -3.550  -9.160  0.00  0.00    +0.248 C 
ATOM     30  O   UNL     1     -11.328  -2.727 -10.052  0.00  0.00    -0.270 OA
ATOM     31  H   UNL     1     -11.395  -4.091  -7.194  0.00  0.00    +0.155 HD
BRANCH  14  15
ATOM     15  C   UNL     1     -10.825  -4.938  -9.580  0.00  0.00    +0.037 A 
ATOM     16  C   UNL     1     -11.337  -6.107  -8.860  0.00  0.00    +0.013 A 
ATOM     17  C   UNL     1     -10.960  -7.435  -9.276  0.00  0.00    +0.005 A 
ATOM     18  C   UNL     1     -10.065  -7.600 -10.418  0.00  0.00    -0.033 A 
ATOM     28  C   UNL     1      -9.575  -6.423 -11.117  0.00  0.00    +0.005 A 
ATOM     29  C   UNL     1      -9.942  -5.120 -10.712  0.00  0.00    +0.013 A 
BRANCH  18  19
ATOM     19  C   UNL     1      -9.593  -8.978 -10.918  0.00  0.00    +0.119 C 
BRANCH  19  20
ATOM     20  N   UNL     1     -10.261  -9.531 -12.134  0.00  0.00    -0.302 NA
ATOM     21  C   UNL     1     -10.853 -10.921 -11.882  0.00  0.00    +0.066 C 
ATOM     22  C   UNL     1     -11.568 -11.474 -13.158  0.00  0.00    -0.064 C 
ATOM     23  N   UNL     1     -10.575 -11.510 -14.321  0.00  0.00    +0.379 N 
ATOM     24  C   UNL     1     -11.229 -12.084 -15.506  0.00  0.00    -0.096 C 
ATOM     25  H   UNL     1      -9.741 -12.190 -14.032  0.00  0.00    -0.082 HD
ATOM     26  C   UNL     1      -9.981 -10.132 -14.576  0.00  0.00    -0.064 C 
ATOM     27  C   UNL     1      -9.298  -9.579 -13.294  0.00  0.00    +0.066 C 
ENDBRANCH  19  20
ENDBRANCH  18  19
ENDBRANCH  14  15
ENDBRANCH  12  13
TORSDOF 6
ENDMDL
MODEL 4
REMARK VINA RESULT:      -7.8      7.722     11.801
REMARK  Name = C:\Users\Docking\Desktop\test protocol\1iep_ligandH.pdb
REMARK  8 active torsions:
REMARK  status: ('A' for Active; 'I' for Inactive)
REMARK    1  A    between atoms: _5  and  _11
REMARK    2  A    between atoms: _19  and  _21
REMARK    3  A    between atoms: _22  and  _66
REMARK    4  A    between atoms: _27  and  _30
REMARK    5  A    between atoms: _32  and  _33
REMARK    6  A    between atoms: _38  and  _43
REMARK    7  A    between atoms: _43  and  _46
REMARK    8  A    between atoms: _53  and  _55
REMARK                            x       y       z     vdW  Elec       q    Type
REMARK                         _______ _______ _______ _____ _____    ______ ____
ROOT
ATOM     10  C   UNL     1     -10.165   0.860  -6.251  0.00  0.00    +0.038 A 
ATOM     11  C   UNL     1     -10.388   2.071  -6.955  0.00  0.00    +0.047 A 
ATOM     12  C   UNL     1     -10.610   3.322  -6.247  0.00  0.00    +0.035 A 
ATOM     32  C   UNL     1     -10.595   3.304  -4.822  0.00  0.00    +0.024 A 
ATOM     33  C   UNL     1     -10.371   2.082  -4.091  0.00  0.00    +0.007 A 
ATOM     34  C   UNL     1     -10.154   0.844  -4.783  0.00  0.00    -0.029 A 
ATOM     35  C   UNL     1      -9.926  -0.437  -3.948  0.00  0.00    +0.045 C 
ENDROOT
BRANCH  10   9
ATOM      4  C   UNL     1     -11.690  -3.294  -8.110  0.00  0.00    +0.077 A 
ATOM      5  C   UNL     1     -13.003  -3.128  -7.558  0.00  0.00    +0.048 A 
ATOM      6  C   UNL     1     -13.243  -1.962  -6.796  0.00  0.00    +0.116 A 
ATOM      7  N   UNL     1     -12.238  -1.039  -6.607  0.00  0.00    -0.223 NA
ATOM      8  C   UNL     1     -10.982  -1.232  -7.152  0.00  0.00    +0.220 A 
ATOM      9  N   UNL     1      -9.958  -0.313  -6.981  0.00  0.00    -0.283 N 
ATOM     36  H   UNL     1      -9.043  -0.495  -7.393  0.00  0.00    +0.155 HD
ATOM     37  N   UNL     1     -10.727  -2.337  -7.883  0.00  0.00    -0.214 NA
BRANCH   4   3
ATOM      1  C   UNL     1     -10.342  -5.508 -11.040  0.00  0.00    +0.020 A 
ATOM      2  C   UNL     1     -10.719  -4.339 -10.279  0.00  0.00    +0.013 A 
ATOM      3  C   UNL     1     -11.283  -4.471  -8.941  0.00  0.00    +0.019 A 
ATOM     38  C   UNL     1     -11.451  -5.810  -8.398  0.00  0.00    +0.120 A 
ATOM     39  N   UNL     1     -11.080  -6.918  -9.154  0.00  0.00    -0.263 NA
ATOM     40  C   UNL     1     -10.539  -6.803 -10.443  0.00  0.00    +0.111 A 
ENDBRANCH   4   3
ENDBRANCH  10   9
BRANCH  12  13
ATOM     13  N   UNL     1     -10.849   4.581  -6.907  0.00  0.00    -0.281 N 
ATOM     14  C   UNL     1      -9.921   5.543  -7.270  0.00  0.00    +0.248 C 
ATOM     30  O   UNL     1      -8.760   5.562  -6.887  0.00  0.00    -0.270 OA
ATOM     31  H   UNL     1     -11.822   4.789  -7.135  0.00  0.00    +0.155 HD
BRANCH  14  15
ATOM     15  C   UNL     1     -10.346   6.652  -8.177  0.00  0.00    +0.037 A 
ATOM     16  C   UNL     1      -9.383   7.340  -9.040  0.00  0.00    +0.013 A 
ATOM     17  C   UNL     1      -9.817   8.418  -9.893  0.00  0.00    +0.005 A 
ATOM     18  C   UNL     1     -11.223   8.814  -9.888  0.00  0.00    -0.033 A 
ATOM     28  C   UNL     1     -12.158   8.111  -9.025  0.00  0.00    +0.005 A 
ATOM     29  C   UNL     1     -11.737   7.055  -8.187  0.00  0.00    +0.013 A 
BRANCH  18  19
ATOM     19  C   UNL     1     -11.771   9.967 -10.749  0.00  0.00    +0.119 C 
BRANCH  19  20
ATOM     20  N   UNL     1     -12.696   9.607 -11.865  0.00  0.00    -0.302 NA
ATOM     21  C   UNL     1     -12.078   8.576 -12.813  0.00  0.00    +0.066 C 
ATOM     22  C   UNL     1     -13.068   8.194 -13.962  0.00  0.00    -0.064 C 
ATOM     23  N   UNL     1     -13.473   9.457 -14.724  0.00  0.00    +0.379 N 
ATOM     24  C   UNL     1     -14.358   9.094 -15.840  0.00  0.00    -0.096 C 
ATOM     25  H   UNL     1     -12.546   9.901 -15.157  0.00  0.00    -0.082 HD
ATOM     26  C   UNL     1     -14.085  10.489 -13.788  0.00  0.00    -0.064 C 
ATOM     27  C   UNL     1     -13.105  10.839 -12.634  0.00  0.00    +0.066 C 
ENDBRANCH  19  20
ENDBRANCH  18  19
ENDBRANCH  14  15
ENDBRANCH  12  13
TORSDOF 6
ENDMDL
MODEL 5
REMARK VINA RESULT:      -7.6      8.326     14.047
REMARK  Name = C:\Users\Docking\Desktop\test protocol\1iep_ligandH.pdb
REMARK  8 active torsions:
REMARK  status: ('A' for Active; 'I' for Inactive)
REMARK    1  A    between atoms: _5  and  _11
REMARK    2  A    between atoms: _19  and  _21
REMARK    3  A    between atoms: _22  and  _66
REMARK    4  A    between atoms: _27  and  _30
REMARK    5  A    between atoms: _32  and  _33
REMARK    6  A    between atoms: _38  and  _43
REMARK    7  A    between atoms: _43  and  _46
REMARK    8  A    between atoms: _53  and  _55
REMARK                            x       y       z     vdW  Elec       q    Type
REMARK                         _______ _______ _______ _____ _____    ______ ____
ROOT
ATOM     10  C   UNL     1     -10.546   1.152  -7.091  0.00  0.00    +0.038 A 
ATOM     11  C   UNL     1     -11.461   2.094  -7.628  0.00  0.00    +0.047 A 
ATOM     12  C   UNL     1     -11.755   3.338  -6.932  0.00  0.00    +0.035 A 
ATOM     32  C   UNL     1     -11.097   3.591  -5.694  0.00  0.00    +0.024 A 
ATOM     33  C   UNL     1     -10.165   2.644  -5.133  0.00  0.00    +0.007 A 
ATOM     34  C   UNL     1      -9.873   1.415  -5.813  0.00  0.00    -0.029 A 
ATOM     35  C   UNL     1      -8.871   0.433  -5.163  0.00  0.00    +0.045 C 
ENDROOT
BRANCH  10   9
ATOM      4  C   UNL     1     -11.639  -3.359  -8.312  0.00  0.00    +0.077 A 
ATOM      5  C   UNL     1     -12.779  -3.381  -7.442  0.00  0.00    +0.048 A 
ATOM      6  C   UNL     1     -13.046  -2.214  -6.692  0.00  0.00    +0.116 A 
ATOM      7  N   UNL     1     -12.227  -1.112  -6.812  0.00  0.00    -0.223 NA
ATOM      8  C   UNL     1     -11.134  -1.125  -7.659  0.00  0.00    +0.220 A 
ATOM      9  N   UNL     1     -10.301  -0.025  -7.801  0.00  0.00    -0.283 N 
ATOM     36  H   UNL     1      -9.501  -0.077  -8.431  0.00  0.00    +0.155 HD
ATOM     37  N   UNL     1     -10.857  -2.228  -8.385  0.00  0.00    -0.214 NA
BRANCH   4   3
ATOM      1  C   UNL     1     -10.383  -5.504 -11.332  0.00  0.00    +0.020 A 
ATOM      2  C   UNL     1     -10.768  -4.356 -10.545  0.00  0.00    +0.013 A 
ATOM      3  C   UNL     1     -11.229  -4.514  -9.171  0.00  0.00    +0.019 A 
ATOM     38  C   UNL     1     -11.288  -5.860  -8.620  0.00  0.00    +0.120 A 
ATOM     39  N   UNL     1     -10.912  -6.947  -9.402  0.00  0.00    -0.263 NA
ATOM     40  C   UNL     1     -10.469  -6.807 -10.725  0.00  0.00    +0.111 A 
ENDBRANCH   4   3
ENDBRANCH  10   9
BRANCH  12  13
ATOM     13  N   UNL     1     -12.681   4.328  -7.424  0.00  0.00    -0.281 N 
ATOM     14  C   UNL     1     -14.061   4.337  -7.306  0.00  0.00    +0.248 C 
ATOM     30  O   UNL     1     -14.729   3.381  -6.942  0.00  0.00    -0.270 OA
ATOM     31  H   UNL     1     -12.268   5.118  -7.920  0.00  0.00    +0.155 HD
BRANCH  14  15
ATOM     15  C   UNL     1     -14.807   5.583  -7.656  0.00  0.00    +0.037 A 
ATOM     16  C   UNL     1     -14.148   6.697  -8.342  0.00  0.00    +0.013 A 
ATOM     17  C   UNL     1     -14.887   7.895  -8.652  0.00  0.00    +0.005 A 
ATOM     18  C   UNL     1     -16.296   7.985  -8.277  0.00  0.00    -0.033 A 
ATOM     28  C   UNL     1     -16.927   6.863  -7.602  0.00  0.00    +0.005 A 
ATOM     29  C   UNL     1     -16.205   5.687  -7.295  0.00  0.00    +0.013 A 
BRANCH  18  19
ATOM     19  C   UNL     1     -17.156   9.233  -8.550  0.00  0.00    +0.119 C 
BRANCH  19  20
ATOM     20  N   UNL     1     -18.174   9.137  -9.638  0.00  0.00    -0.302 NA
ATOM     21  C   UNL     1     -17.534   8.856 -11.001  0.00  0.00    +0.066 C 
ATOM     22  C   UNL     1     -18.616   8.736 -12.124  0.00  0.00    -0.064 C 
ATOM     23  N   UNL     1     -19.444  10.021 -12.169  0.00  0.00    +0.379 N 
ATOM     24  C   UNL     1     -20.424   9.935 -13.262  0.00  0.00    -0.096 C 
ATOM     25  H   UNL     1     -18.751  10.862 -12.402  0.00  0.00    -0.082 HD
ATOM     26  C   UNL     1     -20.082  10.309 -10.818  0.00  0.00    -0.064 C 
ATOM     27  C   UNL     1     -19.002  10.397  -9.704  0.00  0.00    +0.066 C 
ENDBRANCH  19  20
ENDBRANCH  18  19
ENDBRANCH  14  15
ENDBRANCH  12  13
TORSDOF 6
ENDMDL
