MODEL 1
REMARK VINA RESULT:     -11.7      0.000      0.000
REMARK  Name = C:\Users\Docking\Desktop\test protocol\1iep_ligandH.pdb
REMARK  8 active torsions:
REMARK  status: ('A' for Active; 'I' for Inactive)
REMARK    1  A    between atoms: _5  and  _11
REMARK    2  A    between atoms: _19  and  _21
REMARK    3  A    between atoms: _22  and  _66
REMARK    4  A    between atoms: _27  and  _30
REMARK    5  A    between atoms: _32  and  _33
REMARK    6  A    between atoms: _38  and  _43
REMARK    7  A    between atoms: _43  and  _46
REMARK    8  A    between atoms: _53  and  _55
REMARK                            x       y       z     vdW  Elec       q    Type
REMARK                         _______ _______ _______ _____ _____    ______ ____
ROOT
ATOM     10  C   UNL     1       1.407   3.945   3.614  0.00  0.00    +0.038 A 
ATOM     11  C   UNL     1       0.554   3.726   4.725  0.00  0.00    +0.047 A 
ATOM     12  C   UNL     1       1.094   3.505   6.057  0.00  0.00    +0.035 A 
ATOM     32  C   UNL     1       2.510   3.517   6.222  0.00  0.00    +0.024 A 
ATOM     33  C   UNL     1       3.393   3.737   5.103  0.00  0.00    +0.007 A 
ATOM     34  C   UNL     1       2.865   3.953   3.787  0.00  0.00    -0.029 A 
ATOM     35  C   UNL     1       3.859   4.177   2.623  0.00  0.00    +0.045 C 
ENDROOT
BRANCH  10   9
ATOM      4  C   UNL     1      -0.797   2.363  -0.345  0.00  0.00    +0.077 A 
ATOM      5  C   UNL     1      -0.782   1.005   0.117  0.00  0.00    +0.048 A 
ATOM      6  C   UNL     1      -0.191   0.756   1.376  0.00  0.00    +0.116 A 
ATOM      7  N   UNL     1       0.342   1.794   2.109  0.00  0.00    -0.223 NA
ATOM      8  C   UNL     1       0.312   3.092   1.633  0.00  0.00    +0.220 A 
ATOM      9  N   UNL     1       0.834   4.152   2.357  0.00  0.00    -0.283 N 
ATOM     36  H   UNL     1       0.800   5.094   1.968  0.00  0.00    +0.155 HD
ATOM     37  N   UNL     1      -0.245   3.356   0.433  0.00  0.00    -0.214 NA
BRANCH   4   3
ATOM      1  C   UNL     1      -2.626   4.423  -3.123  0.00  0.00    +0.020 A 
ATOM      2  C   UNL     1      -2.073   4.061  -1.838  0.00  0.00    +0.013 A 
ATOM      3  C   UNL     1      -1.388   2.787  -1.654  0.00  0.00    +0.019 A 
ATOM     38  C   UNL     1      -1.280   1.896  -2.799  0.00  0.00    +0.120 A 
ATOM     39  N   UNL     1      -1.823   2.271  -4.023  0.00  0.00    -0.263 NA
ATOM     40  C   UNL     1      -2.486   3.493  -4.212  0.00  0.00    +0.111 A 
ENDBRANCH   4   3
ENDBRANCH  10   9
BRANCH  12  13
ATOM     13  N   UNL     1       0.277   3.270   7.222  0.00  0.00    -0.281 N 
ATOM     14  C   UNL     1       0.535   2.422   8.286  0.00  0.00    +0.248 C 
ATOM     30  O   UNL     1       1.414   1.572   8.295  0.00  0.00    -0.270 OA
ATOM     31  H   UNL     1      -0.598   3.792   7.267  0.00  0.00    +0.155 HD
BRANCH  14  15
ATOM     15  C   UNL     1      -0.313   2.522   9.512  0.00  0.00    +0.037 A 
ATOM     16  C   UNL     1      -1.764   2.703   9.419  0.00  0.00    +0.013 A 
ATOM     17  C   UNL     1      -2.557   2.814  10.617  0.00  0.00    +0.005 A 
ATOM     18  C   UNL     1      -1.900   2.743  11.920  0.00  0.00    -0.033 A 
ATOM     28  C   UNL     1      -0.460   2.558  11.984  0.00  0.00    +0.005 A 
ATOM     29  C   UNL     1       0.321   2.450  10.811  0.00  0.00    +0.013 A 
BRANCH  18  19
ATOM     19  C   UNL     1      -2.665   2.874  13.251  0.00  0.00    +0.119 C 
BRANCH  19  20
ATOM     20  N   UNL     1      -2.844   4.249  13.805  0.00  0.00    -0.302 NA
ATOM     21  C   UNL     1      -1.625   4.708  14.610  0.00  0.00    +0.066 C 
ATOM     22  C   UNL     1      -1.820   6.157  15.163  0.00  0.00    -0.064 C 
ATOM     23  N   UNL     1      -3.085   6.206  16.021  0.00  0.00    +0.379 N 
ATOM     24  C   UNL     1      -3.240   7.553  16.589  0.00  0.00    -0.096 C 
ATOM     25  H   UNL     1      -2.947   5.495  16.868  0.00  0.00    -0.082 HD
ATOM     26  C   UNL     1      -4.302   5.749  15.229  0.00  0.00    -0.064 C 
ATOM     27  C   UNL     1      -4.086   4.319  14.659  0.00  0.00    +0.066 C 
ENDBRANCH  19  20
ENDBRANCH  18  19
ENDBRANCH  14  15
ENDBRANCH  12  13
TORSDOF 6
ENDMDL
MODEL 2
REMARK VINA RESULT:     -11.3      2.454      4.074
REMARK  Name = C:\Users\Docking\Desktop\test protocol\1iep_ligandH.pdb
REMARK  8 active torsions:
REMARK  status: ('A' for Active; 'I' for Inactive)
REMARK    1  A    between atoms: _5  and  _11
REMARK    2  A    between atoms: _19  and  _21
REMARK    3  A    between atoms: _22  and  _66
REMARK    4  A    between atoms: _27  and  _30
REMARK    5  A    between atoms: _32  and  _33
REMARK    6  A    between atoms: _38  and  _43
REMARK    7  A    between atoms: _43  and  _46
REMARK    8  A    between atoms: _53  and  _55
REMARK                            x       y       z     vdW  Elec       q    Type
REMARK                         _______ _______ _______ _____ _____    ______ ____
ROOT
ATOM     10  C   UNL     1       2.065   2.730   6.920  0.00  0.00    +0.038 A 
ATOM     11  C   UNL     1       1.172   3.257   7.889  0.00  0.00    +0.047 A 
ATOM     12  C   UNL     1       1.666   3.925   9.082  0.00  0.00    +0.035 A 
ATOM     32  C   UNL     1       3.076   4.043   9.256  0.00  0.00    +0.024 A 
ATOM     33  C   UNL     1       3.998   3.513   8.283  0.00  0.00    +0.007 A 
ATOM     34  C   UNL     1       3.516   2.850   7.105  0.00  0.00    -0.029 A 
ATOM     35  C   UNL     1       4.550   2.295   6.097  0.00  0.00    +0.045 C 
ENDROOT
BRANCH  10   9
ATOM      4  C   UNL     1       0.761   2.707   2.301  0.00  0.00    +0.077 A 
ATOM      5  C   UNL     1       1.141   4.080   2.126  0.00  0.00    +0.048 A 
ATOM      6  C   UNL     1       1.661   4.758   3.251  0.00  0.00    +0.116 A 
ATOM      7  N   UNL     1       1.787   4.102   4.457  0.00  0.00    -0.223 NA
ATOM      8  C   UNL     1       1.410   2.779   4.592  0.00  0.00    +0.220 A 
ATOM      9  N   UNL     1       1.536   2.098   5.793  0.00  0.00    -0.283 N 
ATOM     36  H   UNL     1       1.240   1.124   5.854  0.00  0.00    +0.155 HD
ATOM     37  N   UNL     1       0.909   2.110   3.533  0.00  0.00    -0.214 NA
BRANCH   4   3
ATOM      1  C   UNL     1      -1.384   0.098   0.328  0.00  0.00    +0.020 A 
ATOM      2  C   UNL     1      -0.877   0.896   1.421  0.00  0.00    +0.013 A 
ATOM      3  C   UNL     1       0.199   1.856   1.206  0.00  0.00    +0.019 A 
ATOM     38  C   UNL     1       0.743   1.985  -0.138  0.00  0.00    +0.120 A 
ATOM     39  N   UNL     1       0.236   1.202  -1.170  0.00  0.00    -0.263 NA
ATOM     40  C   UNL     1      -0.798   0.274  -0.974  0.00  0.00    +0.111 A 
ENDBRANCH   4   3
ENDBRANCH  10   9
BRANCH  12  13
ATOM     13  N   UNL     1       0.808   4.472  10.104  0.00  0.00    -0.281 N 
ATOM     14  C   UNL     1       0.273   3.823  11.204  0.00  0.00    +0.248 C 
ATOM     30  O   UNL     1       0.279   2.611  11.362  0.00  0.00    -0.270 OA
ATOM     31  H   UNL     1       0.565   5.458  10.003  0.00  0.00    +0.155 HD
BRANCH  14  15
ATOM     15  C   UNL     1      -0.374   4.636  12.278  0.00  0.00    +0.037 A 
ATOM     16  C   UNL     1      -1.230   4.013  13.291  0.00  0.00    +0.013 A 
ATOM     17  C   UNL     1      -1.857   4.823  14.306  0.00  0.00    +0.005 A 
ATOM     18  C   UNL     1      -1.627   6.266  14.313  0.00  0.00    -0.033 A 
ATOM     28  C   UNL     1      -0.769   6.857  13.300  0.00  0.00    +0.005 A 
ATOM     29  C   UNL     1      -0.155   6.067  12.303  0.00  0.00    +0.013 A 
BRANCH  18  19
ATOM     19  C   UNL     1      -2.271   7.210  15.346  0.00  0.00    +0.119 C 
BRANCH  19  20
ATOM     20  N   UNL     1      -2.941   8.439  14.825  0.00  0.00    -0.302 NA
ATOM     21  C   UNL     1      -2.186   9.713  15.212  0.00  0.00    +0.066 C 
ATOM     22  C   UNL     1      -2.888  10.987  14.639  0.00  0.00    -0.064 C 
ATOM     23  N   UNL     1      -4.332  11.040  15.141  0.00  0.00    +0.379 N 
ATOM     24  C   UNL     1      -4.977  12.267  14.652  0.00  0.00    -0.096 C 
ATOM     25  H   UNL     1      -4.300  11.095  16.255  0.00  0.00    -0.082 HD
ATOM     26  C   UNL     1      -5.090   9.775  14.763  0.00  0.00    -0.064 C 
ATOM     27  C   UNL     1      -4.367   8.513  15.312  0.00  0.00    +0.066 C 
ENDBRANCH  19  20
ENDBRANCH  18  19
ENDBRANCH  14  15
ENDBRANCH  12  13
TORSDOF 6
ENDMDL
MODEL 3
REMARK VINA RESULT:     -11.2      2.261     12.664
REMARK  Name = C:\Users\Docking\Desktop\test protocol\1iep_ligandH.pdb
REMARK  8 active torsions:
REMARK  status: ('A' for Active; 'I' for Inactive)
REMARK    1  A    between atoms: _5  and  _11
REMARK    2  A    between atoms: _19  and  _21
REMARK    3  A    between atoms: _22  and  _66
REMARK    4  A    between atoms: _27  and  _30
REMARK    5  A    between atoms: _32  and  _33
REMARK    6  A    between atoms: _38  and  _43
REMARK    7  A    between atoms: _43  and  _46
REMARK    8  A    between atoms: _53  and  _55
REMARK                            x       y       z     vdW  Elec       q    Type
REMARK                         _______ _______ _______ _____ _____    ______ ____
ROOT
ATOM     10  C   UNL     1       2.017   3.989   8.732  0.00  0.00    +0.038 A 
ATOM     11  C   UNL     1       1.310   3.893   7.506  0.00  0.00    +0.047 A 
ATOM     12  C   UNL     1       1.821   3.094   6.404  0.00  0.00    +0.035 A 
ATOM     32  C   UNL     1       3.054   2.402   6.585  0.00  0.00    +0.024 A 
ATOM     33  C   UNL     1       3.786   2.489   7.825  0.00  0.00    +0.007 A 
ATOM     34  C   UNL     1       3.288   3.278   8.915  0.00  0.00    -0.029 A 
ATOM     35  C   UNL     1       4.118   3.341  10.218  0.00  0.00    +0.045 C 
ENDROOT
BRANCH  10   9
ATOM      4  C   UNL     1      -0.671   4.539  12.671  0.00  0.00    +0.077 A 
ATOM      5  C   UNL     1      -1.060   3.159  12.670  0.00  0.00    +0.048 A 
ATOM      6  C   UNL     1      -0.552   2.342  11.635  0.00  0.00    +0.116 A 
ATOM      7  N   UNL     1       0.282   2.877  10.677  0.00  0.00    -0.223 NA
ATOM      8  C   UNL     1       0.636   4.213  10.706  0.00  0.00    +0.220 A 
ATOM      9  N   UNL     1       1.480   4.771   9.758  0.00  0.00    -0.283 N 
ATOM     36  H   UNL     1       1.711   5.762   9.809  0.00  0.00    +0.155 HD
ATOM     37  N   UNL     1       0.163   5.014  11.683  0.00  0.00    -0.214 NA
BRANCH   4   3
ATOM      1  C   UNL     1      -1.533   7.881  14.512  0.00  0.00    +0.020 A 
ATOM      2  C   UNL     1      -1.085   6.969  13.485  0.00  0.00    +0.013 A 
ATOM      3  C   UNL     1      -1.122   5.528  13.700  0.00  0.00    +0.019 A 
ATOM     38  C   UNL     1      -1.624   5.039  14.976  0.00  0.00    +0.120 A 
ATOM     39  N   UNL     1      -2.047   5.941  15.947  0.00  0.00    -0.263 NA
ATOM     40  C   UNL     1      -2.014   7.329  15.752  0.00  0.00    +0.111 A 
ENDBRANCH   4   3
ENDBRANCH  10   9
BRANCH  12  13
ATOM     13  N   UNL     1       1.152   2.966   5.133  0.00  0.00    -0.281 N 
ATOM     14  C   UNL     1       1.571   3.435   3.899  0.00  0.00    +0.248 C 
ATOM     30  O   UNL     1       2.487   4.228   3.735  0.00  0.00    -0.270 OA
ATOM     31  H   UNL     1       0.262   2.468   5.145  0.00  0.00    +0.155 HD
BRANCH  14  15
ATOM     15  C   UNL     1       0.860   2.969   2.670  0.00  0.00    +0.037 A 
ATOM     16  C   UNL     1       0.425   1.577   2.525  0.00  0.00    +0.013 A 
ATOM     17  C   UNL     1      -0.244   1.150   1.322  0.00  0.00    +0.005 A 
ATOM     18  C   UNL     1      -0.483   2.117   0.253  0.00  0.00    -0.033 A 
ATOM     28  C   UNL     1      -0.045   3.492   0.425  0.00  0.00    +0.005 A 
ATOM     29  C   UNL     1       0.611   3.915   1.602  0.00  0.00    +0.013 A 
BRANCH  18  19
ATOM     19  C   UNL     1      -1.170   1.744  -1.074  0.00  0.00    +0.119 C 
BRANCH  19  20
ATOM     20  N   UNL     1      -2.335   2.576  -1.498  0.00  0.00    -0.302 NA
ATOM     21  C   UNL     1      -3.637   2.126  -0.829  0.00  0.00    +0.066 C 
ATOM     22  C   UNL     1      -4.841   3.022  -1.267  0.00  0.00    -0.064 C 
ATOM     23  N   UNL     1      -4.973   2.984  -2.791  0.00  0.00    +0.379 N 
ATOM     24  C   UNL     1      -6.140   3.779  -3.201  0.00  0.00    -0.096 C 
ATOM     25  H   UNL     1      -5.163   1.926  -3.088  0.00  0.00    -0.082 HD
ATOM     26  C   UNL     1      -3.682   3.428  -3.464  0.00  0.00    -0.064 C 
ATOM     27  C   UNL     1      -2.487   2.550  -2.999  0.00  0.00    +0.066 C 
ENDBRANCH  19  20
ENDBRANCH  18  19
ENDBRANCH  14  15
ENDBRANCH  12  13
TORSDOF 6
ENDMDL
MODEL 4
REMARK VINA RESULT:     -10.4      4.367     11.214
REMARK  Name = C:\Users\Docking\Desktop\test protocol\1iep_ligandH.pdb
REMARK  8 active torsions:
REMARK  status: ('A' for Active; 'I' for Inactive)
REMARK    1  A    between atoms: _5  and  _11
REMARK    2  A    between atoms: _19  and  _21
REMARK    3  A    between atoms: _22  and  _66
REMARK    4  A    between atoms: _27  and  _30
REMARK    5  A    between atoms: _32  and  _33
REMARK    6  A    between atoms: _38  and  _43
REMARK    7  A    between atoms: _43  and  _46
REMARK    8  A    between atoms: _53  and  _55
REMARK                            x       y       z     vdW  Elec       q    Type
REMARK                         _______ _______ _______ _____ _____    ______ ____
ROOT
ATOM     10  C   UNL     1       1.599   3.843   4.459  0.00  0.00    +0.038 A 
ATOM     11  C   UNL     1       0.436   3.396   3.781  0.00  0.00    +0.047 A 
ATOM     12  C   UNL     1       0.519   2.804   2.455  0.00  0.00    +0.035 A 
ATOM     32  C   UNL     1       1.804   2.680   1.850  0.00  0.00    +0.024 A 
ATOM     33  C   UNL     1       2.996   3.130   2.525  0.00  0.00    +0.007 A 
ATOM     34  C   UNL     1       2.920   3.717   3.832  0.00  0.00    -0.029 A 
ATOM     35  C   UNL     1       4.230   4.187   4.506  0.00  0.00    +0.045 C 
ENDROOT
BRANCH  10   9
ATOM      4  C   UNL     1       1.716   3.553   9.249  0.00  0.00    +0.077 A 
ATOM      5  C   UNL     1       2.055   2.159   9.215  0.00  0.00    +0.048 A 
ATOM      6  C   UNL     1       2.182   1.553   7.945  0.00  0.00    +0.116 A 
ATOM      7  N   UNL     1       1.984   2.295   6.801  0.00  0.00    -0.223 NA
ATOM      8  C   UNL     1       1.657   3.637   6.869  0.00  0.00    +0.220 A 
ATOM      9  N   UNL     1       1.461   4.404   5.731  0.00  0.00    -0.283 N 
ATOM     36  H   UNL     1       1.213   5.389   5.823  0.00  0.00    +0.155 HD
ATOM     37  N   UNL     1       1.528   4.239   8.070  0.00  0.00    -0.214 NA
BRANCH   4   3
ATOM      1  C   UNL     1       0.156   5.613  12.186  0.00  0.00    +0.020 A 
ATOM      2  C   UNL     1       0.264   4.864  10.955  0.00  0.00    +0.013 A 
ATOM      3  C   UNL     1       1.549   4.336  10.514  0.00  0.00    +0.019 A 
ATOM     38  C   UNL     1       2.715   4.585  11.348  0.00  0.00    +0.120 A 
ATOM     39  N   UNL     1       2.581   5.311  12.528  0.00  0.00    -0.263 NA
ATOM     40  C   UNL     1       1.350   5.825  12.961  0.00  0.00    +0.111 A 
ENDBRANCH   4   3
ENDBRANCH  10   9
BRANCH  12  13
ATOM     13  N   UNL     1      -0.628   2.340   1.714  0.00  0.00    -0.281 N 
ATOM     14  C   UNL     1      -0.797   1.118   1.084  0.00  0.00    +0.248 C 
ATOM     30  O   UNL     1       0.102   0.316   0.879  0.00  0.00    -0.270 OA
ATOM     31  H   UNL     1      -1.410   2.991   1.647  0.00  0.00    +0.155 HD
BRANCH  14  15
ATOM     15  C   UNL     1      -2.158   0.739   0.597  0.00  0.00    +0.037 A 
ATOM     16  C   UNL     1      -2.532  -0.664   0.402  0.00  0.00    +0.013 A 
ATOM     17  C   UNL     1      -3.846  -1.002  -0.084  0.00  0.00    +0.005 A 
ATOM     18  C   UNL     1      -4.797   0.067  -0.377  0.00  0.00    -0.033 A 
ATOM     28  C   UNL     1      -4.402   1.450  -0.170  0.00  0.00    +0.005 A 
ATOM     29  C   UNL     1      -3.115   1.785   0.306  0.00  0.00    +0.013 A 
BRANCH  18  19
ATOM     19  C   UNL     1      -6.214  -0.200  -0.920  0.00  0.00    +0.119 C 
BRANCH  19  20
ATOM     20  N   UNL     1      -7.330  -0.240   0.072  0.00  0.00    -0.302 NA
ATOM     21  C   UNL     1      -7.929   1.148   0.318  0.00  0.00    +0.066 C 
ATOM     22  C   UNL     1      -9.110   1.085   1.341  0.00  0.00    -0.064 C 
ATOM     23  N   UNL     1      -8.614   0.469   2.651  0.00  0.00    +0.379 N 
ATOM     24  C   UNL     1      -9.707   0.461   3.634  0.00  0.00    -0.096 C 
ATOM     25  H   UNL     1      -7.805   1.125   3.048  0.00  0.00    -0.082 HD
ATOM     26  C   UNL     1      -8.014  -0.910   2.414  0.00  0.00    -0.064 C 
ATOM     27  C   UNL     1      -6.861  -0.841   1.374  0.00  0.00    +0.066 C 
ENDBRANCH  19  20
ENDBRANCH  18  19
ENDBRANCH  14  15
ENDBRANCH  12  13
TORSDOF 6
ENDMDL
MODEL 5
REMARK VINA RESULT:     -10.2      4.332     12.303
REMARK  Name = C:\Users\Docking\Desktop\test protocol\1iep_ligandH.pdb
REMARK  8 active torsions:
REMARK  status: ('A' for Active; 'I' for Inactive)
REMARK    1  A    between atoms: _5  and  _11
REMARK    2  A    between atoms: _19  and  _21
REMARK    3  A    between atoms: _22  and  _66
REMARK    4  A    between atoms: _27  and  _30
REMARK    5  A    between atoms: _32  and  _33
REMARK    6  A    between atoms: _38  and  _43
REMARK    7  A    between atoms: _43  and  _46
REMARK    8  A    between atoms: _53  and  _55
REMARK                            x       y       z     vdW  Elec       q    Type
REMARK                         _______ _______ _______ _____ _____    ______ ____
ROOT
ATOM     10  C   UNL     1       1.747   3.741   4.623  0.00  0.00    +0.038 A 
ATOM     11  C   UNL     1       0.677   3.036   4.016  0.00  0.00    +0.047 A 
ATOM     12  C   UNL     1       0.831   2.411   2.711  0.00  0.00    +0.035 A 
ATOM     32  C   UNL     1       2.091   2.523   2.054  0.00  0.00    +0.024 A 
ATOM     33  C   UNL     1       3.189   3.237   2.655  0.00  0.00    +0.007 A 
ATOM     34  C   UNL     1       3.042   3.857   3.941  0.00  0.00    -0.029 A 
ATOM     35  C   UNL     1       4.252   4.616   4.535  0.00  0.00    +0.045 C 
ENDROOT
BRANCH  10   9
ATOM      4  C   UNL     1       1.934   3.632   9.418  0.00  0.00    +0.077 A 
ATOM      5  C   UNL     1       2.455   2.295   9.426  0.00  0.00    +0.048 A 
ATOM      6  C   UNL     1       2.654   1.669   8.175  0.00  0.00    +0.116 A 
ATOM      7  N   UNL     1       2.351   2.339   7.009  0.00  0.00    -0.223 NA
ATOM      8  C   UNL     1       1.848   3.626   7.037  0.00  0.00    +0.220 A 
ATOM      9  N   UNL     1       1.544   4.322   5.877  0.00  0.00    -0.283 N 
ATOM     36  H   UNL     1       1.168   5.267   5.940  0.00  0.00    +0.155 HD
ATOM     37  N   UNL     1       1.648   4.246   8.219  0.00  0.00    -0.214 NA
BRANCH   4   3
ATOM      1  C   UNL     1       0.168   5.758  12.186  0.00  0.00    +0.020 A 
ATOM      2  C   UNL     1       0.368   4.998  10.973  0.00  0.00    +0.013 A 
ATOM      3  C   UNL     1       1.672   4.428  10.658  0.00  0.00    +0.019 A 
ATOM     38  C   UNL     1       2.761   4.647  11.598  0.00  0.00    +0.120 A 
ATOM     39  N   UNL     1       2.539   5.385  12.757  0.00  0.00    -0.263 NA
ATOM     40  C   UNL     1       1.289   5.939  13.070  0.00  0.00    +0.111 A 
ENDBRANCH   4   3
ENDBRANCH  10   9
BRANCH  12  13
ATOM     13  N   UNL     1      -0.223   1.689   2.043  0.00  0.00    -0.281 N 
ATOM     14  C   UNL     1      -0.801   1.969   0.816  0.00  0.00    +0.248 C 
ATOM     30  O   UNL     1      -0.646   3.014   0.201  0.00  0.00    -0.270 OA
ATOM     31  H   UNL     1      -0.586   0.872   2.533  0.00  0.00    +0.155 HD
BRANCH  14  15
ATOM     15  C   UNL     1      -1.692   0.947   0.187  0.00  0.00    +0.037 A 
ATOM     16  C   UNL     1      -3.095   1.244  -0.114  0.00  0.00    +0.013 A 
ATOM     17  C   UNL     1      -3.937   0.234  -0.705  0.00  0.00    +0.005 A 
ATOM     18  C   UNL     1      -3.378  -1.083  -0.999  0.00  0.00    -0.033 A 
ATOM     28  C   UNL     1      -1.982  -1.349  -0.695  0.00  0.00    +0.005 A 
ATOM     29  C   UNL     1      -1.153  -0.362  -0.115  0.00  0.00    +0.013 A 
BRANCH  18  19
ATOM     19  C   UNL     1      -4.209  -2.227  -1.610  0.00  0.00    +0.119 C 
BRANCH  19  20
ATOM     20  N   UNL     1      -4.142  -3.557  -0.933  0.00  0.00    -0.302 NA
ATOM     21  C   UNL     1      -4.857  -4.647  -1.737  0.00  0.00    +0.066 C 
ATOM     22  C   UNL     1      -4.759  -6.035  -1.025  0.00  0.00    -0.064 C 
ATOM     23  N   UNL     1      -5.347  -5.927   0.383  0.00  0.00    +0.379 N 
ATOM     24  C   UNL     1      -5.309  -7.245   1.033  0.00  0.00    -0.096 C 
ATOM     25  H   UNL     1      -6.417  -5.631   0.280  0.00  0.00    -0.082 HD
ATOM     26  C   UNL     1      -4.644  -4.843   1.188  0.00  0.00    -0.064 C 
ATOM     27  C   UNL     1      -4.722  -3.473   0.458  0.00  0.00    +0.066 C 
ENDBRANCH  19  20
ENDBRANCH  18  19
ENDBRANCH  14  15
ENDBRANCH  12  13
TORSDOF 6
ENDMDL
