MODEL 1
REMARK VINA RESULT:     -11.2      0.000      0.000
REMARK  Name = C:\Users\Docking\Desktop\test protocol\1iep_ligandH.pdb
REMARK  8 active torsions:
REMARK  status: ('A' for Active; 'I' for Inactive)
REMARK    1  A    between atoms: _5  and  _11
REMARK    2  A    between atoms: _19  and  _21
REMARK    3  A    between atoms: _22  and  _66
REMARK    4  A    between atoms: _27  and  _30
REMARK    5  A    between atoms: _32  and  _33
REMARK    6  A    between atoms: _38  and  _43
REMARK    7  A    between atoms: _43  and  _46
REMARK    8  A    between atoms: _53  and  _55
REMARK                            x       y       z     vdW  Elec       q    Type
REMARK                         _______ _______ _______ _____ _____    ______ ____
ROOT
ATOM     10  C   UNL     1     -20.448 -15.919   0.675  0.00  0.00    +0.038 A 
ATOM     11  C   UNL     1     -19.505 -15.145   1.399  0.00  0.00    +0.047 A 
ATOM     12  C   UNL     1     -18.101 -15.120   1.019  0.00  0.00    +0.035 A 
ATOM     32  C   UNL     1     -17.692 -15.895  -0.105  0.00  0.00    +0.024 A 
ATOM     33  C   UNL     1     -18.636 -16.689  -0.851  0.00  0.00    +0.007 A 
ATOM     34  C   UNL     1     -20.022 -16.718  -0.480  0.00  0.00    -0.029 A 
ATOM     35  C   UNL     1     -20.989 -17.592  -1.313  0.00  0.00    +0.045 C 
ENDROOT
BRANCH  10   9
ATOM      4  C   UNL     1     -24.938 -14.246   0.407  0.00  0.00    +0.077 A 
ATOM      5  C   UNL     1     -24.588 -13.300  -0.613  0.00  0.00    +0.048 A 
ATOM      6  C   UNL     1     -23.240 -13.272  -1.036  0.00  0.00    +0.116 A 
ATOM      7  N   UNL     1     -22.320 -14.129  -0.474  0.00  0.00    -0.223 NA
ATOM      8  C   UNL     1     -22.691 -15.028   0.509  0.00  0.00    +0.220 A 
ATOM      9  N   UNL     1     -21.783 -15.905   1.083  0.00  0.00    -0.283 N 
ATOM     36  H   UNL     1     -22.095 -16.548   1.811  0.00  0.00    +0.155 HD
ATOM     37  N   UNL     1     -23.971 -15.074   0.932  0.00  0.00    -0.214 NA
BRANCH   4   3
ATOM      1  C   UNL     1     -27.958 -15.185   2.709  0.00  0.00    +0.020 A 
ATOM      2  C   UNL     1     -26.603 -15.065   2.223  0.00  0.00    +0.013 A 
ATOM      3  C   UNL     1     -26.323 -14.399   0.957  0.00  0.00    +0.019 A 
ATOM     38  C   UNL     1     -27.444 -13.861   0.202  0.00  0.00    +0.120 A 
ATOM     39  N   UNL     1     -28.739 -13.994   0.694  0.00  0.00    -0.263 NA
ATOM     40  C   UNL     1     -29.021 -14.634   1.910  0.00  0.00    +0.111 A 
ENDBRANCH   4   3
ENDBRANCH  10   9
BRANCH  12  13
ATOM     13  N   UNL     1     -17.097 -14.359   1.721  0.00  0.00    -0.281 N 
ATOM     14  C   UNL     1     -16.427 -14.703   2.884  0.00  0.00    +0.248 C 
ATOM     30  O   UNL     1     -16.744 -15.627   3.617  0.00  0.00    -0.270 OA
ATOM     31  H   UNL     1     -16.852 -13.458   1.312  0.00  0.00    +0.155 HD
BRANCH  14  15
ATOM     15  C   UNL     1     -15.240 -13.894   3.299  0.00  0.00    +0.037 A 
ATOM     16  C   UNL     1     -14.753 -12.784   2.476  0.00  0.00    +0.013 A 
ATOM     17  C   UNL     1     -13.596 -12.030   2.891  0.00  0.00    +0.005 A 
ATOM     18  C   UNL     1     -12.920 -12.384   4.137  0.00  0.00    -0.033 A 
ATOM     28  C   UNL     1     -13.428 -13.487   4.936  0.00  0.00    +0.005 A 
ATOM     29  C   UNL     1     -14.561 -14.228   4.532  0.00  0.00    +0.013 A 
BRANCH  18  19
ATOM     19  C   UNL     1     -11.666 -11.649   4.647  0.00  0.00    +0.119 C 
BRANCH  19  20
ATOM     20  N   UNL     1     -10.342 -12.281   4.369  0.00  0.00    -0.302 NA
ATOM     21  C   UNL     1     -10.384 -13.182   3.132  0.00  0.00    +0.066 C 
ATOM     22  C   UNL     1      -8.985 -13.818   2.843  0.00  0.00    -0.064 C 
ATOM     23  N   UNL     1      -8.523 -14.605   4.071  0.00  0.00    +0.379 N 
ATOM     24  C   UNL     1      -7.234 -15.252   3.782  0.00  0.00    -0.096 C 
ATOM     25  H   UNL     1      -9.271 -15.410   4.258  0.00  0.00    -0.082 HD
ATOM     26  C   UNL     1      -8.481 -13.717   5.307  0.00  0.00    -0.064 C 
ATOM     27  C   UNL     1      -9.868 -13.067   5.567  0.00  0.00    +0.066 C 
ENDBRANCH  19  20
ENDBRANCH  18  19
ENDBRANCH  14  15
ENDBRANCH  12  13
TORSDOF 6
ENDMDL
MODEL 2
REMARK VINA RESULT:     -10.9      1.910      2.805
REMARK  Name = C:\Users\Docking\Desktop\test protocol\1iep_ligandH.pdb
REMARK  8 active torsions:
REMARK  status: ('A' for Active; 'I' for Inactive)
REMARK    1  A    between atoms: _5  and  _11
REMARK    2  A    between atoms: _19  and  _21
REMARK    3  A    between atoms: _22  and  _66
REMARK    4  A    between atoms: _27  and  _30
REMARK    5  A    between atoms: _32  and  _33
REMARK    6  A    between atoms: _38  and  _43
REMARK    7  A    between atoms: _43  and  _46
REMARK    8  A    between atoms: _53  and  _55
REMARK                            x       y       z     vdW  Elec       q    Type
REMARK                         _______ _______ _______ _____ _____    ______ ____
ROOT
ATOM     10  C   UNL     1     -20.377 -15.965   0.812  0.00  0.00    +0.038 A 
ATOM     11  C   UNL     1     -19.475 -15.217   1.611  0.00  0.00    +0.047 A 
ATOM     12  C   UNL     1     -18.054 -15.175   1.304  0.00  0.00    +0.035 A 
ATOM     32  C   UNL     1     -17.585 -15.905   0.172  0.00  0.00    +0.024 A 
ATOM     33  C   UNL     1     -18.488 -16.671  -0.651  0.00  0.00    +0.007 A 
ATOM     34  C   UNL     1     -19.891 -16.718  -0.351  0.00  0.00    -0.029 A 
ATOM     35  C   UNL     1     -20.811 -17.561  -1.264  0.00  0.00    +0.045 C 
ENDROOT
BRANCH  10   9
ATOM      4  C   UNL     1     -24.861 -14.313   0.363  0.00  0.00    +0.077 A 
ATOM      5  C   UNL     1     -24.467 -13.339  -0.614  0.00  0.00    +0.048 A 
ATOM      6  C   UNL     1     -23.100 -13.291  -0.969  0.00  0.00    +0.116 A 
ATOM      7  N   UNL     1     -22.203 -14.157  -0.383  0.00  0.00    -0.223 NA
ATOM      8  C   UNL     1     -22.615 -15.084   0.557  0.00  0.00    +0.220 A 
ATOM      9  N   UNL     1     -21.731 -15.970   1.153  0.00  0.00    -0.283 N 
ATOM     36  H   UNL     1     -22.074 -16.633   1.847  0.00  0.00    +0.155 HD
ATOM     37  N   UNL     1     -23.915 -15.148   0.913  0.00  0.00    -0.214 NA
BRANCH   4   3
ATOM      1  C   UNL     1     -27.978 -15.164   2.567  0.00  0.00    +0.020 A 
ATOM      2  C   UNL     1     -26.601 -15.015   2.156  0.00  0.00    +0.013 A 
ATOM      3  C   UNL     1     -26.269 -14.488   0.838  0.00  0.00    +0.019 A 
ATOM     38  C   UNL     1     -27.364 -14.119  -0.047  0.00  0.00    +0.120 A 
ATOM     39  N   UNL     1     -28.680 -14.275   0.375  0.00  0.00    -0.263 NA
ATOM     40  C   UNL     1     -29.011 -14.782   1.641  0.00  0.00    +0.111 A 
ENDBRANCH   4   3
ENDBRANCH  10   9
BRANCH  12  13
ATOM     13  N   UNL     1     -17.089 -14.440   2.084  0.00  0.00    -0.281 N 
ATOM     14  C   UNL     1     -16.113 -14.945   2.927  0.00  0.00    +0.248 C 
ATOM     30  O   UNL     1     -16.059 -16.106   3.304  0.00  0.00    -0.270 OA
ATOM     31  H   UNL     1     -17.132 -13.424   2.005  0.00  0.00    +0.155 HD
BRANCH  14  15
ATOM     15  C   UNL     1     -15.051 -14.024   3.435  0.00  0.00    +0.037 A 
ATOM     16  C   UNL     1     -14.471 -14.196   4.769  0.00  0.00    +0.013 A 
ATOM     17  C   UNL     1     -13.460 -13.283   5.242  0.00  0.00    +0.005 A 
ATOM     18  C   UNL     1     -13.022 -12.190   4.377  0.00  0.00    -0.033 A 
ATOM     28  C   UNL     1     -13.611 -12.046   3.056  0.00  0.00    +0.005 A 
ATOM     29  C   UNL     1     -14.602 -12.938   2.590  0.00  0.00    +0.013 A 
BRANCH  18  19
ATOM     19  C   UNL     1     -11.964 -11.157   4.807  0.00  0.00    +0.119 C 
BRANCH  19  20
ATOM     20  N   UNL     1     -11.791  -9.954   3.939  0.00  0.00    -0.302 NA
ATOM     21  C   UNL     1     -10.559 -10.068   3.037  0.00  0.00    +0.066 C 
ATOM     22  C   UNL     1     -10.407  -8.811   2.120  0.00  0.00    -0.064 C 
ATOM     23  N   UNL     1     -10.327  -7.555   2.990  0.00  0.00    +0.379 N 
ATOM     24  C   UNL     1     -10.125  -6.377   2.134  0.00  0.00    -0.096 C 
ATOM     25  H   UNL     1      -9.430  -7.655   3.646  0.00  0.00    -0.082 HD
ATOM     26  C   UNL     1     -11.547  -7.435   3.892  0.00  0.00    -0.064 C 
ATOM     27  C   UNL     1     -11.706  -8.702   4.778  0.00  0.00    +0.066 C 
ENDBRANCH  19  20
ENDBRANCH  18  19
ENDBRANCH  14  15
ENDBRANCH  12  13
TORSDOF 6
ENDMDL
MODEL 3
REMARK VINA RESULT:     -10.6      1.764      2.318
REMARK  Name = C:\Users\Docking\Desktop\test protocol\1iep_ligandH.pdb
REMARK  8 active torsions:
REMARK  status: ('A' for Active; 'I' for Inactive)
REMARK    1  A    between atoms: _5  and  _11
REMARK    2  A    between atoms: _19  and  _21
REMARK    3  A    between atoms: _22  and  _66
REMARK    4  A    between atoms: _27  and  _30
REMARK    5  A    between atoms: _32  and  _33
REMARK    6  A    between atoms: _38  and  _43
REMARK    7  A    between atoms: _43  and  _46
REMARK    8  A    between atoms: _53  and  _55
REMARK                            x       y       z     vdW  Elec       q    Type
REMARK                         _______ _______ _______ _____ _____    ______ ____
ROOT
ATOM     10  C   UNL     1     -20.075 -15.894   1.140  0.00  0.00    +0.038 A 
ATOM     11  C   UNL     1     -19.197 -15.124   1.945  0.00  0.00    +0.047 A 
ATOM     12  C   UNL     1     -17.766 -15.103   1.689  0.00  0.00    +0.035 A 
ATOM     32  C   UNL     1     -17.262 -15.877   0.603  0.00  0.00    +0.024 A 
ATOM     33  C   UNL     1     -18.140 -16.666  -0.225  0.00  0.00    +0.007 A 
ATOM     34  C   UNL     1     -19.553 -16.693   0.025  0.00  0.00    -0.029 A 
ATOM     35  C   UNL     1     -20.446 -17.562  -0.891  0.00  0.00    +0.045 C 
ENDROOT
BRANCH  10   9
ATOM      4  C   UNL     1     -24.541 -14.298   0.401  0.00  0.00    +0.077 A 
ATOM      5  C   UNL     1     -24.112 -13.401  -0.633  0.00  0.00    +0.048 A 
ATOM      6  C   UNL     1     -22.733 -13.376  -0.940  0.00  0.00    +0.116 A 
ATOM      7  N   UNL     1     -21.857 -14.191  -0.257  0.00  0.00    -0.223 NA
ATOM      8  C   UNL     1     -22.303 -15.043   0.737  0.00  0.00    +0.220 A 
ATOM      9  N   UNL     1     -21.441 -15.878   1.431  0.00  0.00    -0.283 N 
ATOM     36  H   UNL     1     -21.808 -16.486   2.162  0.00  0.00    +0.155 HD
ATOM     37  N   UNL     1     -23.615 -15.085   1.049  0.00  0.00    -0.214 NA
BRANCH   4   3
ATOM      1  C   UNL     1     -27.744 -15.224   2.447  0.00  0.00    +0.020 A 
ATOM      2  C   UNL     1     -26.353 -15.114   2.071  0.00  0.00    +0.013 A 
ATOM      3  C   UNL     1     -25.966 -14.441   0.838  0.00  0.00    +0.019 A 
ATOM     38  C   UNL     1     -27.019 -13.886   0.000  0.00  0.00    +0.120 A 
ATOM     39  N   UNL     1     -28.350 -14.009   0.387  0.00  0.00    -0.263 NA
ATOM     40  C   UNL     1     -28.734 -14.656   1.571  0.00  0.00    +0.111 A 
ENDBRANCH   4   3
ENDBRANCH  10   9
BRANCH  12  13
ATOM     13  N   UNL     1     -16.824 -14.347   2.477  0.00  0.00    -0.281 N 
ATOM     14  C   UNL     1     -15.612 -14.772   2.996  0.00  0.00    +0.248 C 
ATOM     30  O   UNL     1     -15.251 -15.938   3.041  0.00  0.00    -0.270 OA
ATOM     31  H   UNL     1     -17.083 -13.380   2.677  0.00  0.00    +0.155 HD
BRANCH  14  15
ATOM     15  C   UNL     1     -14.672 -13.756   3.559  0.00  0.00    +0.037 A 
ATOM     16  C   UNL     1     -14.309 -12.555   2.802  0.00  0.00    +0.013 A 
ATOM     17  C   UNL     1     -13.386 -11.599   3.362  0.00  0.00    +0.005 A 
ATOM     18  C   UNL     1     -12.821 -11.840   4.687  0.00  0.00    -0.033 A 
ATOM     28  C   UNL     1     -13.202 -13.037   5.418  0.00  0.00    +0.005 A 
ATOM     29  C   UNL     1     -14.106 -13.977   4.872  0.00  0.00    +0.013 A 
BRANCH  18  19
ATOM     19  C   UNL     1     -11.813 -10.885   5.353  0.00  0.00    +0.119 C 
BRANCH  19  20
ATOM     20  N   UNL     1     -11.032 -11.414   6.511  0.00  0.00    -0.302 NA
ATOM     21  C   UNL     1     -11.541 -10.863   7.846  0.00  0.00    +0.066 C 
ATOM     22  C   UNL     1     -10.727 -11.444   9.049  0.00  0.00    -0.064 C 
ATOM     23  N   UNL     1      -9.244 -11.123   8.860  0.00  0.00    +0.379 N 
ATOM     24  C   UNL     1      -8.484 -11.617  10.017  0.00  0.00    -0.096 C 
ATOM     25  H   UNL     1      -9.139 -10.013   8.835  0.00  0.00    -0.082 HD
ATOM     26  C   UNL     1      -8.731 -11.665   7.534  0.00  0.00    -0.064 C 
ATOM     27  C   UNL     1      -9.564 -11.104   6.348  0.00  0.00    +0.066 C 
ENDBRANCH  19  20
ENDBRANCH  18  19
ENDBRANCH  14  15
ENDBRANCH  12  13
TORSDOF 6
ENDMDL
MODEL 4
REMARK VINA RESULT:     -10.2      7.681     12.100
REMARK  Name = C:\Users\Docking\Desktop\test protocol\1iep_ligandH.pdb
REMARK  8 active torsions:
REMARK  status: ('A' for Active; 'I' for Inactive)
REMARK    1  A    between atoms: _5  and  _11
REMARK    2  A    between atoms: _19  and  _21
REMARK    3  A    between atoms: _22  and  _66
REMARK    4  A    between atoms: _27  and  _30
REMARK    5  A    between atoms: _32  and  _33
REMARK    6  A    between atoms: _38  and  _43
REMARK    7  A    between atoms: _43  and  _46
REMARK    8  A    between atoms: _53  and  _55
REMARK                            x       y       z     vdW  Elec       q    Type
REMARK                         _______ _______ _______ _____ _____    ______ ____
ROOT
ATOM     10  C   UNL     1     -28.385  -5.915  -1.534  0.00  0.00    +0.038 A 
ATOM     11  C   UNL     1     -27.487  -6.773  -0.849  0.00  0.00    +0.047 A 
ATOM     12  C   UNL     1     -26.584  -7.652  -1.576  0.00  0.00    +0.035 A 
ATOM     32  C   UNL     1     -26.620  -7.630  -3.001  0.00  0.00    +0.024 A 
ATOM     33  C   UNL     1     -27.527  -6.765  -3.713  0.00  0.00    +0.007 A 
ATOM     34  C   UNL     1     -28.422  -5.897  -3.002  0.00  0.00    -0.029 A 
ATOM     35  C   UNL     1     -29.377  -4.995  -3.817  0.00  0.00    +0.045 C 
ENDROOT
BRANCH  10   9
ATOM      4  C   UNL     1     -32.309  -5.180   1.129  0.00  0.00    +0.077 A 
ATOM      5  C   UNL     1     -32.726  -6.547   0.998  0.00  0.00    +0.048 A 
ATOM      6  C   UNL     1     -31.906  -7.404   0.231  0.00  0.00    +0.116 A 
ATOM      7  N   UNL     1     -30.757  -6.921  -0.357  0.00  0.00    -0.223 NA
ATOM      8  C   UNL     1     -30.385  -5.597  -0.211  0.00  0.00    +0.220 A 
ATOM      9  N   UNL     1     -29.229  -5.091  -0.787  0.00  0.00    -0.283 N 
ATOM     36  H   UNL     1     -28.993  -4.107  -0.662  0.00  0.00    +0.155 HD
ATOM     37  N   UNL     1     -31.151  -4.758   0.515  0.00  0.00    -0.214 NA
BRANCH   4   3
ATOM      1  C   UNL     1     -34.257  -1.939   2.130  0.00  0.00    +0.020 A 
ATOM      2  C   UNL     1     -33.528  -2.898   1.331  0.00  0.00    +0.013 A 
ATOM      3  C   UNL     1     -33.067  -4.153   1.911  0.00  0.00    +0.019 A 
ATOM     38  C   UNL     1     -33.363  -4.410   3.312  0.00  0.00    +0.120 A 
ATOM     39  N   UNL     1     -34.066  -3.468   4.057  0.00  0.00    -0.263 NA
ATOM     40  C   UNL     1     -34.513  -2.256   3.510  0.00  0.00    +0.111 A 
ENDBRANCH   4   3
ENDBRANCH  10   9
BRANCH  12  13
ATOM     13  N   UNL     1     -25.657  -8.551  -0.935  0.00  0.00    -0.281 N 
ATOM     14  C   UNL     1     -25.876  -9.860  -0.537  0.00  0.00    +0.248 C 
ATOM     30  O   UNL     1     -26.976 -10.390  -0.479  0.00  0.00    -0.270 OA
ATOM     31  H   UNL     1     -24.726  -8.177  -0.752  0.00  0.00    +0.155 HD
BRANCH  14  15
ATOM     15  C   UNL     1     -24.706 -10.697  -0.131  0.00  0.00    +0.037 A 
ATOM     16  C   UNL     1     -23.829 -10.293   0.971  0.00  0.00    +0.013 A 
ATOM     17  C   UNL     1     -22.697 -11.110   1.331  0.00  0.00    +0.005 A 
ATOM     18  C   UNL     1     -22.437 -12.341   0.589  0.00  0.00    -0.033 A 
ATOM     28  C   UNL     1     -23.327 -12.720  -0.497  0.00  0.00    +0.005 A 
ATOM     29  C   UNL     1     -24.436 -11.922  -0.853  0.00  0.00    +0.013 A 
BRANCH  18  19
ATOM     19  C   UNL     1     -21.241 -13.263   0.890  0.00  0.00    +0.119 C 
BRANCH  19  20
ATOM     20  N   UNL     1     -20.879 -14.275  -0.147  0.00  0.00    -0.302 NA
ATOM     21  C   UNL     1     -21.322 -15.686   0.250  0.00  0.00    +0.066 C 
ATOM     22  C   UNL     1     -20.956 -16.729  -0.856  0.00  0.00    -0.064 C 
ATOM     23  N   UNL     1     -19.449 -16.687  -1.114  0.00  0.00    +0.379 N 
ATOM     24  C   UNL     1     -19.094 -17.707  -2.112  0.00  0.00    -0.096 C 
ATOM     25  H   UNL     1     -18.935 -16.952  -0.161  0.00  0.00    -0.082 HD
ATOM     26  C   UNL     1     -19.000 -15.286  -1.506  0.00  0.00    -0.064 C 
ATOM     27  C   UNL     1     -19.395 -14.253  -0.414  0.00  0.00    +0.066 C 
ENDBRANCH  19  20
ENDBRANCH  18  19
ENDBRANCH  14  15
ENDBRANCH  12  13
TORSDOF 6
ENDMDL
MODEL 5
REMARK VINA RESULT:      -9.9      6.940     14.028
REMARK  Name = C:\Users\Docking\Desktop\test protocol\1iep_ligandH.pdb
REMARK  8 active torsions:
REMARK  status: ('A' for Active; 'I' for Inactive)
REMARK    1  A    between atoms: _5  and  _11
REMARK    2  A    between atoms: _19  and  _21
REMARK    3  A    between atoms: _22  and  _66
REMARK    4  A    between atoms: _27  and  _30
REMARK    5  A    between atoms: _32  and  _33
REMARK    6  A    between atoms: _38  and  _43
REMARK    7  A    between atoms: _43  and  _46
REMARK    8  A    between atoms: _53  and  _55
REMARK                            x       y       z     vdW  Elec       q    Type
REMARK                         _______ _______ _______ _____ _____    ______ ____
ROOT
ATOM     10  C   UNL     1     -26.075 -13.559   0.545  0.00  0.00    +0.038 A 
ATOM     11  C   UNL     1     -26.245 -12.353  -0.182  0.00  0.00    +0.047 A 
ATOM     12  C   UNL     1     -27.321 -11.427   0.137  0.00  0.00    +0.035 A 
ATOM     32  C   UNL     1     -28.204 -11.760   1.205  0.00  0.00    +0.024 A 
ATOM     33  C   UNL     1     -28.047 -12.982   1.954  0.00  0.00    +0.007 A 
ATOM     34  C   UNL     1     -26.989 -13.900   1.642  0.00  0.00    -0.029 A 
ATOM     35  C   UNL     1     -26.872 -15.199   2.473  0.00  0.00    +0.045 C 
ENDROOT
BRANCH  10   9
ATOM      4  C   UNL     1     -21.405 -14.506  -0.034  0.00  0.00    +0.077 A 
ATOM      5  C   UNL     1     -21.027 -13.181   0.368  0.00  0.00    +0.048 A 
ATOM      6  C   UNL     1     -22.064 -12.285   0.709  0.00  0.00    +0.116 A 
ATOM      7  N   UNL     1     -23.379 -12.693   0.649  0.00  0.00    -0.223 NA
ATOM      8  C   UNL     1     -23.710 -13.977   0.255  0.00  0.00    +0.220 A 
ATOM      9  N   UNL     1     -25.025 -14.411   0.195  0.00  0.00    -0.283 N 
ATOM     36  H   UNL     1     -25.228 -15.364  -0.107  0.00  0.00    +0.155 HD
ATOM     37  N   UNL     1     -22.738 -14.851  -0.076  0.00  0.00    -0.214 NA
BRANCH   4   3
ATOM      1  C   UNL     1     -18.673 -17.300   0.125  0.00  0.00    +0.020 A 
ATOM      2  C   UNL     1     -19.606 -16.283   0.551  0.00  0.00    +0.013 A 
ATOM      3  C   UNL     1     -20.424 -15.568  -0.420  0.00  0.00    +0.019 A 
ATOM     38  C   UNL     1     -20.273 -15.910  -1.827  0.00  0.00    +0.120 A 
ATOM     39  N   UNL     1     -19.366 -16.894  -2.208  0.00  0.00    -0.263 NA
ATOM     40  C   UNL     1     -18.572 -17.587  -1.282  0.00  0.00    +0.111 A 
ENDBRANCH   4   3
ENDBRANCH  10   9
BRANCH  12  13
ATOM     13  N   UNL     1     -27.547 -10.192  -0.571  0.00  0.00    -0.281 N 
ATOM     14  C   UNL     1     -26.609  -9.254  -0.969  0.00  0.00    +0.248 C 
ATOM     30  O   UNL     1     -25.449  -9.232  -0.587  0.00  0.00    -0.270 OA
ATOM     31  H   UNL     1     -28.518  -9.983  -0.808  0.00  0.00    +0.155 HD
BRANCH  14  15
ATOM     15  C   UNL     1     -27.023  -8.176  -1.918  0.00  0.00    +0.037 A 
ATOM     16  C   UNL     1     -26.253  -7.896  -3.133  0.00  0.00    +0.013 A 
ATOM     17  C   UNL     1     -26.665  -6.839  -4.023  0.00  0.00    +0.005 A 
ATOM     18  C   UNL     1     -27.855  -6.055  -3.701  0.00  0.00    -0.033 A 
ATOM     28  C   UNL     1     -28.603  -6.358  -2.492  0.00  0.00    +0.005 A 
ATOM     29  C   UNL     1     -28.202  -7.392  -1.617  0.00  0.00    +0.013 A 
BRANCH  18  19
ATOM     19  C   UNL     1     -28.356  -4.895  -4.582  0.00  0.00    +0.119 C 
BRANCH  19  20
ATOM     20  N   UNL     1     -27.340  -3.908  -5.055  0.00  0.00    -0.302 NA
ATOM     21  C   UNL     1     -27.860  -2.469  -4.984  0.00  0.00    +0.066 C 
ATOM     22  C   UNL     1     -26.776  -1.448  -5.461  0.00  0.00    -0.064 C 
ATOM     23  N   UNL     1     -26.343  -1.798  -6.886  0.00  0.00    +0.379 N 
ATOM     24  C   UNL     1     -25.367  -0.805  -7.359  0.00  0.00    -0.096 C 
ATOM     25  H   UNL     1     -27.243  -1.726  -7.540  0.00  0.00    -0.082 HD
ATOM     26  C   UNL     1     -25.827  -3.227  -6.967  0.00  0.00    -0.064 C 
ATOM     27  C   UNL     1     -26.901  -4.232  -6.462  0.00  0.00    +0.066 C 
ENDBRANCH  19  20
ENDBRANCH  18  19
ENDBRANCH  14  15
ENDBRANCH  12  13
TORSDOF 6
ENDMDL
