MODEL 1
REMARK VINA RESULT:     -10.6      0.000      0.000
REMARK  Name = C:\Users\Docking\Desktop\test protocol\1iep_ligandH.pdb
REMARK  8 active torsions:
REMARK  status: ('A' for Active; 'I' for Inactive)
REMARK    1  A    between atoms: _5  and  _11
REMARK    2  A    between atoms: _19  and  _21
REMARK    3  A    between atoms: _22  and  _66
REMARK    4  A    between atoms: _27  and  _30
REMARK    5  A    between atoms: _32  and  _33
REMARK    6  A    between atoms: _38  and  _43
REMARK    7  A    between atoms: _43  and  _46
REMARK    8  A    between atoms: _53  and  _55
REMARK                            x       y       z     vdW  Elec       q    Type
REMARK                         _______ _______ _______ _____ _____    ______ ____
ROOT
ATOM     10  C   UNL     1      48.588 -32.195   1.510  0.00  0.00    +0.038 A 
ATOM     11  C   UNL     1      48.396 -32.991   2.668  0.00  0.00    +0.047 A 
ATOM     12  C   UNL     1      47.164 -32.915   3.437  0.00  0.00    +0.035 A 
ATOM     32  C   UNL     1      46.146 -32.020   2.996  0.00  0.00    +0.024 A 
ATOM     33  C   UNL     1      46.326 -31.203   1.822  0.00  0.00    +0.007 A 
ATOM     34  C   UNL     1      47.540 -31.271   1.061  0.00  0.00    -0.029 A 
ATOM     35  C   UNL     1      47.680 -30.367  -0.186  0.00  0.00    +0.045 C 
ENDROOT
BRANCH  10   9
ATOM      4  C   UNL     1      53.383 -32.159   1.300  0.00  0.00    +0.077 A 
ATOM      5  C   UNL     1      53.501 -31.863   2.699  0.00  0.00    +0.048 A 
ATOM      6  C   UNL     1      52.304 -31.721   3.435  0.00  0.00    +0.116 A 
ATOM      7  N   UNL     1      51.085 -31.866   2.809  0.00  0.00    -0.223 NA
ATOM      8  C   UNL     1      51.007 -32.150   1.458  0.00  0.00    +0.220 A 
ATOM      9  N   UNL     1      49.792 -32.308   0.809  0.00  0.00    -0.283 N 
ATOM     36  H   UNL     1      49.776 -32.510  -0.190  0.00  0.00    +0.155 HD
ATOM     37  N   UNL     1      52.136 -32.289   0.732  0.00  0.00    -0.214 NA
BRANCH   4   3
ATOM      1  C   UNL     1      56.164 -31.528  -1.378  0.00  0.00    +0.020 A 
ATOM      2  C   UNL     1      55.025 -31.301  -0.519  0.00  0.00    +0.013 A 
ATOM      3  C   UNL     1      54.557 -32.341   0.388  0.00  0.00    +0.019 A 
ATOM     38  C   UNL     1      55.270 -33.609   0.403  0.00  0.00    +0.120 A 
ATOM     39  N   UNL     1      56.363 -33.800  -0.437  0.00  0.00    -0.263 NA
ATOM     40  C   UNL     1      56.821 -32.807  -1.316  0.00  0.00    +0.111 A 
ENDBRANCH   4   3
ENDBRANCH  10   9
BRANCH  12  13
ATOM     13  N   UNL     1      46.915 -33.693   4.626  0.00  0.00    -0.281 N 
ATOM     14  C   UNL     1      47.570 -33.620   5.844  0.00  0.00    +0.248 C 
ATOM     30  O   UNL     1      48.618 -33.018   6.030  0.00  0.00    -0.270 OA
ATOM     31  H   UNL     1      46.165 -34.381   4.561  0.00  0.00    +0.155 HD
BRANCH  14  15
ATOM     15  C   UNL     1      46.985 -34.329   7.022  0.00  0.00    +0.037 A 
ATOM     16  C   UNL     1      47.243 -33.870   8.390  0.00  0.00    +0.013 A 
ATOM     17  C   UNL     1      46.680 -34.583   9.509  0.00  0.00    +0.005 A 
ATOM     18  C   UNL     1      45.852 -35.761   9.265  0.00  0.00    -0.033 A 
ATOM     28  C   UNL     1      45.608 -36.191   7.898  0.00  0.00    +0.005 A 
ATOM     29  C   UNL     1      46.159 -35.496   6.799  0.00  0.00    +0.013 A 
BRANCH  18  19
ATOM     19  C   UNL     1      45.228 -36.595  10.400  0.00  0.00    +0.119 C 
BRANCH  19  20
ATOM     20  N   UNL     1      44.366 -37.749  10.007  0.00  0.00    -0.302 NA
ATOM     21  C   UNL     1      43.042 -37.765  10.776  0.00  0.00    +0.066 C 
ATOM     22  C   UNL     1      42.143 -38.966  10.336  0.00  0.00    -0.064 C 
ATOM     23  N   UNL     1      42.907 -40.275  10.545  0.00  0.00    +0.379 N 
ATOM     24  C   UNL     1      42.043 -41.410  10.186  0.00  0.00    -0.096 C 
ATOM     25  H   UNL     1      43.143 -40.359  11.631  0.00  0.00    -0.082 HD
ATOM     26  C   UNL     1      44.226 -40.266   9.786  0.00  0.00    -0.064 C 
ATOM     27  C   UNL     1      45.099 -39.052  10.209  0.00  0.00    +0.066 C 
ENDBRANCH  19  20
ENDBRANCH  18  19
ENDBRANCH  14  15
ENDBRANCH  12  13
TORSDOF 6
ENDMDL
MODEL 2
REMARK VINA RESULT:     -10.4      2.875      7.036
REMARK  Name = C:\Users\Docking\Desktop\test protocol\1iep_ligandH.pdb
REMARK  8 active torsions:
REMARK  status: ('A' for Active; 'I' for Inactive)
REMARK    1  A    between atoms: _5  and  _11
REMARK    2  A    between atoms: _19  and  _21
REMARK    3  A    between atoms: _22  and  _66
REMARK    4  A    between atoms: _27  and  _30
REMARK    5  A    between atoms: _32  and  _33
REMARK    6  A    between atoms: _38  and  _43
REMARK    7  A    between atoms: _43  and  _46
REMARK    8  A    between atoms: _53  and  _55
REMARK                            x       y       z     vdW  Elec       q    Type
REMARK                         _______ _______ _______ _____ _____    ______ ____
ROOT
ATOM     10  C   UNL     1      47.451 -35.106   8.294  0.00  0.00    +0.038 A 
ATOM     11  C   UNL     1      46.756 -36.341   8.238  0.00  0.00    +0.047 A 
ATOM     12  C   UNL     1      45.780 -36.702   9.254  0.00  0.00    +0.035 A 
ATOM     32  C   UNL     1      45.534 -35.780  10.313  0.00  0.00    +0.024 A 
ATOM     33  C   UNL     1      46.232 -34.520  10.386  0.00  0.00    +0.007 A 
ATOM     34  C   UNL     1      47.198 -34.160   9.387  0.00  0.00    -0.029 A 
ATOM     35  C   UNL     1      47.921 -32.799   9.519  0.00  0.00    +0.045 C 
ENDROOT
BRANCH  10   9
ATOM      4  C   UNL     1      48.630 -33.208   4.046  0.00  0.00    +0.077 A 
ATOM      5  C   UNL     1      47.280 -32.793   3.790  0.00  0.00    +0.048 A 
ATOM      6  C   UNL     1      46.311 -33.094   4.774  0.00  0.00    +0.116 A 
ATOM      7  N   UNL     1      46.676 -33.760   5.924  0.00  0.00    -0.223 NA
ATOM      8  C   UNL     1      47.986 -34.147   6.139  0.00  0.00    +0.220 A 
ATOM      9  N   UNL     1      48.377 -34.810   7.291  0.00  0.00    -0.283 N 
ATOM     36  H   UNL     1      49.352 -35.085   7.409  0.00  0.00    +0.155 HD
ATOM     37  N   UNL     1      48.930 -33.873   5.214  0.00  0.00    -0.214 NA
BRANCH   4   3
ATOM      1  C   UNL     1      52.089 -32.132   2.572  0.00  0.00    +0.020 A 
ATOM      2  C   UNL     1      51.023 -32.350   3.521  0.00  0.00    +0.013 A 
ATOM      3  C   UNL     1      49.766 -32.959   3.104  0.00  0.00    +0.019 A 
ATOM     38  C   UNL     1      49.621 -33.342   1.707  0.00  0.00    +0.120 A 
ATOM     39  N   UNL     1      50.665 -33.119   0.815  0.00  0.00    -0.263 NA
ATOM     40  C   UNL     1      51.878 -32.531   1.205  0.00  0.00    +0.111 A 
ENDBRANCH   4   3
ENDBRANCH  10   9
BRANCH  12  13
ATOM     13  N   UNL     1      45.050 -37.946   9.254  0.00  0.00    -0.281 N 
ATOM     14  C   UNL     1      45.383 -39.129   9.894  0.00  0.00    +0.248 C 
ATOM     30  O   UNL     1      46.475 -39.362  10.391  0.00  0.00    -0.270 OA
ATOM     31  H   UNL     1      44.183 -37.955   8.718  0.00  0.00    +0.155 HD
BRANCH  14  15
ATOM     15  C   UNL     1      44.360 -40.215   9.981  0.00  0.00    +0.037 A 
ATOM     16  C   UNL     1      42.931 -39.907  10.080  0.00  0.00    +0.013 A 
ATOM     17  C   UNL     1      41.967 -40.974  10.179  0.00  0.00    +0.005 A 
ATOM     18  C   UNL     1      42.429 -42.360  10.179  0.00  0.00    -0.033 A 
ATOM     28  C   UNL     1      43.852 -42.637  10.074  0.00  0.00    +0.005 A 
ATOM     29  C   UNL     1      44.800 -41.594   9.977  0.00  0.00    +0.013 A 
BRANCH  18  19
ATOM     19  C   UNL     1      41.473 -43.560  10.303  0.00  0.00    +0.119 C 
BRANCH  19  20
ATOM     20  N   UNL     1      40.082 -43.282  10.772  0.00  0.00    -0.302 NA
ATOM     21  C   UNL     1      39.575 -44.358  11.736  0.00  0.00    +0.066 C 
ATOM     22  C   UNL     1      38.128 -44.039  12.234  0.00  0.00    -0.064 C 
ATOM     23  N   UNL     1      37.194 -43.907  11.030  0.00  0.00    +0.379 N 
ATOM     24  C   UNL     1      35.822 -43.664  11.498  0.00  0.00    -0.096 C 
ATOM     25  H   UNL     1      37.200 -44.882  10.489  0.00  0.00    -0.082 HD
ATOM     26  C   UNL     1      37.693 -42.841  10.065  0.00  0.00    -0.064 C 
ATOM     27  C   UNL     1      39.143 -43.152   9.599  0.00  0.00    +0.066 C 
ENDBRANCH  19  20
ENDBRANCH  18  19
ENDBRANCH  14  15
ENDBRANCH  12  13
TORSDOF 6
ENDMDL
MODEL 3
REMARK VINA RESULT:      -9.6      2.840      6.904
REMARK  Name = C:\Users\Docking\Desktop\test protocol\1iep_ligandH.pdb
REMARK  8 active torsions:
REMARK  status: ('A' for Active; 'I' for Inactive)
REMARK    1  A    between atoms: _5  and  _11
REMARK    2  A    between atoms: _19  and  _21
REMARK    3  A    between atoms: _22  and  _66
REMARK    4  A    between atoms: _27  and  _30
REMARK    5  A    between atoms: _32  and  _33
REMARK    6  A    between atoms: _38  and  _43
REMARK    7  A    between atoms: _43  and  _46
REMARK    8  A    between atoms: _53  and  _55
REMARK                            x       y       z     vdW  Elec       q    Type
REMARK                         _______ _______ _______ _____ _____    ______ ____
ROOT
ATOM     10  C   UNL     1      47.612 -35.069   8.141  0.00  0.00    +0.038 A 
ATOM     11  C   UNL     1      47.081 -36.380   8.244  0.00  0.00    +0.047 A 
ATOM     12  C   UNL     1      46.153 -36.734   9.306  0.00  0.00    +0.035 A 
ATOM     32  C   UNL     1      45.785 -35.727  10.246  0.00  0.00    +0.024 A 
ATOM     33  C   UNL     1      46.317 -34.390  10.157  0.00  0.00    +0.007 A 
ATOM     34  C   UNL     1      47.235 -34.035   9.113  0.00  0.00    -0.029 A 
ATOM     35  C   UNL     1      47.778 -32.588   9.069  0.00  0.00    +0.045 C 
ENDROOT
BRANCH  10   9
ATOM      4  C   UNL     1      48.634 -33.184   3.846  0.00  0.00    +0.077 A 
ATOM      5  C   UNL     1      47.280 -32.755   3.647  0.00  0.00    +0.048 A 
ATOM      6  C   UNL     1      46.350 -33.045   4.670  0.00  0.00    +0.116 A 
ATOM      7  N   UNL     1      46.755 -33.715   5.804  0.00  0.00    -0.223 NA
ATOM      8  C   UNL     1      48.068 -34.116   5.965  0.00  0.00    +0.220 A 
ATOM      9  N   UNL     1      48.500 -34.784   7.101  0.00  0.00    -0.283 N 
ATOM     36  H   UNL     1      49.475 -35.069   7.178  0.00  0.00    +0.155 HD
ATOM     37  N   UNL     1      48.976 -33.852   5.001  0.00  0.00    -0.214 NA
BRANCH   4   3
ATOM      1  C   UNL     1      52.168 -32.812   2.212  0.00  0.00    +0.020 A 
ATOM      2  C   UNL     1      51.146 -33.049   3.204  0.00  0.00    +0.013 A 
ATOM      3  C   UNL     1      49.733 -32.949   2.858  0.00  0.00    +0.019 A 
ATOM     38  C   UNL     1      49.387 -32.606   1.487  0.00  0.00    +0.120 A 
ATOM     39  N   UNL     1      50.393 -32.382   0.552  0.00  0.00    -0.263 NA
ATOM     40  C   UNL     1      51.756 -32.473   0.875  0.00  0.00    +0.111 A 
ENDBRANCH   4   3
ENDBRANCH  10   9
BRANCH  12  13
ATOM     13  N   UNL     1      45.586 -38.050   9.466  0.00  0.00    -0.281 N 
ATOM     14  C   UNL     1      46.217 -39.200   9.911  0.00  0.00    +0.248 C 
ATOM     30  O   UNL     1      47.427 -39.320  10.037  0.00  0.00    -0.270 OA
ATOM     31  H   UNL     1      44.601 -38.146   9.221  0.00  0.00    +0.155 HD
BRANCH  14  15
ATOM     15  C   UNL     1      45.386 -40.395  10.251  0.00  0.00    +0.037 A 
ATOM     16  C   UNL     1      45.985 -41.725  10.386  0.00  0.00    +0.013 A 
ATOM     17  C   UNL     1      45.157 -42.863  10.698  0.00  0.00    +0.005 A 
ATOM     18  C   UNL     1      43.720 -42.675  10.879  0.00  0.00    -0.033 A 
ATOM     28  C   UNL     1      43.152 -41.344  10.744  0.00  0.00    +0.005 A 
ATOM     29  C   UNL     1      43.960 -40.226  10.437  0.00  0.00    +0.013 A 
BRANCH  18  19
ATOM     19  C   UNL     1      42.758 -43.836  11.192  0.00  0.00    +0.119 C 
BRANCH  19  20
ATOM     20  N   UNL     1      42.315 -44.686  10.047  0.00  0.00    -0.302 NA
ATOM     21  C   UNL     1      42.268 -43.900   8.733  0.00  0.00    +0.066 C 
ATOM     22  C   UNL     1      41.825 -44.810   7.541  0.00  0.00    -0.064 C 
ATOM     23  N   UNL     1      40.460 -45.425   7.853  0.00  0.00    +0.379 N 
ATOM     24  C   UNL     1      40.014 -46.235   6.710  0.00  0.00    -0.096 C 
ATOM     25  H   UNL     1      39.733 -44.589   7.980  0.00  0.00    -0.082 HD
ATOM     26  C   UNL     1      40.497 -46.206   9.160  0.00  0.00    -0.064 C 
ATOM     27  C   UNL     1      40.966 -45.300  10.332  0.00  0.00    +0.066 C 
ENDBRANCH  19  20
ENDBRANCH  18  19
ENDBRANCH  14  15
ENDBRANCH  12  13
TORSDOF 6
ENDMDL
MODEL 4
REMARK VINA RESULT:      -9.4      3.786     12.291
REMARK  Name = C:\Users\Docking\Desktop\test protocol\1iep_ligandH.pdb
REMARK  8 active torsions:
REMARK  status: ('A' for Active; 'I' for Inactive)
REMARK    1  A    between atoms: _5  and  _11
REMARK    2  A    between atoms: _19  and  _21
REMARK    3  A    between atoms: _22  and  _66
REMARK    4  A    between atoms: _27  and  _30
REMARK    5  A    between atoms: _32  and  _33
REMARK    6  A    between atoms: _38  and  _43
REMARK    7  A    between atoms: _43  and  _46
REMARK    8  A    between atoms: _53  and  _55
REMARK                            x       y       z     vdW  Elec       q    Type
REMARK                         _______ _______ _______ _____ _____    ______ ____
ROOT
ATOM     10  C   UNL     1      48.163 -33.775   4.723  0.00  0.00    +0.038 A 
ATOM     11  C   UNL     1      49.569 -33.943   4.795  0.00  0.00    +0.047 A 
ATOM     12  C   UNL     1      50.471 -33.059   4.073  0.00  0.00    +0.035 A 
ATOM     32  C   UNL     1      49.905 -32.012   3.288  0.00  0.00    +0.024 A 
ATOM     33  C   UNL     1      48.478 -31.827   3.203  0.00  0.00    +0.007 A 
ATOM     34  C   UNL     1      47.584 -32.698   3.911  0.00  0.00    -0.029 A 
ATOM     35  C   UNL     1      46.062 -32.457   3.778  0.00  0.00    +0.045 C 
ENDROOT
BRANCH  10   9
ATOM      4  C   UNL     1      46.098 -35.277   8.787  0.00  0.00    +0.077 A 
ATOM      5  C   UNL     1      46.724 -34.242   9.557  0.00  0.00    +0.048 A 
ATOM      6  C   UNL     1      47.576 -33.348   8.871  0.00  0.00    +0.116 A 
ATOM      7  N   UNL     1      47.779 -33.488   7.516  0.00  0.00    -0.223 NA
ATOM      8  C   UNL     1      47.161 -34.498   6.802  0.00  0.00    +0.220 A 
ATOM      9  N   UNL     1      47.344 -34.653   5.437  0.00  0.00    -0.283 N 
ATOM     36  H   UNL     1      46.876 -35.416   4.949  0.00  0.00    +0.155 HD
ATOM     37  N   UNL     1      46.344 -35.366   7.435  0.00  0.00    -0.214 NA
BRANCH   4   3
ATOM      1  C   UNL     1      44.623 -38.626  10.171  0.00  0.00    +0.020 A 
ATOM      2  C   UNL     1      45.560 -37.681   9.608  0.00  0.00    +0.013 A 
ATOM      3  C   UNL     1      45.168 -36.297   9.368  0.00  0.00    +0.019 A 
ATOM     38  C   UNL     1      43.812 -35.899   9.713  0.00  0.00    +0.120 A 
ATOM     39  N   UNL     1      42.932 -36.832  10.253  0.00  0.00    -0.263 NA
ATOM     40  C   UNL     1      43.297 -38.166  10.487  0.00  0.00    +0.111 A 
ENDBRANCH   4   3
ENDBRANCH  10   9
BRANCH  12  13
ATOM     13  N   UNL     1      51.907 -33.186   4.101  0.00  0.00    -0.281 N 
ATOM     14  C   UNL     1      52.706 -33.994   3.309  0.00  0.00    +0.248 C 
ATOM     30  O   UNL     1      52.288 -34.895   2.597  0.00  0.00    -0.270 OA
ATOM     31  H   UNL     1      52.393 -32.610   4.789  0.00  0.00    +0.155 HD
BRANCH  14  15
ATOM     15  C   UNL     1      54.185 -33.781   3.322  0.00  0.00    +0.037 A 
ATOM     16  C   UNL     1      55.039 -34.314   2.257  0.00  0.00    +0.013 A 
ATOM     17  C   UNL     1      56.465 -34.108   2.302  0.00  0.00    +0.005 A 
ATOM     18  C   UNL     1      57.046 -33.364   3.417  0.00  0.00    -0.033 A 
ATOM     28  C   UNL     1      56.176 -32.842   4.457  0.00  0.00    +0.005 A 
ATOM     29  C   UNL     1      54.778 -33.043   4.417  0.00  0.00    +0.013 A 
BRANCH  18  19
ATOM     19  C   UNL     1      58.560 -33.115   3.558  0.00  0.00    +0.119 C 
BRANCH  19  20
ATOM     20  N   UNL     1      59.420 -34.294   3.878  0.00  0.00    -0.302 NA
ATOM     21  C   UNL     1      58.853 -35.121   5.035  0.00  0.00    +0.066 C 
ATOM     22  C   UNL     1      59.753 -36.362   5.342  0.00  0.00    -0.064 C 
ATOM     23  N   UNL     1      61.175 -35.892   5.656  0.00  0.00    +0.379 N 
ATOM     24  C   UNL     1      62.009 -37.052   6.002  0.00  0.00    -0.096 C 
ATOM     25  H   UNL     1      61.122 -35.234   6.554  0.00  0.00    -0.082 HD
ATOM     26  C   UNL     1      61.745 -35.067   4.512  0.00  0.00    -0.064 C 
ATOM     27  C   UNL     1      60.827 -33.853   4.196  0.00  0.00    +0.066 C 
ENDBRANCH  19  20
ENDBRANCH  18  19
ENDBRANCH  14  15
ENDBRANCH  12  13
TORSDOF 6
ENDMDL
MODEL 5
REMARK VINA RESULT:      -9.3      2.967      4.014
REMARK  Name = C:\Users\Docking\Desktop\test protocol\1iep_ligandH.pdb
REMARK  8 active torsions:
REMARK  status: ('A' for Active; 'I' for Inactive)
REMARK    1  A    between atoms: _5  and  _11
REMARK    2  A    between atoms: _19  and  _21
REMARK    3  A    between atoms: _22  and  _66
REMARK    4  A    between atoms: _27  and  _30
REMARK    5  A    between atoms: _32  and  _33
REMARK    6  A    between atoms: _38  and  _43
REMARK    7  A    between atoms: _43  and  _46
REMARK    8  A    between atoms: _53  and  _55
REMARK                            x       y       z     vdW  Elec       q    Type
REMARK                         _______ _______ _______ _____ _____    ______ ____
ROOT
ATOM     10  C   UNL     1      51.559 -33.937   2.408  0.00  0.00    +0.038 A 
ATOM     11  C   UNL     1      50.727 -34.377   3.469  0.00  0.00    +0.047 A 
ATOM     12  C   UNL     1      50.139 -33.433   4.405  0.00  0.00    +0.035 A 
ATOM     32  C   UNL     1      50.417 -32.046   4.230  0.00  0.00    +0.024 A 
ATOM     33  C   UNL     1      51.261 -31.581   3.158  0.00  0.00    +0.007 A 
ATOM     34  C   UNL     1      51.846 -32.508   2.232  0.00  0.00    -0.029 A 
ATOM     35  C   UNL     1      52.749 -31.954   1.105  0.00  0.00    +0.045 C 
ENDROOT
BRANCH  10   9
ATOM      4  C   UNL     1      54.916 -37.147   1.197  0.00  0.00    +0.077 A 
ATOM      5  C   UNL     1      55.676 -36.888   2.387  0.00  0.00    +0.048 A 
ATOM      6  C   UNL     1      55.172 -35.917   3.280  0.00  0.00    +0.116 A 
ATOM      7  N   UNL     1      53.995 -35.260   2.996  0.00  0.00    -0.223 NA
ATOM      8  C   UNL     1      53.287 -35.531   1.840  0.00  0.00    +0.220 A 
ATOM      9  N   UNL     1      52.097 -34.888   1.537  0.00  0.00    -0.283 N 
ATOM     36  H   UNL     1      51.609 -35.111   0.670  0.00  0.00    +0.155 HD
ATOM     37  N   UNL     1      53.749 -36.454   0.969  0.00  0.00    -0.214 NA
BRANCH   4   3
ATOM      1  C   UNL     1      55.053 -40.348  -1.047  0.00  0.00    +0.020 A 
ATOM      2  C   UNL     1      54.626 -39.417  -0.027  0.00  0.00    +0.013 A 
ATOM      3  C   UNL     1      55.317 -38.147   0.158  0.00  0.00    +0.019 A 
ATOM     38  C   UNL     1      56.444 -37.846  -0.712  0.00  0.00    +0.120 A 
ATOM     39  N   UNL     1      56.833 -38.763  -1.684  0.00  0.00    -0.263 NA
ATOM     40  C   UNL     1      56.177 -39.989  -1.871  0.00  0.00    +0.111 A 
ENDBRANCH   4   3
ENDBRANCH  10   9
BRANCH  12  13
ATOM     13  N   UNL     1      49.293 -33.821   5.506  0.00  0.00    -0.281 N 
ATOM     14  C   UNL     1      47.919 -33.679   5.617  0.00  0.00    +0.248 C 
ATOM     30  O   UNL     1      47.233 -32.997   4.870  0.00  0.00    -0.270 OA
ATOM     31  H   UNL     1      49.764 -34.255   6.301  0.00  0.00    +0.155 HD
BRANCH  14  15
ATOM     15  C   UNL     1      47.207 -34.384   6.726  0.00  0.00    +0.037 A 
ATOM     16  C   UNL     1      46.199 -35.410   6.450  0.00  0.00    +0.013 A 
ATOM     17  C   UNL     1      45.514 -36.063   7.537  0.00  0.00    +0.005 A 
ATOM     18  C   UNL     1      45.838 -35.692   8.913  0.00  0.00    -0.033 A 
ATOM     28  C   UNL     1      46.846 -34.674   9.158  0.00  0.00    +0.005 A 
ATOM     29  C   UNL     1      47.519 -34.031   8.095  0.00  0.00    +0.013 A 
BRANCH  18  19
ATOM     19  C   UNL     1      45.143 -36.321  10.135  0.00  0.00    +0.119 C 
BRANCH  19  20
ATOM     20  N   UNL     1      44.314 -37.540   9.897  0.00  0.00    -0.302 NA
ATOM     21  C   UNL     1      43.064 -37.566  10.781  0.00  0.00    +0.066 C 
ATOM     22  C   UNL     1      42.197 -38.838  10.503  0.00  0.00    -0.064 C 
ATOM     23  N   UNL     1      43.046 -40.090  10.729  0.00  0.00    +0.379 N 
ATOM     24  C   UNL     1      42.218 -41.287  10.526  0.00  0.00    -0.096 C 
ATOM     25  H   UNL     1      43.378 -40.085  11.794  0.00  0.00    -0.082 HD
ATOM     26  C   UNL     1      44.293 -40.071   9.857  0.00  0.00    -0.064 C 
ATOM     27  C   UNL     1      45.132 -38.789  10.119  0.00  0.00    +0.066 C 
ENDBRANCH  19  20
ENDBRANCH  18  19
ENDBRANCH  14  15
ENDBRANCH  12  13
TORSDOF 6
ENDMDL
