MODEL 1
REMARK VINA RESULT:      -8.6      0.000      0.000
REMARK  Name = C:\Users\Docking\Desktop\test protocol\1iep_ligandH.pdb
REMARK  8 active torsions:
REMARK  status: ('A' for Active; 'I' for Inactive)
REMARK    1  A    between atoms: _5  and  _11
REMARK    2  A    between atoms: _19  and  _21
REMARK    3  A    between atoms: _22  and  _66
REMARK    4  A    between atoms: _27  and  _30
REMARK    5  A    between atoms: _32  and  _33
REMARK    6  A    between atoms: _38  and  _43
REMARK    7  A    between atoms: _43  and  _46
REMARK    8  A    between atoms: _53  and  _55
REMARK                            x       y       z     vdW  Elec       q    Type
REMARK                         _______ _______ _______ _____ _____    ______ ____
ROOT
ATOM     10  C   UNL     1      -7.677  14.229  32.110  0.00  0.00    +0.038 A 
ATOM     11  C   UNL     1      -6.936  13.095  31.693  0.00  0.00    +0.047 A 
ATOM     12  C   UNL     1      -5.491  13.155  31.539  0.00  0.00    +0.035 A 
ATOM     32  C   UNL     1      -4.832  14.387  31.821  0.00  0.00    +0.024 A 
ATOM     33  C   UNL     1      -5.570  15.551  32.245  0.00  0.00    +0.007 A 
ATOM     34  C   UNL     1      -6.996  15.498  32.396  0.00  0.00    -0.029 A 
ATOM     35  C   UNL     1      -7.737  16.778  32.847  0.00  0.00    +0.045 C 
ENDROOT
BRANCH  10   9
ATOM      4  C   UNL     1     -12.123  14.322  30.302  0.00  0.00    +0.077 A 
ATOM      5  C   UNL     1     -11.646  14.652  28.990  0.00  0.00    +0.048 A 
ATOM      6  C   UNL     1     -10.250  14.796  28.824  0.00  0.00    +0.116 A 
ATOM      7  N   UNL     1      -9.404  14.620  29.898  0.00  0.00    -0.223 NA
ATOM      8  C   UNL     1      -9.897  14.304  31.150  0.00  0.00    +0.220 A 
ATOM      9  N   UNL     1      -9.063  14.115  32.242  0.00  0.00    -0.283 N 
ATOM     36  H   UNL     1      -9.466  13.890  33.151  0.00  0.00    +0.155 HD
ATOM     37  N   UNL     1     -11.226  14.163  31.335  0.00  0.00    -0.214 NA
BRANCH   4   3
ATOM      1  C   UNL     1     -15.953  13.583  30.019  0.00  0.00    +0.020 A 
ATOM      2  C   UNL     1     -14.568  13.753  29.645  0.00  0.00    +0.013 A 
ATOM      3  C   UNL     1     -13.570  14.133  30.636  0.00  0.00    +0.019 A 
ATOM     38  C   UNL     1     -14.009  14.335  32.008  0.00  0.00    +0.120 A 
ATOM     39  N   UNL     1     -15.350  14.165  32.339  0.00  0.00    -0.263 NA
ATOM     40  C   UNL     1     -16.320  13.801  31.394  0.00  0.00    +0.111 A 
ENDBRANCH   4   3
ENDBRANCH  10   9
BRANCH  12  13
ATOM     13  N   UNL     1      -4.686  12.037  31.111  0.00  0.00    -0.281 N 
ATOM     14  C   UNL     1      -4.421  11.626  29.815  0.00  0.00    +0.248 C 
ATOM     30  O   UNL     1      -5.012  12.032  28.826  0.00  0.00    -0.270 OA
ATOM     31  H   UNL     1      -4.261  11.482  31.854  0.00  0.00    +0.155 HD
BRANCH  14  15
ATOM     15  C   UNL     1      -3.353  10.605  29.586  0.00  0.00    +0.037 A 
ATOM     16  C   UNL     1      -1.975  11.001  29.286  0.00  0.00    +0.013 A 
ATOM     17  C   UNL     1      -0.968   9.996  29.053  0.00  0.00    +0.005 A 
ATOM     18  C   UNL     1      -1.337   8.584  29.120  0.00  0.00    -0.033 A 
ATOM     28  C   UNL     1      -2.710   8.219  29.425  0.00  0.00    +0.005 A 
ATOM     29  C   UNL     1      -3.700   9.202  29.653  0.00  0.00    +0.013 A 
BRANCH  18  19
ATOM     19  C   UNL     1      -0.333   7.444  28.864  0.00  0.00    +0.119 C 
BRANCH  19  20
ATOM     20  N   UNL     1      -0.006   6.550  30.014  0.00  0.00    -0.302 NA
ATOM     21  C   UNL     1      -1.036   5.428  30.180  0.00  0.00    +0.066 C 
ATOM     22  C   UNL     1      -0.667   4.489  31.373  0.00  0.00    -0.064 C 
ATOM     23  N   UNL     1      -0.556   5.316  32.655  0.00  0.00    +0.379 N 
ATOM     24  C   UNL     1      -0.266   4.427  33.790  0.00  0.00    -0.096 C 
ATOM     25  H   UNL     1      -1.549   5.788  32.840  0.00  0.00    -0.082 HD
ATOM     26  C   UNL     1       0.464   6.435  32.498  0.00  0.00    -0.064 C 
ATOM     27  C   UNL     1       0.104   7.346  31.291  0.00  0.00    +0.066 C 
ENDBRANCH  19  20
ENDBRANCH  18  19
ENDBRANCH  14  15
ENDBRANCH  12  13
TORSDOF 6
ENDMDL
MODEL 2
REMARK VINA RESULT:      -8.2      8.948     11.204
REMARK  Name = C:\Users\Docking\Desktop\test protocol\1iep_ligandH.pdb
REMARK  8 active torsions:
REMARK  status: ('A' for Active; 'I' for Inactive)
REMARK    1  A    between atoms: _5  and  _11
REMARK    2  A    between atoms: _19  and  _21
REMARK    3  A    between atoms: _22  and  _66
REMARK    4  A    between atoms: _27  and  _30
REMARK    5  A    between atoms: _32  and  _33
REMARK    6  A    between atoms: _38  and  _43
REMARK    7  A    between atoms: _43  and  _46
REMARK    8  A    between atoms: _53  and  _55
REMARK                            x       y       z     vdW  Elec       q    Type
REMARK                         _______ _______ _______ _____ _____    ______ ____
ROOT
ATOM     10  C   UNL     1      -9.563  23.169  24.889  0.00  0.00    +0.038 A 
ATOM     11  C   UNL     1      -9.326  22.014  25.677  0.00  0.00    +0.047 A 
ATOM     12  C   UNL     1      -8.780  20.801  25.088  0.00  0.00    +0.035 A 
ATOM     32  C   UNL     1      -8.485  20.801  23.693  0.00  0.00    +0.024 A 
ATOM     33  C   UNL     1      -8.721  21.966  22.878  0.00  0.00    +0.007 A 
ATOM     34  C   UNL     1      -9.262  23.164  23.453  0.00  0.00    -0.029 A 
ATOM     35  C   UNL     1      -9.500  24.382  22.529  0.00  0.00    +0.045 C 
ENDROOT
BRANCH  10   9
ATOM      4  C   UNL     1     -13.201  26.123  25.928  0.00  0.00    +0.077 A 
ATOM      5  C   UNL     1     -14.128  25.349  25.153  0.00  0.00    +0.048 A 
ATOM      6  C   UNL     1     -13.627  24.203  24.497  0.00  0.00    +0.116 A 
ATOM      7  N   UNL     1     -12.297  23.864  24.615  0.00  0.00    -0.223 NA
ATOM      8  C   UNL     1     -11.429  24.633  25.368  0.00  0.00    +0.220 A 
ATOM      9  N   UNL     1     -10.089  24.307  25.507  0.00  0.00    -0.283 N 
ATOM     36  H   UNL     1      -9.479  24.904  26.065  0.00  0.00    +0.155 HD
ATOM     37  N   UNL     1     -11.883  25.734  26.003  0.00  0.00    -0.214 NA
BRANCH   4   3
ATOM      1  C   UNL     1     -13.547  28.824  28.737  0.00  0.00    +0.020 A 
ATOM      2  C   UNL     1     -13.155  27.613  28.053  0.00  0.00    +0.013 A 
ATOM      3  C   UNL     1     -13.580  27.360  26.682  0.00  0.00    +0.019 A 
ATOM     38  C   UNL     1     -14.407  28.360  26.026  0.00  0.00    +0.120 A 
ATOM     39  N   UNL     1     -14.771  29.516  26.709  0.00  0.00    -0.263 NA
ATOM     40  C   UNL     1     -14.370  29.770  28.029  0.00  0.00    +0.111 A 
ENDBRANCH   4   3
ENDBRANCH  10   9
BRANCH  12  13
ATOM     13  N   UNL     1      -8.526  19.595  25.836  0.00  0.00    -0.281 N 
ATOM     14  C   UNL     1      -7.300  19.034  26.157  0.00  0.00    +0.248 C 
ATOM     30  O   UNL     1      -6.235  19.374  25.664  0.00  0.00    -0.270 OA
ATOM     31  H   UNL     1      -9.349  19.093  26.169  0.00  0.00    +0.155 HD
BRANCH  14  15
ATOM     15  C   UNL     1      -7.253  17.927  27.160  0.00  0.00    +0.037 A 
ATOM     16  C   UNL     1      -5.981  17.331  27.575  0.00  0.00    +0.013 A 
ATOM     17  C   UNL     1      -5.965  16.253  28.531  0.00  0.00    +0.005 A 
ATOM     18  C   UNL     1      -7.227  15.765  29.081  0.00  0.00    -0.033 A 
ATOM     28  C   UNL     1      -8.475  16.378  28.656  0.00  0.00    +0.005 A 
ATOM     29  C   UNL     1      -8.494  17.434  27.718  0.00  0.00    +0.013 A 
BRANCH  18  19
ATOM     19  C   UNL     1      -7.307  14.604  30.091  0.00  0.00    +0.119 C 
BRANCH  19  20
ATOM     20  N   UNL     1      -6.202  13.600  30.067  0.00  0.00    -0.302 NA
ATOM     21  C   UNL     1      -6.214  12.764  28.784  0.00  0.00    +0.066 C 
ATOM     22  C   UNL     1      -5.038  11.733  28.765  0.00  0.00    -0.064 C 
ATOM     23  N   UNL     1      -5.131  10.834  29.999  0.00  0.00    +0.379 N 
ATOM     24  C   UNL     1      -4.061   9.828  29.955  0.00  0.00    -0.096 C 
ATOM     25  H   UNL     1      -6.106  10.295  29.951  0.00  0.00    -0.082 HD
ATOM     26  C   UNL     1      -5.123  11.658  31.279  0.00  0.00    -0.064 C 
ATOM     27  C   UNL     1      -6.277  12.699  31.274  0.00  0.00    +0.066 C 
ENDBRANCH  19  20
ENDBRANCH  18  19
ENDBRANCH  14  15
ENDBRANCH  12  13
TORSDOF 6
ENDMDL
MODEL 3
REMARK VINA RESULT:      -8.1      9.297     12.799
REMARK  Name = C:\Users\Docking\Desktop\test protocol\1iep_ligandH.pdb
REMARK  8 active torsions:
REMARK  status: ('A' for Active; 'I' for Inactive)
REMARK    1  A    between atoms: _5  and  _11
REMARK    2  A    between atoms: _19  and  _21
REMARK    3  A    between atoms: _22  and  _66
REMARK    4  A    between atoms: _27  and  _30
REMARK    5  A    between atoms: _32  and  _33
REMARK    6  A    between atoms: _38  and  _43
REMARK    7  A    between atoms: _43  and  _46
REMARK    8  A    between atoms: _53  and  _55
REMARK                            x       y       z     vdW  Elec       q    Type
REMARK                         _______ _______ _______ _____ _____    ______ ____
ROOT
ATOM     10  C   UNL     1     -10.474  23.444  24.862  0.00  0.00    +0.038 A 
ATOM     11  C   UNL     1     -10.447  22.302  25.703  0.00  0.00    +0.047 A 
ATOM     12  C   UNL     1     -10.109  20.988  25.178  0.00  0.00    +0.035 A 
ATOM     32  C   UNL     1      -9.800  20.874  23.791  0.00  0.00    +0.024 A 
ATOM     33  C   UNL     1      -9.824  22.024  22.922  0.00  0.00    +0.007 A 
ATOM     34  C   UNL     1     -10.160  23.322  23.433  0.00  0.00    -0.029 A 
ATOM     35  C   UNL     1     -10.175  24.519  22.454  0.00  0.00    +0.045 C 
ENDROOT
BRANCH  10   9
ATOM      4  C   UNL     1     -13.651  26.853  26.013  0.00  0.00    +0.077 A 
ATOM      5  C   UNL     1     -14.738  26.119  25.431  0.00  0.00    +0.048 A 
ATOM      6  C   UNL     1     -14.436  24.872  24.840  0.00  0.00    +0.116 A 
ATOM      7  N   UNL     1     -13.140  24.403  24.836  0.00  0.00    -0.223 NA
ATOM      8  C   UNL     1     -12.115  25.137  25.404  0.00  0.00    +0.220 A 
ATOM      9  N   UNL     1     -10.806  24.681  25.419  0.00  0.00    -0.283 N 
ATOM     36  H   UNL     1     -10.077  25.255  25.842  0.00  0.00    +0.155 HD
ATOM     37  N   UNL     1     -12.377  26.331  25.975  0.00  0.00    -0.214 NA
BRANCH   4   3
ATOM      1  C   UNL     1     -14.751  30.522  26.807  0.00  0.00    +0.020 A 
ATOM      2  C   UNL     1     -14.630  29.254  26.124  0.00  0.00    +0.013 A 
ATOM      3  C   UNL     1     -13.811  28.184  26.679  0.00  0.00    +0.019 A 
ATOM     38  C   UNL     1     -13.123  28.430  27.937  0.00  0.00    +0.120 A 
ATOM     39  N   UNL     1     -13.257  29.661  28.572  0.00  0.00    -0.263 NA
ATOM     40  C   UNL     1     -14.041  30.699  28.046  0.00  0.00    +0.111 A 
ENDBRANCH   4   3
ENDBRANCH  10   9
BRANCH  12  13
ATOM     13  N   UNL     1     -10.073  19.792  25.982  0.00  0.00    -0.281 N 
ATOM     14  C   UNL     1      -9.021  18.906  26.143  0.00  0.00    +0.248 C 
ATOM     30  O   UNL     1      -8.015  18.892  25.449  0.00  0.00    -0.270 OA
ATOM     31  H   UNL     1     -10.927  19.572  26.494  0.00  0.00    +0.155 HD
BRANCH  14  15
ATOM     15  C   UNL     1      -9.103  17.876  27.223  0.00  0.00    +0.037 A 
ATOM     16  C   UNL     1     -10.396  17.400  27.723  0.00  0.00    +0.013 A 
ATOM     17  C   UNL     1     -10.448  16.419  28.777  0.00  0.00    +0.005 A 
ATOM     18  C   UNL     1      -9.201  15.905  29.339  0.00  0.00    -0.033 A 
ATOM     28  C   UNL     1      -7.932  16.390  28.821  0.00  0.00    +0.005 A 
ATOM     29  C   UNL     1      -7.878  17.353  27.788  0.00  0.00    +0.013 A 
BRANCH  18  19
ATOM     19  C   UNL     1      -9.161  14.872  30.480  0.00  0.00    +0.119 C 
BRANCH  19  20
ATOM     20  N   UNL     1      -9.687  15.302  31.810  0.00  0.00    -0.302 NA
ATOM     21  C   UNL     1      -8.795  14.828  32.961  0.00  0.00    +0.066 C 
ATOM     22  C   UNL     1      -9.348  15.305  34.343  0.00  0.00    -0.064 C 
ATOM     23  N   UNL     1     -10.779  14.795  34.521  0.00  0.00    +0.379 N 
ATOM     24  C   UNL     1     -11.281  15.193  35.844  0.00  0.00    -0.096 C 
ATOM     25  H   UNL     1     -10.746  13.681  34.493  0.00  0.00    -0.082 HD
ATOM     26  C   UNL     1     -11.672  15.259  33.379  0.00  0.00    -0.064 C 
ATOM     27  C   UNL     1     -11.097  14.804  32.008  0.00  0.00    +0.066 C 
ENDBRANCH  19  20
ENDBRANCH  18  19
ENDBRANCH  14  15
ENDBRANCH  12  13
TORSDOF 6
ENDMDL
MODEL 4
REMARK VINA RESULT:      -8.0      3.018      4.284
REMARK  Name = C:\Users\Docking\Desktop\test protocol\1iep_ligandH.pdb
REMARK  8 active torsions:
REMARK  status: ('A' for Active; 'I' for Inactive)
REMARK    1  A    between atoms: _5  and  _11
REMARK    2  A    between atoms: _19  and  _21
REMARK    3  A    between atoms: _22  and  _66
REMARK    4  A    between atoms: _27  and  _30
REMARK    5  A    between atoms: _32  and  _33
REMARK    6  A    between atoms: _38  and  _43
REMARK    7  A    between atoms: _43  and  _46
REMARK    8  A    between atoms: _53  and  _55
REMARK                            x       y       z     vdW  Elec       q    Type
REMARK                         _______ _______ _______ _____ _____    ______ ____
ROOT
ATOM     10  C   UNL     1      -7.611  15.426  30.204  0.00  0.00    +0.038 A 
ATOM     11  C   UNL     1      -6.700  14.491  29.648  0.00  0.00    +0.047 A 
ATOM     12  C   UNL     1      -6.255  13.332  30.406  0.00  0.00    +0.035 A 
ATOM     32  C   UNL     1      -6.761  13.154  31.727  0.00  0.00    +0.024 A 
ATOM     33  C   UNL     1      -7.686  14.094  32.307  0.00  0.00    +0.007 A 
ATOM     34  C   UNL     1      -8.127  15.241  31.565  0.00  0.00    -0.029 A 
ATOM     35  C   UNL     1      -9.116  16.220  32.241  0.00  0.00    +0.045 C 
ENDROOT
BRANCH  10   9
ATOM      4  C   UNL     1     -10.443  17.494  26.926  0.00  0.00    +0.077 A 
ATOM      5  C   UNL     1     -11.183  16.283  26.715  0.00  0.00    +0.048 A 
ATOM      6  C   UNL     1     -10.798  15.149  27.464  0.00  0.00    +0.116 A 
ATOM      7  N   UNL     1      -9.751  15.231  28.356  0.00  0.00    -0.223 NA
ATOM      8  C   UNL     1      -9.057  16.413  28.534  0.00  0.00    +0.220 A 
ATOM      9  N   UNL     1      -8.005  16.521  29.431  0.00  0.00    -0.283 N 
ATOM     36  H   UNL     1      -7.514  17.409  29.528  0.00  0.00    +0.155 HD
ATOM     37  N   UNL     1      -9.403  17.510  27.829  0.00  0.00    -0.214 NA
BRANCH   4   3
ATOM      1  C   UNL     1     -10.017  20.929  25.104  0.00  0.00    +0.020 A 
ATOM      2  C   UNL     1      -9.685  19.703  25.792  0.00  0.00    +0.013 A 
ATOM      3  C   UNL     1     -10.731  18.778  26.211  0.00  0.00    +0.019 A 
ATOM     38  C   UNL     1     -12.112  19.125  25.916  0.00  0.00    +0.120 A 
ATOM     39  N   UNL     1     -12.402  20.314  25.254  0.00  0.00    -0.263 NA
ATOM     40  C   UNL     1     -11.405  21.213  24.847  0.00  0.00    +0.111 A 
ENDBRANCH   4   3
ENDBRANCH  10   9
BRANCH  12  13
ATOM     13  N   UNL     1      -5.325  12.355  29.897  0.00  0.00    -0.281 N 
ATOM     14  C   UNL     1      -3.980  12.220  30.200  0.00  0.00    +0.248 C 
ATOM     30  O   UNL     1      -3.319  13.057  30.796  0.00  0.00    -0.270 OA
ATOM     31  H   UNL     1      -5.705  11.680  29.233  0.00  0.00    +0.155 HD
BRANCH  14  15
ATOM     15  C   UNL     1      -3.263  10.983  29.766  0.00  0.00    +0.037 A 
ATOM     16  C   UNL     1      -3.888   9.663  29.879  0.00  0.00    +0.013 A 
ATOM     17  C   UNL     1      -3.167   8.483  29.469  0.00  0.00    +0.005 A 
ATOM     18  C   UNL     1      -1.812   8.620  28.941  0.00  0.00    -0.033 A 
ATOM     28  C   UNL     1      -1.218   9.942  28.836  0.00  0.00    +0.005 A 
ATOM     29  C   UNL     1      -1.921  11.100  29.237  0.00  0.00    +0.013 A 
BRANCH  18  19
ATOM     19  C   UNL     1      -0.961   7.415  28.499  0.00  0.00    +0.119 C 
BRANCH  19  20
ATOM     20  N   UNL     1      -0.507   6.471  29.564  0.00  0.00    -0.302 NA
ATOM     21  C   UNL     1      -1.554   5.395  29.863  0.00  0.00    +0.066 C 
ATOM     22  C   UNL     1      -1.054   4.403  30.963  0.00  0.00    -0.064 C 
ATOM     23  N   UNL     1      -0.705   5.186  32.230  0.00  0.00    +0.379 N 
ATOM     24  C   UNL     1      -0.289   4.250  33.285  0.00  0.00    -0.096 C 
ATOM     25  H   UNL     1      -1.633   5.697  32.577  0.00  0.00    -0.082 HD
ATOM     26  C   UNL     1       0.334   6.260  31.942  0.00  0.00    -0.064 C 
ATOM     27  C   UNL     1      -0.161   7.223  30.826  0.00  0.00    +0.066 C 
ENDBRANCH  19  20
ENDBRANCH  18  19
ENDBRANCH  14  15
ENDBRANCH  12  13
TORSDOF 6
ENDMDL
MODEL 5
REMARK VINA RESULT:      -8.0      2.193     12.654
REMARK  Name = C:\Users\Docking\Desktop\test protocol\1iep_ligandH.pdb
REMARK  8 active torsions:
REMARK  status: ('A' for Active; 'I' for Inactive)
REMARK    1  A    between atoms: _5  and  _11
REMARK    2  A    between atoms: _19  and  _21
REMARK    3  A    between atoms: _22  and  _66
REMARK    4  A    between atoms: _27  and  _30
REMARK    5  A    between atoms: _32  and  _33
REMARK    6  A    between atoms: _38  and  _43
REMARK    7  A    between atoms: _43  and  _46
REMARK    8  A    between atoms: _53  and  _55
REMARK                            x       y       z     vdW  Elec       q    Type
REMARK                         _______ _______ _______ _____ _____    ______ ____
ROOT
ATOM     10  C   UNL     1      -2.445   8.148  29.127  0.00  0.00    +0.038 A 
ATOM     11  C   UNL     1      -3.211   9.113  29.829  0.00  0.00    +0.047 A 
ATOM     12  C   UNL     1      -3.833  10.230  29.135  0.00  0.00    +0.035 A 
ATOM     32  C   UNL     1      -3.656  10.331  27.724  0.00  0.00    +0.024 A 
ATOM     33  C   UNL     1      -2.880   9.360  26.995  0.00  0.00    +0.007 A 
ATOM     34  C   UNL     1      -2.262   8.257  27.674  0.00  0.00    -0.029 A 
ATOM     35  C   UNL     1      -1.435   7.249  26.843  0.00  0.00    +0.045 C 
ENDROOT
BRANCH  10   9
ATOM      4  C   UNL     1       1.158   6.203  31.631  0.00  0.00    +0.077 A 
ATOM      5  C   UNL     1       1.975   7.372  31.476  0.00  0.00    +0.048 A 
ATOM      6  C   UNL     1       1.434   8.449  30.739  0.00  0.00    +0.116 A 
ATOM      7  N   UNL     1       0.169   8.353  30.201  0.00  0.00    -0.223 NA
ATOM      8  C   UNL     1      -0.592   7.210  30.368  0.00  0.00    +0.220 A 
ATOM      9  N   UNL     1      -1.870   7.095  29.843  0.00  0.00    -0.283 N 
ATOM     36  H   UNL     1      -2.397   6.233  29.982  0.00  0.00    +0.155 HD
ATOM     37  N   UNL     1      -0.097   6.168  31.067  0.00  0.00    -0.214 NA
BRANCH   4   3
ATOM      1  C   UNL     1       1.899   2.491  32.619  0.00  0.00    +0.020 A 
ATOM      2  C   UNL     1       1.467   3.635  31.848  0.00  0.00    +0.013 A 
ATOM      3  C   UNL     1       1.589   4.984  32.386  0.00  0.00    +0.019 A 
ATOM     38  C   UNL     1       2.156   5.142  33.717  0.00  0.00    +0.120 A 
ATOM     39  N   UNL     1       2.561   4.022  34.436  0.00  0.00    -0.263 NA
ATOM     40  C   UNL     1       2.448   2.719  33.929  0.00  0.00    +0.111 A 
ENDBRANCH   4   3
ENDBRANCH  10   9
BRANCH  12  13
ATOM     13  N   UNL     1      -4.615  11.245  29.796  0.00  0.00    -0.281 N 
ATOM     14  C   UNL     1      -4.166  12.413  30.390  0.00  0.00    +0.248 C 
ATOM     30  O   UNL     1      -2.994  12.660  30.631  0.00  0.00    -0.270 OA
ATOM     31  H   UNL     1      -5.621  11.083  29.830  0.00  0.00    +0.155 HD
BRANCH  14  15
ATOM     15  C   UNL     1      -5.166  13.452  30.786  0.00  0.00    +0.037 A 
ATOM     16  C   UNL     1      -4.951  14.306  31.957  0.00  0.00    +0.013 A 
ATOM     17  C   UNL     1      -5.939  15.288  32.326  0.00  0.00    +0.005 A 
ATOM     18  C   UNL     1      -7.151  15.422  31.522  0.00  0.00    -0.033 A 
ATOM     28  C   UNL     1      -7.337  14.566  30.363  0.00  0.00    +0.005 A 
ATOM     29  C   UNL     1      -6.371  13.601  29.998  0.00  0.00    +0.013 A 
BRANCH  18  19
ATOM     19  C   UNL     1      -8.268  16.429  31.855  0.00  0.00    +0.119 C 
BRANCH  19  20
ATOM     20  N   UNL     1      -9.498  15.893  32.512  0.00  0.00    -0.302 NA
ATOM     21  C   UNL     1      -9.180  14.754  33.485  0.00  0.00    +0.066 C 
ATOM     22  C   UNL     1     -10.474  14.221  34.181  0.00  0.00    -0.064 C 
ATOM     23  N   UNL     1     -11.470  13.760  33.114  0.00  0.00    +0.379 N 
ATOM     24  C   UNL     1     -12.665  13.205  33.766  0.00  0.00    -0.096 C 
ATOM     25  H   UNL     1     -10.987  12.939  32.535  0.00  0.00    -0.082 HD
ATOM     26  C   UNL     1     -11.790  14.886  32.141  0.00  0.00    -0.064 C 
ATOM     27  C   UNL     1     -10.493  15.428  31.478  0.00  0.00    +0.066 C 
ENDBRANCH  19  20
ENDBRANCH  18  19
ENDBRANCH  14  15
ENDBRANCH  12  13
TORSDOF 6
ENDMDL
