MODEL 1
REMARK VINA RESULT:      -9.2      0.000      0.000
REMARK  Name = C:\Users\Docking\Desktop\test protocol\1iep_ligandH.pdb
REMARK  8 active torsions:
REMARK  status: ('A' for Active; 'I' for Inactive)
REMARK    1  A    between atoms: _5  and  _11
REMARK    2  A    between atoms: _19  and  _21
REMARK    3  A    between atoms: _22  and  _66
REMARK    4  A    between atoms: _27  and  _30
REMARK    5  A    between atoms: _32  and  _33
REMARK    6  A    between atoms: _38  and  _43
REMARK    7  A    between atoms: _43  and  _46
REMARK    8  A    between atoms: _53  and  _55
REMARK                            x       y       z     vdW  Elec       q    Type
REMARK                         _______ _______ _______ _____ _____    ______ ____
ROOT
ATOM     10  C   UNL     1       9.191  25.554  19.275  0.00  0.00    +0.038 A 
ATOM     11  C   UNL     1      10.414  25.275  18.614  0.00  0.00    +0.047 A 
ATOM     12  C   UNL     1      11.005  23.946  18.652  0.00  0.00    +0.035 A 
ATOM     32  C   UNL     1      10.320  22.923  19.371  0.00  0.00    +0.024 A 
ATOM     33  C   UNL     1       9.076  23.189  20.049  0.00  0.00    +0.007 A 
ATOM     34  C   UNL     1       8.490  24.499  20.017  0.00  0.00    -0.029 A 
ATOM     35  C   UNL     1       7.158  24.728  20.768  0.00  0.00    +0.045 C 
ENDROOT
BRANCH  10   9
ATOM      4  C   UNL     1       8.180  29.821  21.227  0.00  0.00    +0.077 A 
ATOM      5  C   UNL     1       8.712  29.430  22.501  0.00  0.00    +0.048 A 
ATOM      6  C   UNL     1       9.230  28.120  22.614  0.00  0.00    +0.116 A 
ATOM      7  N   UNL     1       9.212  27.273  21.527  0.00  0.00    -0.223 NA
ATOM      8  C   UNL     1       8.690  27.680  20.313  0.00  0.00    +0.220 A 
ATOM      9  N   UNL     1       8.669  26.847  19.205  0.00  0.00    -0.283 N 
ATOM     36  H   UNL     1       8.269  27.183  18.330  0.00  0.00    +0.155 HD
ATOM     37  N   UNL     1       8.188  28.926  20.180  0.00  0.00    -0.214 NA
BRANCH   4   3
ATOM      1  C   UNL     1       5.987  33.054  21.422  0.00  0.00    +0.020 A 
ATOM      2  C   UNL     1       6.511  31.743  21.731  0.00  0.00    +0.013 A 
ATOM      3  C   UNL     1       7.600  31.173  20.949  0.00  0.00    +0.019 A 
ATOM     38  C   UNL     1       8.143  31.961  19.853  0.00  0.00    +0.120 A 
ATOM     39  N   UNL     1       7.618  33.219  19.577  0.00  0.00    -0.263 NA
ATOM     40  C   UNL     1       6.568  33.778  20.321  0.00  0.00    +0.111 A 
ENDBRANCH   4   3
ENDBRANCH  10   9
BRANCH  12  13
ATOM     13  N   UNL     1      12.248  23.606  18.007  0.00  0.00    -0.281 N 
ATOM     14  C   UNL     1      12.436  22.829  16.875  0.00  0.00    +0.248 C 
ATOM     30  O   UNL     1      11.574  22.129  16.367  0.00  0.00    -0.270 OA
ATOM     31  H   UNL     1      13.093  23.984  18.436  0.00  0.00    +0.155 HD
BRANCH  14  15
ATOM     15  C   UNL     1      13.781  22.817  16.223  0.00  0.00    +0.037 A 
ATOM     16  C   UNL     1      13.952  22.357  14.842  0.00  0.00    +0.013 A 
ATOM     17  C   UNL     1      15.262  22.339  14.243  0.00  0.00    +0.005 A 
ATOM     18  C   UNL     1      16.413  22.787  15.023  0.00  0.00    -0.033 A 
ATOM     28  C   UNL     1      16.215  23.244  16.389  0.00  0.00    +0.005 A 
ATOM     29  C   UNL     1      14.932  23.261  16.980  0.00  0.00    +0.013 A 
BRANCH  18  19
ATOM     19  C   UNL     1      17.851  22.783  14.471  0.00  0.00    +0.119 C 
BRANCH  19  20
ATOM     20  N   UNL     1      18.676  24.006  14.703  0.00  0.00    -0.302 NA
ATOM     21  C   UNL     1      18.026  25.258  14.106  0.00  0.00    +0.066 C 
ATOM     22  C   UNL     1      18.892  26.532  14.377  0.00  0.00    -0.064 C 
ATOM     23  N   UNL     1      20.294  26.324  13.804  0.00  0.00    +0.379 N 
ATOM     24  C   UNL     1      21.092  27.542  14.006  0.00  0.00    -0.096 C 
ATOM     25  H   UNL     1      20.190  26.165  12.705  0.00  0.00    -0.082 HD
ATOM     26  C   UNL     1      20.946  25.079  14.389  0.00  0.00    -0.064 C 
ATOM     27  C   UNL     1      20.064  23.824  14.140  0.00  0.00    +0.066 C 
ENDBRANCH  19  20
ENDBRANCH  18  19
ENDBRANCH  14  15
ENDBRANCH  12  13
TORSDOF 6
ENDMDL
MODEL 2
REMARK VINA RESULT:      -9.2      3.689     12.941
REMARK  Name = C:\Users\Docking\Desktop\test protocol\1iep_ligandH.pdb
REMARK  8 active torsions:
REMARK  status: ('A' for Active; 'I' for Inactive)
REMARK    1  A    between atoms: _5  and  _11
REMARK    2  A    between atoms: _19  and  _21
REMARK    3  A    between atoms: _22  and  _66
REMARK    4  A    between atoms: _27  and  _30
REMARK    5  A    between atoms: _32  and  _33
REMARK    6  A    between atoms: _38  and  _43
REMARK    7  A    between atoms: _43  and  _46
REMARK    8  A    between atoms: _53  and  _55
REMARK                            x       y       z     vdW  Elec       q    Type
REMARK                         _______ _______ _______ _____ _____    ______ ____
ROOT
ATOM     10  C   UNL     1      10.704  26.039  20.165  0.00  0.00    +0.038 A 
ATOM     11  C   UNL     1      10.019  27.218  19.776  0.00  0.00    +0.047 A 
ATOM     12  C   UNL     1       9.103  27.891  20.684  0.00  0.00    +0.035 A 
ATOM     32  C   UNL     1       8.911  27.337  21.983  0.00  0.00    +0.024 A 
ATOM     33  C   UNL     1       9.598  26.138  22.395  0.00  0.00    +0.007 A 
ATOM     34  C   UNL     1      10.501  25.469  21.502  0.00  0.00    -0.029 A 
ATOM     35  C   UNL     1      11.206  24.184  21.995  0.00  0.00    +0.045 C 
ENDROOT
BRANCH  10   9
ATOM      4  C   UNL     1      11.695  22.767  16.797  0.00  0.00    +0.077 A 
ATOM      5  C   UNL     1      10.381  22.196  16.880  0.00  0.00    +0.048 A 
ATOM      6  C   UNL     1       9.482  22.770  17.808  0.00  0.00    +0.116 A 
ATOM      7  N   UNL     1       9.879  23.834  18.588  0.00  0.00    -0.223 NA
ATOM      8  C   UNL     1      11.154  24.359  18.484  0.00  0.00    +0.220 A 
ATOM      9  N   UNL     1      11.571  25.434  19.253  0.00  0.00    -0.283 N 
ATOM     36  H   UNL     1      12.523  25.788  19.152  0.00  0.00    +0.155 HD
ATOM     37  N   UNL     1      12.031  23.828  17.607  0.00  0.00    -0.214 NA
BRANCH   4   3
ATOM      1  C   UNL     1      15.002  22.462  14.730  0.00  0.00    +0.020 A 
ATOM      2  C   UNL     1      14.010  22.982  15.643  0.00  0.00    +0.013 A 
ATOM      3  C   UNL     1      12.756  22.273  15.863  0.00  0.00    +0.019 A 
ATOM     38  C   UNL     1      12.534  21.031  15.138  0.00  0.00    +0.120 A 
ATOM     39  N   UNL     1      13.507  20.555  14.264  0.00  0.00    -0.263 NA
ATOM     40  C   UNL     1      14.717  21.229  14.044  0.00  0.00    +0.111 A 
ENDBRANCH   4   3
ENDBRANCH  10   9
BRANCH  12  13
ATOM     13  N   UNL     1       8.373  29.087  20.342  0.00  0.00    -0.281 N 
ATOM     14  C   UNL     1       7.955  30.101  21.187  0.00  0.00    +0.248 C 
ATOM     30  O   UNL     1       7.960  30.030  22.407  0.00  0.00    -0.270 OA
ATOM     31  H   UNL     1       8.136  29.199  19.356  0.00  0.00    +0.155 HD
BRANCH  14  15
ATOM     15  C   UNL     1       7.445  31.373  20.592  0.00  0.00    +0.037 A 
ATOM     16  C   UNL     1       6.211  31.401  19.802  0.00  0.00    +0.013 A 
ATOM     17  C   UNL     1       5.750  32.639  19.225  0.00  0.00    +0.005 A 
ATOM     18  C   UNL     1       6.523  33.860  19.436  0.00  0.00    -0.033 A 
ATOM     28  C   UNL     1       7.741  33.805  20.228  0.00  0.00    +0.005 A 
ATOM     29  C   UNL     1       8.197  32.593  20.795  0.00  0.00    +0.013 A 
BRANCH  18  19
ATOM     19  C   UNL     1       6.118  35.221  18.840  0.00  0.00    +0.119 C 
BRANCH  19  20
ATOM     20  N   UNL     1       5.808  36.323  19.800  0.00  0.00    -0.302 NA
ATOM     21  C   UNL     1       4.601  35.993  20.683  0.00  0.00    +0.066 C 
ATOM     22  C   UNL     1       4.305  37.147  21.695  0.00  0.00    -0.064 C 
ATOM     23  N   UNL     1       4.074  38.449  20.927  0.00  0.00    +0.379 N 
ATOM     24  C   UNL     1       3.738  39.524  21.873  0.00  0.00    -0.096 C 
ATOM     25  H   UNL     1       3.193  38.297  20.261  0.00  0.00    -0.082 HD
ATOM     26  C   UNL     1       5.268  38.783  20.044  0.00  0.00    -0.064 C 
ATOM     27  C   UNL     1       5.572  37.618  19.062  0.00  0.00    +0.066 C 
ENDBRANCH  19  20
ENDBRANCH  18  19
ENDBRANCH  14  15
ENDBRANCH  12  13
TORSDOF 6
ENDMDL
MODEL 3
REMARK VINA RESULT:      -9.1      2.420     11.964
REMARK  Name = C:\Users\Docking\Desktop\test protocol\1iep_ligandH.pdb
REMARK  8 active torsions:
REMARK  status: ('A' for Active; 'I' for Inactive)
REMARK    1  A    between atoms: _5  and  _11
REMARK    2  A    between atoms: _19  and  _21
REMARK    3  A    between atoms: _22  and  _66
REMARK    4  A    between atoms: _27  and  _30
REMARK    5  A    between atoms: _32  and  _33
REMARK    6  A    between atoms: _38  and  _43
REMARK    7  A    between atoms: _43  and  _46
REMARK    8  A    between atoms: _53  and  _55
REMARK                            x       y       z     vdW  Elec       q    Type
REMARK                         _______ _______ _______ _____ _____    ______ ____
ROOT
ATOM     10  C   UNL     1      17.182  23.034  14.949  0.00  0.00    +0.038 A 
ATOM     11  C   UNL     1      15.993  23.392  15.636  0.00  0.00    +0.047 A 
ATOM     12  C   UNL     1      14.691  22.944  15.170  0.00  0.00    +0.035 A 
ATOM     32  C   UNL     1      14.635  22.128  14.002  0.00  0.00    +0.024 A 
ATOM     33  C   UNL     1      15.832  21.755  13.291  0.00  0.00    +0.007 A 
ATOM     34  C   UNL     1      17.120  22.197  13.745  0.00  0.00    -0.029 A 
ATOM     35  C   UNL     1      18.370  21.772  12.940  0.00  0.00    +0.045 C 
ENDROOT
BRANCH  10   9
ATOM      4  C   UNL     1      20.570  26.404  15.393  0.00  0.00    +0.077 A 
ATOM      5  C   UNL     1      19.853  27.319  14.552  0.00  0.00    +0.048 A 
ATOM      6  C   UNL     1      18.620  26.881  14.019  0.00  0.00    +0.116 A 
ATOM      7  N   UNL     1      18.148  25.620  14.313  0.00  0.00    -0.223 NA
ATOM      8  C   UNL     1      18.865  24.762  15.126  0.00  0.00    +0.220 A 
ATOM      9  N   UNL     1      18.406  23.492  15.441  0.00  0.00    -0.283 N 
ATOM     36  H   UNL     1      18.968  22.886  16.038  0.00  0.00    +0.155 HD
ATOM     37  N   UNL     1      20.046  25.156  15.646  0.00  0.00    -0.214 NA
BRANCH   4   3
ATOM      1  C   UNL     1      24.359  27.209  15.937  0.00  0.00    +0.020 A 
ATOM      2  C   UNL     1      23.115  26.902  15.270  0.00  0.00    +0.013 A 
ATOM      3  C   UNL     1      21.886  26.722  16.033  0.00  0.00    +0.019 A 
ATOM     38  C   UNL     1      21.951  26.859  17.480  0.00  0.00    +0.120 A 
ATOM     39  N   UNL     1      23.164  27.154  18.095  0.00  0.00    -0.263 NA
ATOM     40  C   UNL     1      24.353  27.328  17.371  0.00  0.00    +0.111 A 
ENDBRANCH   4   3
ENDBRANCH  10   9
BRANCH  12  13
ATOM     13  N   UNL     1      13.449  23.283  15.821  0.00  0.00    -0.281 N 
ATOM     14  C   UNL     1      12.678  22.486  16.651  0.00  0.00    +0.248 C 
ATOM     30  O   UNL     1      12.830  21.281  16.789  0.00  0.00    -0.270 OA
ATOM     31  H   UNL     1      13.097  24.224  15.649  0.00  0.00    +0.155 HD
BRANCH  14  15
ATOM     15  C   UNL     1      11.568  23.116  17.429  0.00  0.00    +0.037 A 
ATOM     16  C   UNL     1      10.220  22.541  17.432  0.00  0.00    +0.013 A 
ATOM     17  C   UNL     1       9.164  23.178  18.178  0.00  0.00    +0.005 A 
ATOM     18  C   UNL     1       9.452  24.398  18.928  0.00  0.00    -0.033 A 
ATOM     28  C   UNL     1      10.799  24.944  18.912  0.00  0.00    +0.005 A 
ATOM     29  C   UNL     1      11.837  24.323  18.182  0.00  0.00    +0.013 A 
BRANCH  18  19
ATOM     19  C   UNL     1       8.381  25.156  19.734  0.00  0.00    +0.119 C 
BRANCH  19  20
ATOM     20  N   UNL     1       8.859  26.078  20.808  0.00  0.00    -0.302 NA
ATOM     21  C   UNL     1       8.757  25.443  22.197  0.00  0.00    +0.066 C 
ATOM     22  C   UNL     1       9.282  26.412  23.306  0.00  0.00    -0.064 C 
ATOM     23  N   UNL     1       8.493  27.722  23.250  0.00  0.00    +0.379 N 
ATOM     24  C   UNL     1       8.944  28.613  24.328  0.00  0.00    -0.096 C 
ATOM     25  H   UNL     1       7.421  27.479  23.438  0.00  0.00    -0.082 HD
ATOM     26  C   UNL     1       8.586  28.359  21.870  0.00  0.00    -0.064 C 
ATOM     27  C   UNL     1       8.090  27.376  20.773  0.00  0.00    +0.066 C 
ENDBRANCH  19  20
ENDBRANCH  18  19
ENDBRANCH  14  15
ENDBRANCH  12  13
TORSDOF 6
ENDMDL
MODEL 4
REMARK VINA RESULT:      -9.0      3.461     12.384
REMARK  Name = C:\Users\Docking\Desktop\test protocol\1iep_ligandH.pdb
REMARK  8 active torsions:
REMARK  status: ('A' for Active; 'I' for Inactive)
REMARK    1  A    between atoms: _5  and  _11
REMARK    2  A    between atoms: _19  and  _21
REMARK    3  A    between atoms: _22  and  _66
REMARK    4  A    between atoms: _27  and  _30
REMARK    5  A    between atoms: _32  and  _33
REMARK    6  A    between atoms: _38  and  _43
REMARK    7  A    between atoms: _43  and  _46
REMARK    8  A    between atoms: _53  and  _55
REMARK                            x       y       z     vdW  Elec       q    Type
REMARK                         _______ _______ _______ _____ _____    ______ ____
ROOT
ATOM     10  C   UNL     1      16.798  23.039  15.182  0.00  0.00    +0.038 A 
ATOM     11  C   UNL     1      15.620  23.449  15.856  0.00  0.00    +0.047 A 
ATOM     12  C   UNL     1      14.307  23.001  15.416  0.00  0.00    +0.035 A 
ATOM     32  C   UNL     1      14.233  22.134  14.287  0.00  0.00    +0.024 A 
ATOM     33  C   UNL     1      15.421  21.708  13.590  0.00  0.00    +0.007 A 
ATOM     34  C   UNL     1      16.718  22.149  14.018  0.00  0.00    -0.029 A 
ATOM     35  C   UNL     1      17.957  21.666  13.228  0.00  0.00    +0.045 C 
ENDROOT
BRANCH  10   9
ATOM      4  C   UNL     1      20.287  26.330  15.380  0.00  0.00    +0.077 A 
ATOM      5  C   UNL     1      19.606  27.193  14.458  0.00  0.00    +0.048 A 
ATOM      6  C   UNL     1      18.364  26.750  13.950  0.00  0.00    +0.116 A 
ATOM      7  N   UNL     1      17.851  25.533  14.343  0.00  0.00    -0.223 NA
ATOM      8  C   UNL     1      18.534  24.724  15.232  0.00  0.00    +0.220 A 
ATOM      9  N   UNL     1      18.032  23.500  15.647  0.00  0.00    -0.283 N 
ATOM     36  H   UNL     1      18.570  22.929  16.299  0.00  0.00    +0.155 HD
ATOM     37  N   UNL     1      19.722  25.124  15.730  0.00  0.00    -0.214 NA
BRANCH   4   3
ATOM      1  C   UNL     1      24.090  27.091  15.892  0.00  0.00    +0.020 A 
ATOM      2  C   UNL     1      22.841  26.769  15.239  0.00  0.00    +0.013 A 
ATOM      3  C   UNL     1      21.607  26.660  16.005  0.00  0.00    +0.019 A 
ATOM     38  C   UNL     1      21.669  26.884  17.442  0.00  0.00    +0.120 A 
ATOM     39  N   UNL     1      22.886  27.191  18.043  0.00  0.00    -0.263 NA
ATOM     40  C   UNL     1      24.081  27.297  17.316  0.00  0.00    +0.111 A 
ENDBRANCH   4   3
ENDBRANCH  10   9
BRANCH  12  13
ATOM     13  N   UNL     1      13.075  23.390  16.056  0.00  0.00    -0.281 N 
ATOM     14  C   UNL     1      12.422  22.759  17.102  0.00  0.00    +0.248 C 
ATOM     30  O   UNL     1      12.690  21.638  17.508  0.00  0.00    -0.270 OA
ATOM     31  H   UNL     1      12.630  24.233  15.693  0.00  0.00    +0.155 HD
BRANCH  14  15
ATOM     15  C   UNL     1      11.300  23.471  17.787  0.00  0.00    +0.037 A 
ATOM     16  C   UNL     1      11.528  24.714  18.528  0.00  0.00    +0.013 A 
ATOM     17  C   UNL     1      10.432  25.370  19.194  0.00  0.00    +0.005 A 
ATOM     18  C   UNL     1       9.095  24.785  19.120  0.00  0.00    -0.033 A 
ATOM     28  C   UNL     1       8.896  23.554  18.374  0.00  0.00    +0.005 A 
ATOM     29  C   UNL     1       9.969  22.907  17.721  0.00  0.00    +0.013 A 
BRANCH  18  19
ATOM     19  C   UNL     1       7.870  25.406  19.818  0.00  0.00    +0.119 C 
BRANCH  19  20
ATOM     20  N   UNL     1       7.367  24.726  21.048  0.00  0.00    -0.302 NA
ATOM     21  C   UNL     1       6.106  23.901  20.773  0.00  0.00    +0.066 C 
ATOM     22  C   UNL     1       5.605  23.179  22.066  0.00  0.00    -0.064 C 
ATOM     23  N   UNL     1       5.346  24.217  23.159  0.00  0.00    +0.379 N 
ATOM     24  C   UNL     1       4.820  23.547  24.358  0.00  0.00    -0.096 C 
ATOM     25  H   UNL     1       4.557  24.911  22.786  0.00  0.00    -0.082 HD
ATOM     26  C   UNL     1       6.593  25.043  23.437  0.00  0.00    -0.064 C 
ATOM     27  C   UNL     1       7.099  25.733  22.139  0.00  0.00    +0.066 C 
ENDBRANCH  19  20
ENDBRANCH  18  19
ENDBRANCH  14  15
ENDBRANCH  12  13
TORSDOF 6
ENDMDL
MODEL 5
REMARK VINA RESULT:      -9.0      1.833      2.923
REMARK  Name = C:\Users\Docking\Desktop\test protocol\1iep_ligandH.pdb
REMARK  8 active torsions:
REMARK  status: ('A' for Active; 'I' for Inactive)
REMARK    1  A    between atoms: _5  and  _11
REMARK    2  A    between atoms: _19  and  _21
REMARK    3  A    between atoms: _22  and  _66
REMARK    4  A    between atoms: _27  and  _30
REMARK    5  A    between atoms: _32  and  _33
REMARK    6  A    between atoms: _38  and  _43
REMARK    7  A    between atoms: _43  and  _46
REMARK    8  A    between atoms: _53  and  _55
REMARK                            x       y       z     vdW  Elec       q    Type
REMARK                         _______ _______ _______ _____ _____    ______ ____
ROOT
ATOM     10  C   UNL     1       9.181  25.554  19.281  0.00  0.00    +0.038 A 
ATOM     11  C   UNL     1      10.391  25.267  18.599  0.00  0.00    +0.047 A 
ATOM     12  C   UNL     1      10.978  23.937  18.635  0.00  0.00    +0.035 A 
ATOM     32  C   UNL     1      10.304  22.921  19.373  0.00  0.00    +0.024 A 
ATOM     33  C   UNL     1       9.074  23.195  20.073  0.00  0.00    +0.007 A 
ATOM     34  C   UNL     1       8.491  24.506  20.043  0.00  0.00    -0.029 A 
ATOM     35  C   UNL     1       7.174  24.745  20.818  0.00  0.00    +0.045 C 
ENDROOT
BRANCH  10   9
ATOM      4  C   UNL     1       8.169  29.817  21.240  0.00  0.00    +0.077 A 
ATOM      5  C   UNL     1       8.695  29.422  22.515  0.00  0.00    +0.048 A 
ATOM      6  C   UNL     1       9.209  28.111  22.627  0.00  0.00    +0.116 A 
ATOM      7  N   UNL     1       9.195  27.267  21.538  0.00  0.00    -0.223 NA
ATOM      8  C   UNL     1       8.679  27.679  20.323  0.00  0.00    +0.220 A 
ATOM      9  N   UNL     1       8.662  26.849  19.213  0.00  0.00    -0.283 N 
ATOM     36  H   UNL     1       8.266  27.188  18.336  0.00  0.00    +0.155 HD
ATOM     37  N   UNL     1       8.181  28.926  20.191  0.00  0.00    -0.214 NA
BRANCH   4   3
ATOM      1  C   UNL     1       5.977  33.052  21.430  0.00  0.00    +0.020 A 
ATOM      2  C   UNL     1       6.497  31.739  21.738  0.00  0.00    +0.013 A 
ATOM      3  C   UNL     1       7.593  31.171  20.964  0.00  0.00    +0.019 A 
ATOM     38  C   UNL     1       8.147  31.964  19.876  0.00  0.00    +0.120 A 
ATOM     39  N   UNL     1       7.625  33.225  19.602  0.00  0.00    -0.263 NA
ATOM     40  C   UNL     1       6.569  33.781  20.339  0.00  0.00    +0.111 A 
ENDBRANCH   4   3
ENDBRANCH  10   9
BRANCH  12  13
ATOM     13  N   UNL     1      12.208  23.589  17.968  0.00  0.00    -0.281 N 
ATOM     14  C   UNL     1      12.375  22.782  16.854  0.00  0.00    +0.248 C 
ATOM     30  O   UNL     1      11.506  22.061  16.387  0.00  0.00    -0.270 OA
ATOM     31  H   UNL     1      13.060  23.985  18.366  0.00  0.00    +0.155 HD
BRANCH  14  15
ATOM     15  C   UNL     1      13.703  22.763  16.169  0.00  0.00    +0.037 A 
ATOM     16  C   UNL     1      14.925  23.171  16.868  0.00  0.00    +0.013 A 
ATOM     17  C   UNL     1      16.190  23.159  16.178  0.00  0.00    +0.005 A 
ATOM     18  C   UNL     1      16.241  22.736  14.781  0.00  0.00    -0.033 A 
ATOM     28  C   UNL     1      15.014  22.331  14.114  0.00  0.00    +0.005 A 
ATOM     29  C   UNL     1      13.772  22.342  14.786  0.00  0.00    +0.013 A 
BRANCH  18  19
ATOM     19  C   UNL     1      17.544  22.712  13.961  0.00  0.00    +0.119 C 
BRANCH  19  20
ATOM     20  N   UNL     1      17.811  21.496  13.136  0.00  0.00    -0.302 NA
ATOM     21  C   UNL     1      17.915  20.231  13.993  0.00  0.00    +0.066 C 
ATOM     22  C   UNL     1      18.171  18.966  13.112  0.00  0.00    -0.064 C 
ATOM     23  N   UNL     1      19.446  19.169  12.290  0.00  0.00    +0.379 N 
ATOM     24  C   UNL     1      19.721  17.958  11.504  0.00  0.00    -0.096 C 
ATOM     25  H   UNL     1      20.290  19.308  13.005  0.00  0.00    -0.082 HD
ATOM     26  C   UNL     1      19.352  20.426  11.437  0.00  0.00    -0.064 C 
ATOM     27  C   UNL     1      19.067  21.674  12.319  0.00  0.00    +0.066 C 
ENDBRANCH  19  20
ENDBRANCH  18  19
ENDBRANCH  14  15
ENDBRANCH  12  13
TORSDOF 6
ENDMDL
