MODEL 1
REMARK VINA RESULT:     -10.5      0.000      0.000
REMARK  Name = C:\Users\Docking\Desktop\test protocol\1iep_ligandH.pdb
REMARK  8 active torsions:
REMARK  status: ('A' for Active; 'I' for Inactive)
REMARK    1  A    between atoms: _5  and  _11
REMARK    2  A    between atoms: _19  and  _21
REMARK    3  A    between atoms: _22  and  _66
REMARK    4  A    between atoms: _27  and  _30
REMARK    5  A    between atoms: _32  and  _33
REMARK    6  A    between atoms: _38  and  _43
REMARK    7  A    between atoms: _43  and  _46
REMARK    8  A    between atoms: _53  and  _55
REMARK                            x       y       z     vdW  Elec       q    Type
REMARK                         _______ _______ _______ _____ _____    ______ ____
ROOT
ATOM     10  C   UNL     1     -67.428  -0.298 -42.871  0.00  0.00    +0.038 A 
ATOM     11  C   UNL     1     -68.153   0.440 -43.841  0.00  0.00    +0.047 A 
ATOM     12  C   UNL     1     -68.949  -0.231 -44.857  0.00  0.00    +0.035 A 
ATOM     32  C   UNL     1     -68.987  -1.656 -44.853  0.00  0.00    +0.024 A 
ATOM     33  C   UNL     1     -68.255  -2.422 -43.875  0.00  0.00    +0.007 A 
ATOM     34  C   UNL     1     -67.466  -1.766 -42.873  0.00  0.00    -0.029 A 
ATOM     35  C   UNL     1     -66.697  -2.638 -41.853  0.00  0.00    +0.045 C 
ENDROOT
BRANCH  10   9
ATOM      4  C   UNL     1     -67.015   2.942 -39.354  0.00  0.00    +0.077 A 
ATOM      5  C   UNL     1     -68.402   3.298 -39.439  0.00  0.00    +0.048 A 
ATOM      6  C   UNL     1     -69.186   2.629 -40.405  0.00  0.00    +0.116 A 
ATOM      7  N   UNL     1     -68.615   1.676 -41.221  0.00  0.00    -0.223 NA
ATOM      8  C   UNL     1     -67.273   1.358 -41.114  0.00  0.00    +0.220 A 
ATOM      9  N   UNL     1     -66.679   0.398 -41.919  0.00  0.00    -0.283 N 
ATOM     36  H   UNL     1     -65.685   0.197 -41.814  0.00  0.00    +0.155 HD
ATOM     37  N   UNL     1     -66.503   1.984 -40.200  0.00  0.00    -0.214 NA
BRANCH   4   3
ATOM      1  C   UNL     1     -65.129   5.520 -37.097  0.00  0.00    +0.020 A 
ATOM      2  C   UNL     1     -66.075   4.976 -38.044  0.00  0.00    +0.013 A 
ATOM      3  C   UNL     1     -66.059   3.558 -38.381  0.00  0.00    +0.019 A 
ATOM     38  C   UNL     1     -65.066   2.711 -37.736  0.00  0.00    +0.120 A 
ATOM     39  N   UNL     1     -64.167   3.264 -36.830  0.00  0.00    -0.263 NA
ATOM     40  C   UNL     1     -64.172   4.627 -36.499  0.00  0.00    +0.111 A 
ENDBRANCH   4   3
ENDBRANCH  10   9
BRANCH  12  13
ATOM     13  N   UNL     1     -69.700   0.465 -45.872  0.00  0.00    -0.281 N 
ATOM     14  C   UNL     1     -69.601   0.331 -47.247  0.00  0.00    +0.248 C 
ATOM     30  O   UNL     1     -68.696  -0.258 -47.820  0.00  0.00    -0.270 OA
ATOM     31  H   UNL     1     -70.388   1.139 -45.536  0.00  0.00    +0.155 HD
BRANCH  14  15
ATOM     15  C   UNL     1     -70.650   0.952 -48.111  0.00  0.00    +0.037 A 
ATOM     16  C   UNL     1     -70.761   0.617 -49.533  0.00  0.00    +0.013 A 
ATOM     17  C   UNL     1     -71.771   1.243 -50.347  0.00  0.00    +0.005 A 
ATOM     18  C   UNL     1     -72.681   2.212 -49.740  0.00  0.00    -0.033 A 
ATOM     28  C   UNL     1     -72.553   2.522 -48.326  0.00  0.00    +0.005 A 
ATOM     29  C   UNL     1     -71.563   1.911 -47.525  0.00  0.00    +0.013 A 
BRANCH  18  19
ATOM     19  C   UNL     1     -73.776   2.945 -50.538  0.00  0.00    +0.119 C 
BRANCH  19  20
ATOM     20  N   UNL     1     -75.129   2.313 -50.582  0.00  0.00    -0.302 NA
ATOM     21  C   UNL     1     -75.490   1.827 -51.989  0.00  0.00    +0.066 C 
ATOM     22  C   UNL     1     -76.899   1.149 -52.012  0.00  0.00    -0.064 C 
ATOM     23  N   UNL     1     -77.946   2.137 -51.495  0.00  0.00    +0.379 N 
ATOM     24  C   UNL     1     -79.279   1.523 -51.570  0.00  0.00    -0.096 C 
ATOM     25  H   UNL     1     -77.941   3.021 -52.174  0.00  0.00    -0.082 HD
ATOM     26  C   UNL     1     -77.593   2.628 -50.098  0.00  0.00    -0.064 C 
ATOM     27  C   UNL     1     -76.179   3.273 -50.080  0.00  0.00    +0.066 C 
ENDBRANCH  19  20
ENDBRANCH  18  19
ENDBRANCH  14  15
ENDBRANCH  12  13
TORSDOF 6
ENDMDL
MODEL 2
REMARK VINA RESULT:      -9.8     14.515     18.768
REMARK  Name = C:\Users\Docking\Desktop\test protocol\1iep_ligandH.pdb
REMARK  8 active torsions:
REMARK  status: ('A' for Active; 'I' for Inactive)
REMARK    1  A    between atoms: _5  and  _11
REMARK    2  A    between atoms: _19  and  _21
REMARK    3  A    between atoms: _22  and  _66
REMARK    4  A    between atoms: _27  and  _30
REMARK    5  A    between atoms: _32  and  _33
REMARK    6  A    between atoms: _38  and  _43
REMARK    7  A    between atoms: _43  and  _46
REMARK    8  A    between atoms: _53  and  _55
REMARK                            x       y       z     vdW  Elec       q    Type
REMARK                         _______ _______ _______ _____ _____    ______ ____
ROOT
ATOM     10  C   UNL     1     -70.434  -1.679 -30.544  0.00  0.00    +0.038 A 
ATOM     11  C   UNL     1     -71.428  -2.611 -30.151  0.00  0.00    +0.047 A 
ATOM     12  C   UNL     1     -71.179  -4.043 -30.199  0.00  0.00    +0.035 A 
ATOM     32  C   UNL     1     -69.904  -4.492 -30.650  0.00  0.00    +0.024 A 
ATOM     33  C   UNL     1     -68.881  -3.559 -31.054  0.00  0.00    +0.007 A 
ATOM     34  C   UNL     1     -69.122  -2.145 -31.011  0.00  0.00    -0.029 A 
ATOM     35  C   UNL     1     -67.992  -1.192 -31.463  0.00  0.00    +0.045 C 
ENDROOT
BRANCH  10   9
ATOM      4  C   UNL     1     -71.983   2.417 -32.508  0.00  0.00    +0.077 A 
ATOM      5  C   UNL     1     -72.201   1.793 -33.781  0.00  0.00    +0.048 A 
ATOM      6  C   UNL     1     -71.896   0.418 -33.890  0.00  0.00    +0.116 A 
ATOM      7  N   UNL     1     -71.409  -0.272 -32.801  0.00  0.00    -0.223 NA
ATOM      8  C   UNL     1     -71.208   0.361 -31.588  0.00  0.00    +0.220 A 
ATOM      9  N   UNL     1     -70.727  -0.315 -30.478  0.00  0.00    -0.283 N 
ATOM     36  H   UNL     1     -70.585   0.189 -29.602  0.00  0.00    +0.155 HD
ATOM     37  N   UNL     1     -71.491   1.674 -31.458  0.00  0.00    -0.214 NA
BRANCH   4   3
ATOM      1  C   UNL     1     -71.662   6.311 -32.324  0.00  0.00    +0.020 A 
ATOM      2  C   UNL     1     -71.345   4.931 -32.612  0.00  0.00    +0.013 A 
ATOM      3  C   UNL     1     -72.261   3.863 -32.233  0.00  0.00    +0.019 A 
ATOM     38  C   UNL     1     -73.498   4.227 -31.560  0.00  0.00    +0.120 A 
ATOM     39  N   UNL     1     -73.776   5.564 -31.295  0.00  0.00    -0.263 NA
ATOM     40  C   UNL     1     -72.902   6.601 -31.653  0.00  0.00    +0.111 A 
ENDBRANCH   4   3
ENDBRANCH  10   9
BRANCH  12  13
ATOM     13  N   UNL     1     -72.154  -5.036 -29.820  0.00  0.00    -0.281 N 
ATOM     14  C   UNL     1     -71.938  -6.226 -29.144  0.00  0.00    +0.248 C 
ATOM     30  O   UNL     1     -70.838  -6.721 -28.949  0.00  0.00    -0.270 OA
ATOM     31  H   UNL     1     -73.119  -4.838 -30.082  0.00  0.00    +0.155 HD
BRANCH  14  15
ATOM     15  C   UNL     1     -73.116  -6.983 -28.621  0.00  0.00    +0.037 A 
ATOM     16  C   UNL     1     -74.465  -6.412 -28.662  0.00  0.00    +0.013 A 
ATOM     17  C   UNL     1     -75.582  -7.157 -28.136  0.00  0.00    +0.005 A 
ATOM     18  C   UNL     1     -75.353  -8.482 -27.565  0.00  0.00    -0.033 A 
ATOM     28  C   UNL     1     -74.006  -9.026 -27.542  0.00  0.00    +0.005 A 
ATOM     29  C   UNL     1     -72.909  -8.299 -28.056  0.00  0.00    +0.013 A 
BRANCH  18  19
ATOM     19  C   UNL     1     -76.482  -9.338 -26.961  0.00  0.00    +0.119 C 
BRANCH  19  20
ATOM     20  N   UNL     1     -77.490  -8.639 -26.110  0.00  0.00    -0.302 NA
ATOM     21  C   UNL     1     -77.316  -8.969 -24.625  0.00  0.00    +0.066 C 
ATOM     22  C   UNL     1     -78.364  -8.212 -23.746  0.00  0.00    -0.064 C 
ATOM     23  N   UNL     1     -79.775  -8.569 -24.219  0.00  0.00    +0.379 N 
ATOM     24  C   UNL     1     -80.764  -7.904 -23.358  0.00  0.00    -0.096 C 
ATOM     25  H   UNL     1     -79.904  -9.670 -24.095  0.00  0.00    -0.082 HD
ATOM     26  C   UNL     1     -79.956  -8.247 -25.695  0.00  0.00    -0.064 C 
ATOM     27  C   UNL     1     -78.891  -8.981 -26.556  0.00  0.00    +0.066 C 
ENDBRANCH  19  20
ENDBRANCH  18  19
ENDBRANCH  14  15
ENDBRANCH  12  13
TORSDOF 6
ENDMDL
MODEL 3
REMARK VINA RESULT:      -9.6      1.400      2.183
REMARK  Name = C:\Users\Docking\Desktop\test protocol\1iep_ligandH.pdb
REMARK  8 active torsions:
REMARK  status: ('A' for Active; 'I' for Inactive)
REMARK    1  A    between atoms: _5  and  _11
REMARK    2  A    between atoms: _19  and  _21
REMARK    3  A    between atoms: _22  and  _66
REMARK    4  A    between atoms: _27  and  _30
REMARK    5  A    between atoms: _32  and  _33
REMARK    6  A    between atoms: _38  and  _43
REMARK    7  A    between atoms: _43  and  _46
REMARK    8  A    between atoms: _53  and  _55
REMARK                            x       y       z     vdW  Elec       q    Type
REMARK                         _______ _______ _______ _____ _____    ______ ____
ROOT
ATOM     10  C   UNL     1     -67.947  -1.059 -44.685  0.00  0.00    +0.038 A 
ATOM     11  C   UNL     1     -68.737  -0.092 -45.358  0.00  0.00    +0.047 A 
ATOM     12  C   UNL     1     -69.473  -0.430 -46.566  0.00  0.00    +0.035 A 
ATOM     32  C   UNL     1     -69.383  -1.764 -47.061  0.00  0.00    +0.024 A 
ATOM     33  C   UNL     1     -68.583  -2.759 -46.391  0.00  0.00    +0.007 A 
ATOM     34  C   UNL     1     -67.854  -2.430 -45.200  0.00  0.00    -0.029 A 
ATOM     35  C   UNL     1     -67.007  -3.536 -44.526  0.00  0.00    +0.045 C 
ENDROOT
BRANCH  10   9
ATOM      4  C   UNL     1     -67.432   1.676 -40.775  0.00  0.00    +0.077 A 
ATOM      5  C   UNL     1     -68.614   2.432 -41.075  0.00  0.00    +0.048 A 
ATOM      6  C   UNL     1     -69.322   2.089 -42.249  0.00  0.00    +0.116 A 
ATOM      7  N   UNL     1     -68.872   1.066 -43.055  0.00  0.00    -0.223 NA
ATOM      8  C   UNL     1     -67.727   0.359 -42.737  0.00  0.00    +0.220 A 
ATOM      9  N   UNL     1     -67.261  -0.680 -43.529  0.00  0.00    -0.283 N 
ATOM     36  H   UNL     1     -66.409  -1.172 -43.264  0.00  0.00    +0.155 HD
ATOM     37  N   UNL     1     -67.033   0.667 -41.622  0.00  0.00    -0.214 NA
BRANCH   4   3
ATOM      1  C   UNL     1     -65.312   3.422 -37.989  0.00  0.00    +0.020 A 
ATOM      2  C   UNL     1     -66.135   3.245 -39.163  0.00  0.00    +0.013 A 
ATOM      3  C   UNL     1     -66.578   1.917 -39.569  0.00  0.00    +0.019 A 
ATOM     38  C   UNL     1     -66.168   0.780 -38.758  0.00  0.00    +0.120 A 
ATOM     39  N   UNL     1     -65.373   0.981 -37.633  0.00  0.00    -0.263 NA
ATOM     40  C   UNL     1     -64.940   2.254 -37.234  0.00  0.00    +0.111 A 
ENDBRANCH   4   3
ENDBRANCH  10   9
BRANCH  12  13
ATOM     13  N   UNL     1     -70.285   0.512 -47.296  0.00  0.00    -0.281 N 
ATOM     14  C   UNL     1     -70.109   0.962 -48.594  0.00  0.00    +0.248 C 
ATOM     30  O   UNL     1     -69.097   0.783 -49.256  0.00  0.00    -0.270 OA
ATOM     31  H   UNL     1     -71.088   0.893 -46.795  0.00  0.00    +0.155 HD
BRANCH  14  15
ATOM     15  C   UNL     1     -71.209   1.734 -49.247  0.00  0.00    +0.037 A 
ATOM     16  C   UNL     1     -72.132   2.555 -48.459  0.00  0.00    +0.013 A 
ATOM     17  C   UNL     1     -73.196   3.276 -49.111  0.00  0.00    +0.005 A 
ATOM     18  C   UNL     1     -73.341   3.181 -50.562  0.00  0.00    -0.033 A 
ATOM     28  C   UNL     1     -72.408   2.364 -51.320  0.00  0.00    +0.005 A 
ATOM     29  C   UNL     1     -71.365   1.654 -50.684  0.00  0.00    +0.013 A 
BRANCH  18  19
ATOM     19  C   UNL     1     -74.460   3.899 -51.340  0.00  0.00    +0.119 C 
BRANCH  19  20
ATOM     20  N   UNL     1     -75.815   3.272 -51.324  0.00  0.00    -0.302 NA
ATOM     21  C   UNL     1     -76.481   3.377 -49.949  0.00  0.00    +0.066 C 
ATOM     22  C   UNL     1     -77.907   2.736 -49.957  0.00  0.00    -0.064 C 
ATOM     23  N   UNL     1     -77.804   1.275 -50.399  0.00  0.00    +0.379 N 
ATOM     24  C   UNL     1     -79.135   0.653 -50.352  0.00  0.00    -0.096 C 
ATOM     25  H   UNL     1     -77.156   0.744 -49.664  0.00  0.00    -0.082 HD
ATOM     26  C   UNL     1     -77.140   1.162 -51.764  0.00  0.00    -0.064 C 
ATOM     27  C   UNL     1     -75.736   1.828 -51.754  0.00  0.00    +0.066 C 
ENDBRANCH  19  20
ENDBRANCH  18  19
ENDBRANCH  14  15
ENDBRANCH  12  13
TORSDOF 6
ENDMDL
MODEL 4
REMARK VINA RESULT:      -9.4     14.017     18.065
REMARK  Name = C:\Users\Docking\Desktop\test protocol\1iep_ligandH.pdb
REMARK  8 active torsions:
REMARK  status: ('A' for Active; 'I' for Inactive)
REMARK    1  A    between atoms: _5  and  _11
REMARK    2  A    between atoms: _19  and  _21
REMARK    3  A    between atoms: _22  and  _66
REMARK    4  A    between atoms: _27  and  _30
REMARK    5  A    between atoms: _32  and  _33
REMARK    6  A    between atoms: _38  and  _43
REMARK    7  A    between atoms: _43  and  _46
REMARK    8  A    between atoms: _53  and  _55
REMARK                            x       y       z     vdW  Elec       q    Type
REMARK                         _______ _______ _______ _____ _____    ______ ____
ROOT
ATOM     10  C   UNL     1     -70.292  -1.519 -30.336  0.00  0.00    +0.038 A 
ATOM     11  C   UNL     1     -71.240  -2.350 -29.687  0.00  0.00    +0.047 A 
ATOM     12  C   UNL     1     -71.067  -3.794 -29.637  0.00  0.00    +0.035 A 
ATOM     32  C   UNL     1     -69.913  -4.357 -30.256  0.00  0.00    +0.024 A 
ATOM     33  C   UNL     1     -68.939  -3.528 -30.921  0.00  0.00    +0.007 A 
ATOM     34  C   UNL     1     -69.107  -2.103 -30.976  0.00  0.00    -0.029 A 
ATOM     35  C   UNL     1     -68.034  -1.263 -31.708  0.00  0.00    +0.045 C 
ENDROOT
BRANCH  10   9
ATOM      4  C   UNL     1     -72.112   2.453 -32.322  0.00  0.00    +0.077 A 
ATOM      5  C   UNL     1     -72.654   1.722 -33.430  0.00  0.00    +0.048 A 
ATOM      6  C   UNL     1     -72.436   0.326 -33.456  0.00  0.00    +0.116 A 
ATOM      7  N   UNL     1     -71.728  -0.282 -32.443  0.00  0.00    -0.223 NA
ATOM      8  C   UNL     1     -71.217   0.453 -31.388  0.00  0.00    +0.220 A 
ATOM      9  N   UNL     1     -70.509  -0.140 -30.354  0.00  0.00    -0.283 N 
ATOM     36  H   UNL     1     -70.142   0.438 -29.599  0.00  0.00    +0.155 HD
ATOM     37  N   UNL     1     -71.410   1.787 -31.342  0.00  0.00    -0.214 NA
BRANCH   4   3
ATOM      1  C   UNL     1     -71.484   6.311 -32.477  0.00  0.00    +0.020 A 
ATOM      2  C   UNL     1     -71.292   4.892 -32.668  0.00  0.00    +0.013 A 
ATOM      3  C   UNL     1     -72.261   3.933 -32.151  0.00  0.00    +0.019 A 
ATOM     38  C   UNL     1     -73.422   4.448 -31.441  0.00  0.00    +0.120 A 
ATOM     39  N   UNL     1     -73.579   5.820 -31.271  0.00  0.00    -0.263 NA
ATOM     40  C   UNL     1     -72.653   6.752 -31.762  0.00  0.00    +0.111 A 
ENDBRANCH   4   3
ENDBRANCH  10   9
BRANCH  12  13
ATOM     13  N   UNL     1     -72.000  -4.689 -29.000  0.00  0.00    -0.281 N 
ATOM     14  C   UNL     1     -73.114  -5.296 -29.557  0.00  0.00    +0.248 C 
ATOM     30  O   UNL     1     -73.600  -4.992 -30.636  0.00  0.00    -0.270 OA
ATOM     31  H   UNL     1     -71.819  -4.900 -28.018  0.00  0.00    +0.155 HD
BRANCH  14  15
ATOM     15  C   UNL     1     -73.795  -6.390 -28.799  0.00  0.00    +0.037 A 
ATOM     16  C   UNL     1     -73.131  -7.673 -28.557  0.00  0.00    +0.013 A 
ATOM     17  C   UNL     1     -73.817  -8.718 -27.838  0.00  0.00    +0.005 A 
ATOM     18  C   UNL     1     -75.175  -8.482 -27.355  0.00  0.00    -0.033 A 
ATOM     28  C   UNL     1     -75.808  -7.197 -27.605  0.00  0.00    +0.005 A 
ATOM     29  C   UNL     1     -75.139  -6.172 -28.310  0.00  0.00    +0.013 A 
BRANCH  18  19
ATOM     19  C   UNL     1     -75.990  -9.546 -26.597  0.00  0.00    +0.119 C 
BRANCH  19  20
ATOM     20  N   UNL     1     -77.317  -9.926 -27.168  0.00  0.00    -0.302 NA
ATOM     21  C   UNL     1     -77.325  -9.860 -28.698  0.00  0.00    +0.066 C 
ATOM     22  C   UNL     1     -78.714 -10.281 -29.279  0.00  0.00    -0.064 C 
ATOM     23  N   UNL     1     -79.803  -9.382 -28.693  0.00  0.00    +0.379 N 
ATOM     24  C   UNL     1     -81.102  -9.737 -29.281  0.00  0.00    -0.096 C 
ATOM     25  H   UNL     1     -79.572  -8.333 -28.992  0.00  0.00    -0.082 HD
ATOM     26  C   UNL     1     -79.801  -9.439 -27.172  0.00  0.00    -0.064 C 
ATOM     27  C   UNL     1     -78.407  -9.047 -26.606  0.00  0.00    +0.066 C 
ENDBRANCH  19  20
ENDBRANCH  18  19
ENDBRANCH  14  15
ENDBRANCH  12  13
TORSDOF 6
ENDMDL
MODEL 5
REMARK VINA RESULT:      -9.2     14.661     19.229
REMARK  Name = C:\Users\Docking\Desktop\test protocol\1iep_ligandH.pdb
REMARK  8 active torsions:
REMARK  status: ('A' for Active; 'I' for Inactive)
REMARK    1  A    between atoms: _5  and  _11
REMARK    2  A    between atoms: _19  and  _21
REMARK    3  A    between atoms: _22  and  _66
REMARK    4  A    between atoms: _27  and  _30
REMARK    5  A    between atoms: _32  and  _33
REMARK    6  A    between atoms: _38  and  _43
REMARK    7  A    between atoms: _43  and  _46
REMARK    8  A    between atoms: _53  and  _55
REMARK                            x       y       z     vdW  Elec       q    Type
REMARK                         _______ _______ _______ _____ _____    ______ ____
ROOT
ATOM     10  C   UNL     1     -76.567   7.394 -29.300  0.00  0.00    +0.038 A 
ATOM     11  C   UNL     1     -75.924   6.246 -29.829  0.00  0.00    +0.047 A 
ATOM     12  C   UNL     1     -74.782   5.646 -29.157  0.00  0.00    +0.035 A 
ATOM     32  C   UNL     1     -74.323   6.239 -27.945  0.00  0.00    +0.024 A 
ATOM     33  C   UNL     1     -74.964   7.407 -27.393  0.00  0.00    +0.007 A 
ATOM     34  C   UNL     1     -76.089   8.005 -28.053  0.00  0.00    -0.029 A 
ATOM     35  C   UNL     1     -76.733   9.260 -27.420  0.00  0.00    +0.045 C 
ENDROOT
BRANCH  10   9
ATOM      4  C   UNL     1     -81.287   7.970 -29.953  0.00  0.00    +0.077 A 
ATOM      5  C   UNL     1     -81.605   7.111 -28.849  0.00  0.00    +0.048 A 
ATOM      6  C   UNL     1     -80.524   6.535 -28.144  0.00  0.00    +0.116 A 
ATOM      7  N   UNL     1     -79.227   6.805 -28.523  0.00  0.00    -0.223 NA
ATOM      8  C   UNL     1     -78.956   7.637 -29.593  0.00  0.00    +0.220 A 
ATOM      9  N   UNL     1     -77.659   7.929 -29.986  0.00  0.00    -0.283 N 
ATOM     36  H   UNL     1     -77.500   8.542 -30.786  0.00  0.00    +0.155 HD
ATOM     37  N   UNL     1     -79.970   8.199 -30.284  0.00  0.00    -0.214 NA
BRANCH   4   3
ATOM      1  C   UNL     1     -83.033   9.972 -32.824  0.00  0.00    +0.020 A 
ATOM      2  C   UNL     1     -82.000   9.325 -32.050  0.00  0.00    +0.013 A 
ATOM      3  C   UNL     1     -82.318   8.656 -30.794  0.00  0.00    +0.019 A 
ATOM     38  C   UNL     1     -83.703   8.659 -30.348  0.00  0.00    +0.120 A 
ATOM     39  N   UNL     1     -84.677   9.292 -31.115  0.00  0.00    -0.263 NA
ATOM     40  C   UNL     1     -84.382   9.940 -32.323  0.00  0.00    +0.111 A 
ENDBRANCH   4   3
ENDBRANCH  10   9
BRANCH  12  13
ATOM     13  N   UNL     1     -74.085   4.485 -29.651  0.00  0.00    -0.281 N 
ATOM     14  C   UNL     1     -73.162   4.421 -30.683  0.00  0.00    +0.248 C 
ATOM     30  O   UNL     1     -72.955   5.322 -31.482  0.00  0.00    -0.270 OA
ATOM     31  H   UNL     1     -74.296   3.603 -29.184  0.00  0.00    +0.155 HD
BRANCH  14  15
ATOM     15  C   UNL     1     -72.364   3.170 -30.861  0.00  0.00    +0.037 A 
ATOM     16  C   UNL     1     -72.580   2.289 -32.012  0.00  0.00    +0.013 A 
ATOM     17  C   UNL     1     -71.808   1.079 -32.151  0.00  0.00    +0.005 A 
ATOM     18  C   UNL     1     -70.812   0.745 -31.136  0.00  0.00    -0.033 A 
ATOM     28  C   UNL     1     -70.615   1.639 -30.008  0.00  0.00    +0.005 A 
ATOM     29  C   UNL     1     -71.370   2.825 -29.868  0.00  0.00    +0.013 A 
BRANCH  18  19
ATOM     19  C   UNL     1     -69.958  -0.536 -31.193  0.00  0.00    +0.119 C 
BRANCH  19  20
ATOM     20  N   UNL     1     -70.627  -1.821 -30.830  0.00  0.00    -0.302 NA
ATOM     21  C   UNL     1     -71.228  -2.521 -32.052  0.00  0.00    +0.066 C 
ATOM     22  C   UNL     1     -71.905  -3.874 -31.657  0.00  0.00    -0.064 C 
ATOM     23  N   UNL     1     -72.978  -3.615 -30.599  0.00  0.00    +0.379 N 
ATOM     24  C   UNL     1     -73.656  -4.877 -30.268  0.00  0.00    -0.096 C 
ATOM     25  H   UNL     1     -73.736  -2.931 -31.047  0.00  0.00    -0.082 HD
ATOM     26  C   UNL     1     -72.390  -2.916 -29.381  0.00  0.00    -0.064 C 
ATOM     27  C   UNL     1     -71.694  -1.587 -29.789  0.00  0.00    +0.066 C 
ENDBRANCH  19  20
ENDBRANCH  18  19
ENDBRANCH  14  15
ENDBRANCH  12  13
TORSDOF 6
ENDMDL
