MODEL 1
REMARK VINA RESULT:      -8.3      0.000      0.000
REMARK  Name = C:\Users\Docking\Desktop\test protocol\1iep_ligandH.pdb
REMARK  8 active torsions:
REMARK  status: ('A' for Active; 'I' for Inactive)
REMARK    1  A    between atoms: _5  and  _11
REMARK    2  A    between atoms: _19  and  _21
REMARK    3  A    between atoms: _22  and  _66
REMARK    4  A    between atoms: _27  and  _30
REMARK    5  A    between atoms: _32  and  _33
REMARK    6  A    between atoms: _38  and  _43
REMARK    7  A    between atoms: _43  and  _46
REMARK    8  A    between atoms: _53  and  _55
REMARK                            x       y       z     vdW  Elec       q    Type
REMARK                         _______ _______ _______ _____ _____    ______ ____
ROOT
ATOM     10  C   UNL     1      -9.601 -18.005   4.228  0.00  0.00    +0.038 A 
ATOM     11  C   UNL     1     -10.956 -18.137   4.625  0.00  0.00    +0.047 A 
ATOM     12  C   UNL     1     -11.574 -19.447   4.768  0.00  0.00    +0.035 A 
ATOM     32  C   UNL     1     -10.780 -20.601   4.502  0.00  0.00    +0.024 A 
ATOM     33  C   UNL     1      -9.402 -20.484   4.096  0.00  0.00    +0.007 A 
ATOM     34  C   UNL     1      -8.788 -19.195   3.951  0.00  0.00    -0.029 A 
ATOM     35  C   UNL     1      -7.308 -19.130   3.507  0.00  0.00    +0.045 C 
ENDROOT
BRANCH  10   9
ATOM      4  C   UNL     1      -8.411 -14.140   1.642  0.00  0.00    +0.077 A 
ATOM      5  C   UNL     1      -8.885 -14.736   0.426  0.00  0.00    +0.048 A 
ATOM      6  C   UNL     1      -9.421 -16.040   0.507  0.00  0.00    +0.116 A 
ATOM      7  N   UNL     1      -9.475 -16.692   1.720  0.00  0.00    -0.223 NA
ATOM      8  C   UNL     1      -9.008 -16.090   2.874  0.00  0.00    +0.220 A 
ATOM      9  N   UNL     1      -9.059 -16.723   4.107  0.00  0.00    -0.283 N 
ATOM     36  H   UNL     1      -8.698 -16.248   4.933  0.00  0.00    +0.155 HD
ATOM     37  N   UNL     1      -8.490 -14.845   2.823  0.00  0.00    -0.214 NA
BRANCH   4   3
ATOM      1  C   UNL     1      -6.382 -10.898   0.823  0.00  0.00    +0.020 A 
ATOM      2  C   UNL     1      -6.924 -12.232   0.702  0.00  0.00    +0.013 A 
ATOM      3  C   UNL     1      -7.821 -12.767   1.719  0.00  0.00    +0.019 A 
ATOM     38  C   UNL     1      -8.152 -11.919   2.854  0.00  0.00    +0.120 A 
ATOM     39  N   UNL     1      -7.614 -10.640   2.945  0.00  0.00    -0.263 NA
ATOM     40  C   UNL     1      -6.748 -10.115   1.974  0.00  0.00    +0.111 A 
ENDBRANCH   4   3
ENDBRANCH  10   9
BRANCH  12  13
ATOM     13  N   UNL     1     -12.947 -19.643   5.160  0.00  0.00    -0.281 N 
ATOM     14  C   UNL     1     -13.466 -20.633   5.979  0.00  0.00    +0.248 C 
ATOM     30  O   UNL     1     -12.855 -21.632   6.329  0.00  0.00    -0.270 OA
ATOM     31  H   UNL     1     -13.619 -18.971   4.789  0.00  0.00    +0.155 HD
BRANCH  14  15
ATOM     15  C   UNL     1     -14.872 -20.502   6.468  0.00  0.00    +0.037 A 
ATOM     16  C   UNL     1     -15.907 -19.867   5.647  0.00  0.00    +0.013 A 
ATOM     17  C   UNL     1     -17.251 -19.738   6.150  0.00  0.00    +0.005 A 
ATOM     18  C   UNL     1     -17.570 -20.247   7.482  0.00  0.00    -0.033 A 
ATOM     28  C   UNL     1     -16.526 -20.877   8.273  0.00  0.00    +0.005 A 
ATOM     29  C   UNL     1     -15.206 -21.005   7.784  0.00  0.00    +0.013 A 
BRANCH  18  19
ATOM     19  C   UNL     1     -18.973 -20.134   8.107  0.00  0.00    +0.119 C 
BRANCH  19  20
ATOM     20  N   UNL     1     -19.755 -18.897   7.810  0.00  0.00    -0.302 NA
ATOM     21  C   UNL     1     -19.087 -17.643   8.382  0.00  0.00    +0.066 C 
ATOM     22  C   UNL     1     -19.908 -16.356   8.043  0.00  0.00    -0.064 C 
ATOM     23  N   UNL     1     -21.331 -16.505   8.583  0.00  0.00    +0.379 N 
ATOM     24  C   UNL     1     -22.088 -15.274   8.317  0.00  0.00    -0.096 C 
ATOM     25  H   UNL     1     -21.262 -16.628   9.689  0.00  0.00    -0.082 HD
ATOM     26  C   UNL     1     -22.002 -17.751   8.022  0.00  0.00    -0.064 C 
ATOM     27  C   UNL     1     -21.163 -19.021   8.339  0.00  0.00    +0.066 C 
ENDBRANCH  19  20
ENDBRANCH  18  19
ENDBRANCH  14  15
ENDBRANCH  12  13
TORSDOF 6
ENDMDL
MODEL 2
REMARK VINA RESULT:      -8.1      1.189      1.623
REMARK  Name = C:\Users\Docking\Desktop\test protocol\1iep_ligandH.pdb
REMARK  8 active torsions:
REMARK  status: ('A' for Active; 'I' for Inactive)
REMARK    1  A    between atoms: _5  and  _11
REMARK    2  A    between atoms: _19  and  _21
REMARK    3  A    between atoms: _22  and  _66
REMARK    4  A    between atoms: _27  and  _30
REMARK    5  A    between atoms: _32  and  _33
REMARK    6  A    between atoms: _38  and  _43
REMARK    7  A    between atoms: _43  and  _46
REMARK    8  A    between atoms: _53  and  _55
REMARK                            x       y       z     vdW  Elec       q    Type
REMARK                         _______ _______ _______ _____ _____    ______ ____
ROOT
ATOM     10  C   UNL     1      -9.569 -17.710   3.707  0.00  0.00    +0.038 A 
ATOM     11  C   UNL     1     -10.880 -17.749   4.247  0.00  0.00    +0.047 A 
ATOM     12  C   UNL     1     -11.648 -18.984   4.268  0.00  0.00    +0.035 A 
ATOM     32  C   UNL     1     -11.049 -20.162   3.733  0.00  0.00    +0.024 A 
ATOM     33  C   UNL     1      -9.718 -20.140   3.180  0.00  0.00    +0.007 A 
ATOM     34  C   UNL     1      -8.956 -18.924   3.154  0.00  0.00    -0.029 A 
ATOM     35  C   UNL     1      -7.536 -18.957   2.542  0.00  0.00    +0.045 C 
ENDROOT
BRANCH  10   9
ATOM      4  C   UNL     1      -8.095 -13.669   1.578  0.00  0.00    +0.077 A 
ATOM      5  C   UNL     1      -8.736 -14.016   0.342  0.00  0.00    +0.048 A 
ATOM      6  C   UNL     1      -9.429 -15.247   0.294  0.00  0.00    +0.116 A 
ATOM      7  N   UNL     1      -9.471 -16.061   1.405  0.00  0.00    -0.223 NA
ATOM      8  C   UNL     1      -8.840 -15.697   2.580  0.00  0.00    +0.220 A 
ATOM      9  N   UNL     1      -8.877 -16.497   3.712  0.00  0.00    -0.283 N 
ATOM     36  H   UNL     1      -8.393 -16.196   4.558  0.00  0.00    +0.155 HD
ATOM     37  N   UNL     1      -8.171 -14.528   2.651  0.00  0.00    -0.214 NA
BRANCH   4   3
ATOM      1  C   UNL     1      -6.571 -10.451   3.197  0.00  0.00    +0.020 A 
ATOM      2  C   UNL     1      -7.331 -11.671   3.047  0.00  0.00    +0.013 A 
ATOM      3  C   UNL     1      -7.327 -12.401   1.786  0.00  0.00    +0.019 A 
ATOM     38  C   UNL     1      -6.537 -11.866   0.687  0.00  0.00    +0.120 A 
ATOM     39  N   UNL     1      -5.817 -10.688   0.860  0.00  0.00    -0.263 NA
ATOM     40  C   UNL     1      -5.815  -9.976   2.068  0.00  0.00    +0.111 A 
ENDBRANCH   4   3
ENDBRANCH  10   9
BRANCH  12  13
ATOM     13  N   UNL     1     -12.986 -19.083   4.796  0.00  0.00    -0.281 N 
ATOM     14  C   UNL     1     -14.115 -19.583   4.167  0.00  0.00    +0.248 C 
ATOM     30  O   UNL     1     -14.190 -19.826   2.972  0.00  0.00    -0.270 OA
ATOM     31  H   UNL     1     -13.118 -18.743   5.749  0.00  0.00    +0.155 HD
BRANCH  14  15
ATOM     15  C   UNL     1     -15.343 -19.836   4.981  0.00  0.00    +0.037 A 
ATOM     16  C   UNL     1     -16.678 -19.549   4.451  0.00  0.00    +0.013 A 
ATOM     17  C   UNL     1     -17.845 -19.786   5.264  0.00  0.00    +0.005 A 
ATOM     18  C   UNL     1     -17.681 -20.316   6.615  0.00  0.00    -0.033 A 
ATOM     28  C   UNL     1     -16.345 -20.596   7.114  0.00  0.00    +0.005 A 
ATOM     29  C   UNL     1     -15.199 -20.364   6.321  0.00  0.00    +0.013 A 
BRANCH  18  19
ATOM     19  C   UNL     1     -18.868 -20.580   7.560  0.00  0.00    +0.119 C 
BRANCH  19  20
ATOM     20  N   UNL     1     -19.530 -19.391   8.176  0.00  0.00    -0.302 NA
ATOM     21  C   UNL     1     -20.811 -18.998   7.434  0.00  0.00    +0.066 C 
ATOM     22  C   UNL     1     -21.502 -17.766   8.105  0.00  0.00    -0.064 C 
ATOM     23  N   UNL     1     -20.520 -16.594   8.147  0.00  0.00    +0.379 N 
ATOM     24  C   UNL     1     -21.185 -15.417   8.724  0.00  0.00    -0.096 C 
ATOM     25  H   UNL     1     -20.244 -16.346   7.096  0.00  0.00    -0.082 HD
ATOM     26  C   UNL     1     -19.242 -16.977   8.881  0.00  0.00    -0.064 C 
ATOM     27  C   UNL     1     -18.579 -18.220   8.224  0.00  0.00    +0.066 C 
ENDBRANCH  19  20
ENDBRANCH  18  19
ENDBRANCH  14  15
ENDBRANCH  12  13
TORSDOF 6
ENDMDL
MODEL 3
REMARK VINA RESULT:      -8.1      2.232      3.082
REMARK  Name = C:\Users\Docking\Desktop\test protocol\1iep_ligandH.pdb
REMARK  8 active torsions:
REMARK  status: ('A' for Active; 'I' for Inactive)
REMARK    1  A    between atoms: _5  and  _11
REMARK    2  A    between atoms: _19  and  _21
REMARK    3  A    between atoms: _22  and  _66
REMARK    4  A    between atoms: _27  and  _30
REMARK    5  A    between atoms: _32  and  _33
REMARK    6  A    between atoms: _38  and  _43
REMARK    7  A    between atoms: _43  and  _46
REMARK    8  A    between atoms: _53  and  _55
REMARK                            x       y       z     vdW  Elec       q    Type
REMARK                         _______ _______ _______ _____ _____    ______ ____
ROOT
ATOM     10  C   UNL     1      -9.686 -17.963   4.183  0.00  0.00    +0.038 A 
ATOM     11  C   UNL     1     -11.025 -18.080   4.636  0.00  0.00    +0.047 A 
ATOM     12  C   UNL     1     -11.659 -19.381   4.780  0.00  0.00    +0.035 A 
ATOM     32  C   UNL     1     -10.899 -20.543   4.458  0.00  0.00    +0.024 A 
ATOM     33  C   UNL     1      -9.538 -20.442   3.995  0.00  0.00    +0.007 A 
ATOM     34  C   UNL     1      -8.907 -19.161   3.848  0.00  0.00    -0.029 A 
ATOM     35  C   UNL     1      -7.447 -19.113   3.342  0.00  0.00    +0.045 C 
ENDROOT
BRANCH  10   9
ATOM      4  C   UNL     1      -8.406 -14.130   1.593  0.00  0.00    +0.077 A 
ATOM      5  C   UNL     1      -8.866 -14.727   0.373  0.00  0.00    +0.048 A 
ATOM      6  C   UNL     1      -9.419 -16.025   0.453  0.00  0.00    +0.116 A 
ATOM      7  N   UNL     1      -9.501 -16.668   1.670  0.00  0.00    -0.223 NA
ATOM      8  C   UNL     1      -9.047 -16.064   2.828  0.00  0.00    +0.220 A 
ATOM      9  N   UNL     1      -9.127 -16.689   4.063  0.00  0.00    -0.283 N 
ATOM     36  H   UNL     1      -8.773 -16.213   4.892  0.00  0.00    +0.155 HD
ATOM     37  N   UNL     1      -8.513 -14.826   2.777  0.00  0.00    -0.214 NA
BRANCH   4   3
ATOM      1  C   UNL     1      -6.356 -10.903   0.768  0.00  0.00    +0.020 A 
ATOM      2  C   UNL     1      -6.914 -12.230   0.645  0.00  0.00    +0.013 A 
ATOM      3  C   UNL     1      -7.800 -12.763   1.671  0.00  0.00    +0.019 A 
ATOM     38  C   UNL     1      -8.105 -11.921   2.818  0.00  0.00    +0.120 A 
ATOM     39  N   UNL     1      -7.552 -10.648   2.911  0.00  0.00    -0.263 NA
ATOM     40  C   UNL     1      -6.696 -10.125   1.930  0.00  0.00    +0.111 A 
ENDBRANCH   4   3
ENDBRANCH  10   9
BRANCH  12  13
ATOM     13  N   UNL     1     -13.018 -19.561   5.228  0.00  0.00    -0.281 N 
ATOM     14  C   UNL     1     -14.120 -19.935   4.476  0.00  0.00    +0.248 C 
ATOM     30  O   UNL     1     -14.145 -19.964   3.254  0.00  0.00    -0.270 OA
ATOM     31  H   UNL     1     -13.189 -19.393   6.219  0.00  0.00    +0.155 HD
BRANCH  14  15
ATOM     15  C   UNL     1     -15.380 -20.318   5.182  0.00  0.00    +0.037 A 
ATOM     16  C   UNL     1     -16.245 -21.385   4.669  0.00  0.00    +0.013 A 
ATOM     17  C   UNL     1     -17.463 -21.723   5.361  0.00  0.00    +0.005 A 
ATOM     18  C   UNL     1     -17.824 -20.994   6.575  0.00  0.00    -0.033 A 
ATOM     28  C   UNL     1     -16.946 -19.944   7.064  0.00  0.00    +0.005 A 
ATOM     29  C   UNL     1     -15.751 -19.609   6.388  0.00  0.00    +0.013 A 
BRANCH  18  19
ATOM     19  C   UNL     1     -19.116 -21.273   7.365  0.00  0.00    +0.119 C 
BRANCH  19  20
ATOM     20  N   UNL     1     -18.967 -21.779   8.762  0.00  0.00    -0.302 NA
ATOM     21  C   UNL     1     -18.130 -23.060   8.823  0.00  0.00    +0.066 C 
ATOM     22  C   UNL     1     -17.965 -23.563  10.294  0.00  0.00    -0.064 C 
ATOM     23  N   UNL     1     -19.347 -23.790  10.910  0.00  0.00    +0.379 N 
ATOM     24  C   UNL     1     -19.195 -24.318  12.274  0.00  0.00    -0.096 C 
ATOM     25  H   UNL     1     -19.865 -24.567  10.302  0.00  0.00    -0.082 HD
ATOM     26  C   UNL     1     -20.187 -22.521  10.852  0.00  0.00    -0.064 C 
ATOM     27  C   UNL     1     -20.319 -22.014   9.389  0.00  0.00    +0.066 C 
ENDBRANCH  19  20
ENDBRANCH  18  19
ENDBRANCH  14  15
ENDBRANCH  12  13
TORSDOF 6
ENDMDL
MODEL 4
REMARK VINA RESULT:      -8.0      2.288     12.410
REMARK  Name = C:\Users\Docking\Desktop\test protocol\1iep_ligandH.pdb
REMARK  8 active torsions:
REMARK  status: ('A' for Active; 'I' for Inactive)
REMARK    1  A    between atoms: _5  and  _11
REMARK    2  A    between atoms: _19  and  _21
REMARK    3  A    between atoms: _22  and  _66
REMARK    4  A    between atoms: _27  and  _30
REMARK    5  A    between atoms: _32  and  _33
REMARK    6  A    between atoms: _38  and  _43
REMARK    7  A    between atoms: _43  and  _46
REMARK    8  A    between atoms: _53  and  _55
REMARK                            x       y       z     vdW  Elec       q    Type
REMARK                         _______ _______ _______ _____ _____    ______ ____
ROOT
ATOM     10  C   UNL     1     -19.803 -19.894   8.208  0.00  0.00    +0.038 A 
ATOM     11  C   UNL     1     -18.559 -19.816   7.532  0.00  0.00    +0.047 A 
ATOM     12  C   UNL     1     -17.361 -20.425   8.088  0.00  0.00    +0.035 A 
ATOM     32  C   UNL     1     -17.466 -21.109   9.335  0.00  0.00    +0.024 A 
ATOM     33  C   UNL     1     -18.723 -21.197  10.036  0.00  0.00    +0.007 A 
ATOM     34  C   UNL     1     -19.908 -20.596   9.494  0.00  0.00    -0.029 A 
ATOM     35  C   UNL     1     -21.226 -20.716  10.292  0.00  0.00    +0.045 C 
ENDROOT
BRANCH  10   9
ATOM      4  C   UNL     1     -22.614 -16.091   7.391  0.00  0.00    +0.077 A 
ATOM      5  C   UNL     1     -21.801 -15.239   8.210  0.00  0.00    +0.048 A 
ATOM      6  C   UNL     1     -20.672 -15.820   8.829  0.00  0.00    +0.116 A 
ATOM      7  N   UNL     1     -20.387 -17.155   8.637  0.00  0.00    -0.223 NA
ATOM      8  C   UNL     1     -21.193 -17.949   7.842  0.00  0.00    +0.220 A 
ATOM      9  N   UNL     1     -20.922 -19.291   7.629  0.00  0.00    -0.283 N 
ATOM     36  H   UNL     1     -21.545 -19.845   7.042  0.00  0.00    +0.155 HD
ATOM     37  N   UNL     1     -22.278 -17.418   7.241  0.00  0.00    -0.214 NA
BRANCH   4   3
ATOM      1  C   UNL     1     -26.115 -14.539   6.594  0.00  0.00    +0.020 A 
ATOM      2  C   UNL     1     -24.956 -14.973   7.340  0.00  0.00    +0.013 A 
ATOM      3  C   UNL     1     -23.839 -15.623   6.667  0.00  0.00    +0.019 A 
ATOM     38  C   UNL     1     -23.926 -15.821   5.228  0.00  0.00    +0.120 A 
ATOM     39  N   UNL     1     -25.055 -15.394   4.537  0.00  0.00    -0.263 NA
ATOM     40  C   UNL     1     -26.138 -14.769   5.173  0.00  0.00    +0.111 A 
ENDBRANCH   4   3
ENDBRANCH  10   9
BRANCH  12  13
ATOM     13  N   UNL     1     -16.068 -20.372   7.451  0.00  0.00    -0.281 N 
ATOM     14  C   UNL     1     -15.739 -20.748   6.159  0.00  0.00    +0.248 C 
ATOM     30  O   UNL     1     -16.469 -21.391   5.420  0.00  0.00    -0.270 OA
ATOM     31  H   UNL     1     -15.303 -20.013   8.022  0.00  0.00    +0.155 HD
BRANCH  14  15
ATOM     15  C   UNL     1     -14.401 -20.367   5.615  0.00  0.00    +0.037 A 
ATOM     16  C   UNL     1     -14.268 -19.724   4.304  0.00  0.00    +0.013 A 
ATOM     17  C   UNL     1     -12.963 -19.383   3.795  0.00  0.00    +0.005 A 
ATOM     18  C   UNL     1     -11.780 -19.682   4.599  0.00  0.00    -0.033 A 
ATOM     28  C   UNL     1     -11.941 -20.315   5.897  0.00  0.00    +0.005 A 
ATOM     29  C   UNL     1     -13.218 -20.652   6.399  0.00  0.00    +0.013 A 
BRANCH  18  19
ATOM     19  C   UNL     1     -10.348 -19.372   4.126  0.00  0.00    +0.119 C 
BRANCH  19  20
ATOM     20  N   UNL     1     -10.174 -18.240   3.167  0.00  0.00    -0.302 NA
ATOM     21  C   UNL     1      -8.756 -18.185   2.592  0.00  0.00    +0.066 C 
ATOM     22  C   UNL     1      -8.599 -17.009   1.575  0.00  0.00    -0.064 C 
ATOM     23  N   UNL     1      -8.954 -15.691   2.264  0.00  0.00    +0.379 N 
ATOM     24  C   UNL     1      -8.752 -14.577   1.327  0.00  0.00    -0.096 C 
ATOM     25  H   UNL     1      -8.246 -15.552   3.113  0.00  0.00    -0.082 HD
ATOM     26  C   UNL     1     -10.362 -15.737   2.841  0.00  0.00    -0.064 C 
ATOM     27  C   UNL     1     -10.516 -16.927   3.828  0.00  0.00    +0.066 C 
ENDBRANCH  19  20
ENDBRANCH  18  19
ENDBRANCH  14  15
ENDBRANCH  12  13
TORSDOF 6
ENDMDL
MODEL 5
REMARK VINA RESULT:      -7.9      2.149     11.947
REMARK  Name = C:\Users\Docking\Desktop\test protocol\1iep_ligandH.pdb
REMARK  8 active torsions:
REMARK  status: ('A' for Active; 'I' for Inactive)
REMARK    1  A    between atoms: _5  and  _11
REMARK    2  A    between atoms: _19  and  _21
REMARK    3  A    between atoms: _22  and  _66
REMARK    4  A    between atoms: _27  and  _30
REMARK    5  A    between atoms: _32  and  _33
REMARK    6  A    between atoms: _38  and  _43
REMARK    7  A    between atoms: _43  and  _46
REMARK    8  A    between atoms: _53  and  _55
REMARK                            x       y       z     vdW  Elec       q    Type
REMARK                         _______ _______ _______ _____ _____    ______ ____
ROOT
ATOM     10  C   UNL     1     -17.769 -20.733   8.039  0.00  0.00    +0.038 A 
ATOM     11  C   UNL     1     -16.525 -20.416   7.437  0.00  0.00    +0.047 A 
ATOM     12  C   UNL     1     -15.273 -20.909   7.991  0.00  0.00    +0.035 A 
ATOM     32  C   UNL     1     -15.326 -21.723   9.160  0.00  0.00    +0.024 A 
ATOM     33  C   UNL     1     -16.582 -22.053   9.786  0.00  0.00    +0.007 A 
ATOM     34  C   UNL     1     -17.820 -21.569   9.245  0.00  0.00    -0.029 A 
ATOM     35  C   UNL     1     -19.136 -21.949   9.961  0.00  0.00    +0.045 C 
ENDROOT
BRANCH  10   9
ATOM      4  C   UNL     1     -20.951 -17.219   7.290  0.00  0.00    +0.077 A 
ATOM      5  C   UNL     1     -20.235 -16.309   8.137  0.00  0.00    +0.048 A 
ATOM      6  C   UNL     1     -19.056 -16.787   8.752  0.00  0.00    +0.116 A 
ATOM      7  N   UNL     1     -18.634 -18.080   8.530  0.00  0.00    -0.223 NA
ATOM      8  C   UNL     1     -19.350 -18.932   7.709  0.00  0.00    +0.220 A 
ATOM      9  N   UNL     1     -18.940 -20.233   7.465  0.00  0.00    -0.283 N 
ATOM     36  H   UNL     1     -19.499 -20.833   6.858  0.00  0.00    +0.155 HD
ATOM     37  N   UNL     1     -20.479 -18.500   7.111  0.00  0.00    -0.214 NA
BRANCH   4   3
ATOM      1  C   UNL     1     -24.660 -16.254   6.508  0.00  0.00    +0.020 A 
ATOM      2  C   UNL     1     -23.471 -16.596   7.253  0.00  0.00    +0.013 A 
ATOM      3  C   UNL     1     -22.213 -16.861   6.567  0.00  0.00    +0.019 A 
ATOM     38  C   UNL     1     -22.191 -16.769   5.115  0.00  0.00    +0.120 A 
ATOM     39  N   UNL     1     -23.353 -16.439   4.424  0.00  0.00    -0.263 NA
ATOM     40  C   UNL     1     -24.570 -16.184   5.073  0.00  0.00    +0.111 A 
ENDBRANCH   4   3
ENDBRANCH  10   9
BRANCH  12  13
ATOM     13  N   UNL     1     -13.979 -20.614   7.427  0.00  0.00    -0.281 N 
ATOM     14  C   UNL     1     -13.253 -21.369   6.522  0.00  0.00    +0.248 C 
ATOM     30  O   UNL     1     -13.513 -22.525   6.220  0.00  0.00    -0.270 OA
ATOM     31  H   UNL     1     -13.546 -19.742   7.733  0.00  0.00    +0.155 HD
BRANCH  14  15
ATOM     15  C   UNL     1     -12.056 -20.758   5.867  0.00  0.00    +0.037 A 
ATOM     16  C   UNL     1     -10.721 -21.340   6.028  0.00  0.00    +0.013 A 
ATOM     17  C   UNL     1      -9.581 -20.721   5.400  0.00  0.00    +0.005 A 
ATOM     18  C   UNL     1      -9.773 -19.511   4.603  0.00  0.00    -0.033 A 
ATOM     28  C   UNL     1     -11.108 -18.958   4.455  0.00  0.00    +0.005 A 
ATOM     29  C   UNL     1     -12.228 -19.562   5.070  0.00  0.00    +0.013 A 
BRANCH  18  19
ATOM     19  C   UNL     1      -8.610 -18.772   3.914  0.00  0.00    +0.119 C 
BRANCH  19  20
ATOM     20  N   UNL     1      -8.959 -17.832   2.807  0.00  0.00    -0.302 NA
ATOM     21  C   UNL     1      -7.930 -17.873   1.673  0.00  0.00    +0.066 C 
ATOM     22  C   UNL     1      -8.322 -16.901   0.513  0.00  0.00    -0.064 C 
ATOM     23  N   UNL     1      -8.461 -15.482   1.066  0.00  0.00    +0.379 N 
ATOM     24  C   UNL     1      -8.773 -14.556  -0.032  0.00  0.00    -0.096 C 
ATOM     25  H   UNL     1      -7.474 -15.185   1.489  0.00  0.00    -0.082 HD
ATOM     26  C   UNL     1      -9.481 -15.432   2.196  0.00  0.00    -0.064 C 
ATOM     27  C   UNL     1      -9.098 -16.424   3.330  0.00  0.00    +0.066 C 
ENDBRANCH  19  20
ENDBRANCH  18  19
ENDBRANCH  14  15
ENDBRANCH  12  13
TORSDOF 6
ENDMDL
