MODEL 1
REMARK VINA RESULT:      -7.7      0.000      0.000
REMARK  Name = C:\Users\Docking\Desktop\test protocol\1iep_ligandH.pdb
REMARK  8 active torsions:
REMARK  status: ('A' for Active; 'I' for Inactive)
REMARK    1  A    between atoms: _5  and  _11
REMARK    2  A    between atoms: _19  and  _21
REMARK    3  A    between atoms: _22  and  _66
REMARK    4  A    between atoms: _27  and  _30
REMARK    5  A    between atoms: _32  and  _33
REMARK    6  A    between atoms: _38  and  _43
REMARK    7  A    between atoms: _43  and  _46
REMARK    8  A    between atoms: _53  and  _55
REMARK                            x       y       z     vdW  Elec       q    Type
REMARK                         _______ _______ _______ _____ _____    ______ ____
ROOT
ATOM     10  C   UNL     1     -27.131  11.527  26.860  0.00  0.00    +0.038 A 
ATOM     11  C   UNL     1     -27.174  12.762  26.164  0.00  0.00    +0.047 A 
ATOM     12  C   UNL     1     -25.958  13.506  25.875  0.00  0.00    +0.035 A 
ATOM     32  C   UNL     1     -24.714  12.961  26.308  0.00  0.00    +0.024 A 
ATOM     33  C   UNL     1     -24.652  11.707  27.017  0.00  0.00    +0.007 A 
ATOM     34  C   UNL     1     -25.848  10.970  27.307  0.00  0.00    -0.029 A 
ATOM     35  C   UNL     1     -25.722   9.635  28.077  0.00  0.00    +0.045 C 
ENDROOT
BRANCH  10   9
ATOM      4  C   UNL     1     -31.150  10.842  29.393  0.00  0.00    +0.077 A 
ATOM      5  C   UNL     1     -30.822  11.895  30.310  0.00  0.00    +0.048 A 
ATOM      6  C   UNL     1     -29.606  12.584  30.100  0.00  0.00    +0.116 A 
ATOM      7  N   UNL     1     -28.788  12.237  29.047  0.00  0.00    -0.223 NA
ATOM      8  C   UNL     1     -29.133  11.215  28.181  0.00  0.00    +0.220 A 
ATOM      9  N   UNL     1     -28.329  10.855  27.111  0.00  0.00    -0.283 N 
ATOM     36  H   UNL     1     -28.616  10.091  26.499  0.00  0.00    +0.155 HD
ATOM     37  N   UNL     1     -30.288  10.542  28.362  0.00  0.00    -0.214 NA
BRANCH   4   3
ATOM      1  C   UNL     1     -34.674   9.318  28.645  0.00  0.00    +0.020 A 
ATOM      2  C   UNL     1     -33.487  10.131  28.514  0.00  0.00    +0.013 A 
ATOM      3  C   UNL     1     -32.401  10.025  29.481  0.00  0.00    +0.019 A 
ATOM     38  C   UNL     1     -32.549   9.079  30.577  0.00  0.00    +0.120 A 
ATOM     39  N   UNL     1     -33.705   8.310  30.678  0.00  0.00    -0.263 NA
ATOM     40  C   UNL     1     -34.757   8.405  29.755  0.00  0.00    +0.111 A 
ENDBRANCH   4   3
ENDBRANCH  10   9
BRANCH  12  13
ATOM     13  N   UNL     1     -25.940  14.769  25.180  0.00  0.00    -0.281 N 
ATOM     14  C   UNL     1     -25.663  16.023  25.698  0.00  0.00    +0.248 C 
ATOM     30  O   UNL     1     -25.596  16.278  26.892  0.00  0.00    -0.270 OA
ATOM     31  H   UNL     1     -26.159  14.734  24.184  0.00  0.00    +0.155 HD
BRANCH  14  15
ATOM     15  C   UNL     1     -25.442  17.162  24.756  0.00  0.00    +0.037 A 
ATOM     16  C   UNL     1     -24.111  17.744  24.565  0.00  0.00    +0.013 A 
ATOM     17  C   UNL     1     -23.929  18.852  23.662  0.00  0.00    +0.005 A 
ATOM     18  C   UNL     1     -25.082  19.386  22.941  0.00  0.00    -0.033 A 
ATOM     28  C   UNL     1     -26.390  18.786  23.145  0.00  0.00    +0.005 A 
ATOM     29  C   UNL     1     -26.573  17.700  24.030  0.00  0.00    +0.013 A 
BRANCH  18  19
ATOM     19  C   UNL     1     -24.984  20.581  21.974  0.00  0.00    +0.119 C 
BRANCH  19  20
ATOM     20  N   UNL     1     -24.959  20.277  20.512  0.00  0.00    -0.302 NA
ATOM     21  C   UNL     1     -23.629  19.653  20.078  0.00  0.00    +0.066 C 
ATOM     22  C   UNL     1     -23.628  19.320  18.551  0.00  0.00    -0.064 C 
ATOM     23  N   UNL     1     -23.914  20.595  17.754  0.00  0.00    +0.379 N 
ATOM     24  C   UNL     1     -23.857  20.297  16.316  0.00  0.00    -0.096 C 
ATOM     25  H   UNL     1     -23.103  21.325  17.982  0.00  0.00    -0.082 HD
ATOM     26  C   UNL     1     -25.233  21.223  18.181  0.00  0.00    -0.064 C 
ATOM     27  C   UNL     1     -25.235  21.522  19.707  0.00  0.00    +0.066 C 
ENDBRANCH  19  20
ENDBRANCH  18  19
ENDBRANCH  14  15
ENDBRANCH  12  13
TORSDOF 6
ENDMDL
MODEL 2
REMARK VINA RESULT:      -7.7     19.779     21.794
REMARK  Name = C:\Users\Docking\Desktop\test protocol\1iep_ligandH.pdb
REMARK  8 active torsions:
REMARK  status: ('A' for Active; 'I' for Inactive)
REMARK    1  A    between atoms: _5  and  _11
REMARK    2  A    between atoms: _19  and  _21
REMARK    3  A    between atoms: _22  and  _66
REMARK    4  A    between atoms: _27  and  _30
REMARK    5  A    between atoms: _32  and  _33
REMARK    6  A    between atoms: _38  and  _43
REMARK    7  A    between atoms: _43  and  _46
REMARK    8  A    between atoms: _53  and  _55
REMARK                            x       y       z     vdW  Elec       q    Type
REMARK                         _______ _______ _______ _____ _____    ______ ____
ROOT
ATOM     10  C   UNL     1     -21.462   4.347   7.210  0.00  0.00    +0.038 A 
ATOM     11  C   UNL     1     -22.297   5.493   7.164  0.00  0.00    +0.047 A 
ATOM     12  C   UNL     1     -23.188   5.730   6.039  0.00  0.00    +0.035 A 
ATOM     32  C   UNL     1     -23.206   4.778   4.979  0.00  0.00    +0.024 A 
ATOM     33  C   UNL     1     -22.364   3.608   5.008  0.00  0.00    +0.007 A 
ATOM     34  C   UNL     1     -21.480   3.370   6.114  0.00  0.00    -0.029 A 
ATOM     35  C   UNL     1     -20.595   2.103   6.090  0.00  0.00    +0.045 C 
ENDROOT
BRANCH  10   9
ATOM      4  C   UNL     1     -17.362   5.120   9.582  0.00  0.00    +0.077 A 
ATOM      5  C   UNL     1     -16.831   5.925   8.520  0.00  0.00    +0.048 A 
ATOM      6  C   UNL     1     -17.641   6.110   7.378  0.00  0.00    +0.116 A 
ATOM      7  N   UNL     1     -18.889   5.528   7.313  0.00  0.00    -0.223 NA
ATOM      8  C   UNL     1     -19.371   4.757   8.354  0.00  0.00    +0.220 A 
ATOM      9  N   UNL     1     -20.626   4.169   8.314  0.00  0.00    -0.283 N 
ATOM     36  H   UNL     1     -20.942   3.601   9.099  0.00  0.00    +0.155 HD
ATOM     37  N   UNL     1     -18.615   4.564   9.456  0.00  0.00    -0.214 NA
BRANCH   4   3
ATOM      1  C   UNL     1     -15.666   3.263  12.578  0.00  0.00    +0.020 A 
ATOM      2  C   UNL     1     -16.381   3.484  11.342  0.00  0.00    +0.013 A 
ATOM      3  C   UNL     1     -16.627   4.835  10.855  0.00  0.00    +0.019 A 
ATOM     38  C   UNL     1     -16.132   5.950  11.648  0.00  0.00    +0.120 A 
ATOM     39  N   UNL     1     -15.447   5.708  12.834  0.00  0.00    -0.263 NA
ATOM     40  C   UNL     1     -15.206   4.412  13.314  0.00  0.00    +0.111 A 
ENDBRANCH   4   3
ENDBRANCH  10   9
BRANCH  12  13
ATOM     13  N   UNL     1     -24.053   6.880   5.934  0.00  0.00    -0.281 N 
ATOM     14  C   UNL     1     -25.289   7.073   6.529  0.00  0.00    +0.248 C 
ATOM     30  O   UNL     1     -25.939   6.193   7.073  0.00  0.00    -0.270 OA
ATOM     31  H   UNL     1     -23.712   7.644   5.351  0.00  0.00    +0.155 HD
BRANCH  14  15
ATOM     15  C   UNL     1     -25.898   8.437   6.502  0.00  0.00    +0.037 A 
ATOM     16  C   UNL     1     -27.099   8.749   7.280  0.00  0.00    +0.013 A 
ATOM     17  C   UNL     1     -27.676  10.069   7.223  0.00  0.00    +0.005 A 
ATOM     18  C   UNL     1     -27.050  11.088   6.385  0.00  0.00    -0.033 A 
ATOM     28  C   UNL     1     -25.855  10.754   5.628  0.00  0.00    +0.005 A 
ATOM     29  C   UNL     1     -25.288   9.461   5.680  0.00  0.00    +0.013 A 
BRANCH  18  19
ATOM     19  C   UNL     1     -27.609  12.517   6.248  0.00  0.00    +0.119 C 
BRANCH  19  20
ATOM     20  N   UNL     1     -28.733  12.722   5.286  0.00  0.00    -0.302 NA
ATOM     21  C   UNL     1     -28.320  13.591   4.096  0.00  0.00    +0.066 C 
ATOM     22  C   UNL     1     -29.501  13.777   3.089  0.00  0.00    -0.064 C 
ATOM     23  N   UNL     1     -30.698  14.390   3.818  0.00  0.00    +0.379 N 
ATOM     24  C   UNL     1     -31.790  14.619   2.861  0.00  0.00    -0.096 C 
ATOM     25  H   UNL     1     -30.380  15.383   4.213  0.00  0.00    -0.082 HD
ATOM     26  C   UNL     1     -31.114  13.533   5.005  0.00  0.00    -0.064 C 
ATOM     27  C   UNL     1     -29.924  13.331   5.985  0.00  0.00    +0.066 C 
ENDBRANCH  19  20
ENDBRANCH  18  19
ENDBRANCH  14  15
ENDBRANCH  12  13
TORSDOF 6
ENDMDL
MODEL 3
REMARK VINA RESULT:      -7.5      3.148      4.797
REMARK  Name = C:\Users\Docking\Desktop\test protocol\1iep_ligandH.pdb
REMARK  8 active torsions:
REMARK  status: ('A' for Active; 'I' for Inactive)
REMARK    1  A    between atoms: _5  and  _11
REMARK    2  A    between atoms: _19  and  _21
REMARK    3  A    between atoms: _22  and  _66
REMARK    4  A    between atoms: _27  and  _30
REMARK    5  A    between atoms: _32  and  _33
REMARK    6  A    between atoms: _38  and  _43
REMARK    7  A    between atoms: _43  and  _46
REMARK    8  A    between atoms: _53  and  _55
REMARK                            x       y       z     vdW  Elec       q    Type
REMARK                         _______ _______ _______ _____ _____    ______ ____
ROOT
ATOM     10  C   UNL     1     -27.477  13.457  27.579  0.00  0.00    +0.038 A 
ATOM     11  C   UNL     1     -26.992  14.336  26.578  0.00  0.00    +0.047 A 
ATOM     12  C   UNL     1     -27.021  15.778  26.764  0.00  0.00    +0.035 A 
ATOM     32  C   UNL     1     -27.548  16.291  27.985  0.00  0.00    +0.024 A 
ATOM     33  C   UNL     1     -28.046  15.412  29.013  0.00  0.00    +0.007 A 
ATOM     34  C   UNL     1     -28.023  13.988  28.834  0.00  0.00    -0.029 A 
ATOM     35  C   UNL     1     -28.576  13.094  29.968  0.00  0.00    +0.045 C 
ENDROOT
BRANCH  10   9
ATOM      4  C   UNL     1     -25.261   9.206  27.813  0.00  0.00    +0.077 A 
ATOM      5  C   UNL     1     -24.097   9.780  28.424  0.00  0.00    +0.048 A 
ATOM      6  C   UNL     1     -24.105  11.173  28.655  0.00  0.00    +0.116 A 
ATOM      7  N   UNL     1     -25.202  11.927  28.297  0.00  0.00    -0.223 NA
ATOM      8  C   UNL     1     -26.308  11.343  27.708  0.00  0.00    +0.220 A 
ATOM      9  N   UNL     1     -27.425  12.080  27.348  0.00  0.00    -0.283 N 
ATOM     36  H   UNL     1     -28.218  11.613  26.908  0.00  0.00    +0.155 HD
ATOM     37  N   UNL     1     -26.323  10.014  27.476  0.00  0.00    -0.214 NA
BRANCH   4   3
ATOM      1  C   UNL     1     -24.472   5.502  26.834  0.00  0.00    +0.020 A 
ATOM      2  C   UNL     1     -24.280   6.905  27.117  0.00  0.00    +0.013 A 
ATOM      3  C   UNL     1     -25.404   7.747  27.508  0.00  0.00    +0.019 A 
ATOM     38  C   UNL     1     -26.719   7.132  27.605  0.00  0.00    +0.120 A 
ATOM     39  N   UNL     1     -26.874   5.778  27.325  0.00  0.00    -0.263 NA
ATOM     40  C   UNL     1     -25.800   4.959  26.945  0.00  0.00    +0.111 A 
ENDBRANCH   4   3
ENDBRANCH  10   9
BRANCH  12  13
ATOM     13  N   UNL     1     -26.550  16.720  25.779  0.00  0.00    -0.281 N 
ATOM     14  C   UNL     1     -25.240  17.004  25.430  0.00  0.00    +0.248 C 
ATOM     30  O   UNL     1     -24.261  16.642  26.066  0.00  0.00    -0.270 OA
ATOM     31  H   UNL     1     -27.270  17.241  25.278  0.00  0.00    +0.155 HD
BRANCH  14  15
ATOM     15  C   UNL     1     -24.980  17.820  24.205  0.00  0.00    +0.037 A 
ATOM     16  C   UNL     1     -26.080  18.400  23.430  0.00  0.00    +0.013 A 
ATOM     17  C   UNL     1     -25.802  19.168  22.243  0.00  0.00    +0.005 A 
ATOM     18  C   UNL     1     -24.416  19.362  21.823  0.00  0.00    -0.033 A 
ATOM     28  C   UNL     1     -23.343  18.780  22.613  0.00  0.00    +0.005 A 
ATOM     29  C   UNL     1     -23.612  18.025  23.777  0.00  0.00    +0.013 A 
BRANCH  18  19
ATOM     19  C   UNL     1     -24.027  20.149  20.558  0.00  0.00    +0.119 C 
BRANCH  19  20
ATOM     20  N   UNL     1     -23.496  19.367  19.402  0.00  0.00    -0.302 NA
ATOM     21  C   UNL     1     -21.965  19.350  19.375  0.00  0.00    +0.066 C 
ATOM     22  C   UNL     1     -21.426  18.509  18.172  0.00  0.00    -0.064 C 
ATOM     23  N   UNL     1     -21.985  19.076  16.866  0.00  0.00    +0.379 N 
ATOM     24  C   UNL     1     -21.434  18.323  15.729  0.00  0.00    -0.096 C 
ATOM     25  H   UNL     1     -21.632  20.130  16.777  0.00  0.00    -0.082 HD
ATOM     26  C   UNL     1     -23.507  19.099  16.886  0.00  0.00    -0.064 C 
ATOM     27  C   UNL     1     -24.031  19.913  18.101  0.00  0.00    +0.066 C 
ENDBRANCH  19  20
ENDBRANCH  18  19
ENDBRANCH  14  15
ENDBRANCH  12  13
TORSDOF 6
ENDMDL
MODEL 4
REMARK VINA RESULT:      -7.5      3.190      4.883
REMARK  Name = C:\Users\Docking\Desktop\test protocol\1iep_ligandH.pdb
REMARK  8 active torsions:
REMARK  status: ('A' for Active; 'I' for Inactive)
REMARK    1  A    between atoms: _5  and  _11
REMARK    2  A    between atoms: _19  and  _21
REMARK    3  A    between atoms: _22  and  _66
REMARK    4  A    between atoms: _27  and  _30
REMARK    5  A    between atoms: _32  and  _33
REMARK    6  A    between atoms: _38  and  _43
REMARK    7  A    between atoms: _43  and  _46
REMARK    8  A    between atoms: _53  and  _55
REMARK                            x       y       z     vdW  Elec       q    Type
REMARK                         _______ _______ _______ _____ _____    ______ ____
ROOT
ATOM     10  C   UNL     1     -27.458  13.511  27.594  0.00  0.00    +0.038 A 
ATOM     11  C   UNL     1     -26.997  14.380  26.572  0.00  0.00    +0.047 A 
ATOM     12  C   UNL     1     -27.015  15.824  26.746  0.00  0.00    +0.035 A 
ATOM     32  C   UNL     1     -27.508  16.350  27.975  0.00  0.00    +0.024 A 
ATOM     33  C   UNL     1     -27.981  15.482  29.025  0.00  0.00    +0.007 A 
ATOM     34  C   UNL     1     -27.968  14.057  28.858  0.00  0.00    -0.029 A 
ATOM     35  C   UNL     1     -28.494  13.175  30.014  0.00  0.00    +0.045 C 
ENDROOT
BRANCH  10   9
ATOM      4  C   UNL     1     -25.229   9.264  27.746  0.00  0.00    +0.077 A 
ATOM      5  C   UNL     1     -24.033   9.844  28.286  0.00  0.00    +0.048 A 
ATOM      6  C   UNL     1     -24.030  11.240  28.503  0.00  0.00    +0.116 A 
ATOM      7  N   UNL     1     -25.146  11.990  28.199  0.00  0.00    -0.223 NA
ATOM      8  C   UNL     1     -26.282  11.399  27.679  0.00  0.00    +0.220 A 
ATOM      9  N   UNL     1     -27.418  12.133  27.373  0.00  0.00    -0.283 N 
ATOM     36  H   UNL     1     -28.234  11.661  26.984  0.00  0.00    +0.155 HD
ATOM     37  N   UNL     1     -26.310  10.068  27.461  0.00  0.00    -0.214 NA
BRANCH   4   3
ATOM      1  C   UNL     1     -24.469   5.522  26.898  0.00  0.00    +0.020 A 
ATOM      2  C   UNL     1     -24.262   6.927  27.162  0.00  0.00    +0.013 A 
ATOM      3  C   UNL     1     -25.387   7.802  27.464  0.00  0.00    +0.019 A 
ATOM     38  C   UNL     1     -26.720   7.219  27.492  0.00  0.00    +0.120 A 
ATOM     39  N   UNL     1     -26.890   5.863  27.232  0.00  0.00    -0.263 NA
ATOM     40  C   UNL     1     -25.814   5.011  26.938  0.00  0.00    +0.111 A 
ENDBRANCH   4   3
ENDBRANCH  10   9
BRANCH  12  13
ATOM     13  N   UNL     1     -26.568  16.755  25.740  0.00  0.00    -0.281 N 
ATOM     14  C   UNL     1     -25.265  17.081  25.401  0.00  0.00    +0.248 C 
ATOM     30  O   UNL     1     -24.282  16.779  26.062  0.00  0.00    -0.270 OA
ATOM     31  H   UNL     1     -27.301  17.231  25.213  0.00  0.00    +0.155 HD
BRANCH  14  15
ATOM     15  C   UNL     1     -25.019  17.871  24.156  0.00  0.00    +0.037 A 
ATOM     16  C   UNL     1     -26.126  18.456  23.396  0.00  0.00    +0.013 A 
ATOM     17  C   UNL     1     -25.862  19.198  22.189  0.00  0.00    +0.005 A 
ATOM     18  C   UNL     1     -24.483  19.361  21.735  0.00  0.00    -0.033 A 
ATOM     28  C   UNL     1     -23.403  18.774  22.511  0.00  0.00    +0.005 A 
ATOM     29  C   UNL     1     -23.658  18.045  23.694  0.00  0.00    +0.013 A 
BRANCH  18  19
ATOM     19  C   UNL     1     -24.109  20.119  20.448  0.00  0.00    +0.119 C 
BRANCH  19  20
ATOM     20  N   UNL     1     -25.161  20.985  19.835  0.00  0.00    -0.302 NA
ATOM     21  C   UNL     1     -25.042  21.041  18.309  0.00  0.00    +0.066 C 
ATOM     22  C   UNL     1     -26.163  21.933  17.683  0.00  0.00    -0.064 C 
ATOM     23  N   UNL     1     -26.088  23.338  18.284  0.00  0.00    +0.379 N 
ATOM     24  C   UNL     1     -27.103  24.195  17.656  0.00  0.00    -0.096 C 
ATOM     25  H   UNL     1     -25.087  23.759  18.034  0.00  0.00    -0.082 HD
ATOM     26  C   UNL     1     -26.203  23.291  19.801  0.00  0.00    -0.064 C 
ATOM     27  C   UNL     1     -25.102  22.378  20.411  0.00  0.00    +0.066 C 
ENDBRANCH  19  20
ENDBRANCH  18  19
ENDBRANCH  14  15
ENDBRANCH  12  13
TORSDOF 6
ENDMDL
MODEL 5
REMARK VINA RESULT:      -7.4     19.737     24.034
REMARK  Name = C:\Users\Docking\Desktop\test protocol\1iep_ligandH.pdb
REMARK  8 active torsions:
REMARK  status: ('A' for Active; 'I' for Inactive)
REMARK    1  A    between atoms: _5  and  _11
REMARK    2  A    between atoms: _19  and  _21
REMARK    3  A    between atoms: _22  and  _66
REMARK    4  A    between atoms: _27  and  _30
REMARK    5  A    between atoms: _32  and  _33
REMARK    6  A    between atoms: _38  and  _43
REMARK    7  A    between atoms: _43  and  _46
REMARK    8  A    between atoms: _53  and  _55
REMARK                            x       y       z     vdW  Elec       q    Type
REMARK                         _______ _______ _______ _____ _____    ______ ____
ROOT
ATOM     10  C   UNL     1     -23.339  -5.981  17.354  0.00  0.00    +0.038 A 
ATOM     11  C   UNL     1     -24.687  -5.652  17.646  0.00  0.00    +0.047 A 
ATOM     12  C   UNL     1     -25.068  -5.118  18.944  0.00  0.00    +0.035 A 
ATOM     32  C   UNL     1     -24.048  -4.929  19.922  0.00  0.00    +0.024 A 
ATOM     33  C   UNL     1     -22.673  -5.259  19.643  0.00  0.00    +0.007 A 
ATOM     34  C   UNL     1     -22.292  -5.789  18.365  0.00  0.00    -0.029 A 
ATOM     35  C   UNL     1     -20.803  -6.131  18.124  0.00  0.00    +0.045 C 
ENDROOT
BRANCH  10   9
ATOM      4  C   UNL     1     -23.259  -9.532  14.126  0.00  0.00    +0.077 A 
ATOM      5  C   UNL     1     -23.860 -10.458  15.042  0.00  0.00    +0.048 A 
ATOM      6  C   UNL     1     -24.168  -9.983  16.337  0.00  0.00    +0.116 A 
ATOM      7  N   UNL     1     -23.891  -8.677  16.679  0.00  0.00    -0.223 NA
ATOM      8  C   UNL     1     -23.310  -7.810  15.772  0.00  0.00    +0.220 A 
ATOM      9  N   UNL     1     -23.030  -6.490  16.091  0.00  0.00    -0.283 N 
ATOM     36  H   UNL     1     -22.594  -5.885  15.396  0.00  0.00    +0.155 HD
ATOM     37  N   UNL     1     -23.005  -8.240  14.529  0.00  0.00    -0.214 NA
BRANCH   4   3
ATOM      1  C   UNL     1     -21.709  -9.411  10.537  0.00  0.00    +0.020 A 
ATOM      2  C   UNL     1     -22.048  -9.025  11.887  0.00  0.00    +0.013 A 
ATOM      3  C   UNL     1     -22.880  -9.883  12.721  0.00  0.00    +0.019 A 
ATOM     38  C   UNL     1     -23.356 -11.136  12.154  0.00  0.00    +0.120 A 
ATOM     39  N   UNL     1     -23.015 -11.480  10.850  0.00  0.00    -0.263 NA
ATOM     40  C   UNL     1     -22.217 -10.662  10.038  0.00  0.00    +0.111 A 
ENDBRANCH   4   3
ENDBRANCH  10   9
BRANCH  12  13
ATOM     13  N   UNL     1     -26.422  -4.773  19.300  0.00  0.00    -0.281 N 
ATOM     14  C   UNL     1     -27.134  -3.640  18.944  0.00  0.00    +0.248 C 
ATOM     30  O   UNL     1     -26.639  -2.643  18.438  0.00  0.00    -0.270 OA
ATOM     31  H   UNL     1     -26.915  -5.447  19.886  0.00  0.00    +0.155 HD
BRANCH  14  15
ATOM     15  C   UNL     1     -28.606  -3.601  19.200  0.00  0.00    +0.037 A 
ATOM     16  C   UNL     1     -29.139  -3.284  20.527  0.00  0.00    +0.013 A 
ATOM     17  C   UNL     1     -30.563  -3.271  20.751  0.00  0.00    +0.005 A 
ATOM     18  C   UNL     1     -31.464  -3.575  19.642  0.00  0.00    -0.033 A 
ATOM     28  C   UNL     1     -30.909  -3.881  18.334  0.00  0.00    +0.005 A 
ATOM     29  C   UNL     1     -29.514  -3.896  18.112  0.00  0.00    +0.013 A 
BRANCH  18  19
ATOM     19  C   UNL     1     -32.997  -3.604  19.795  0.00  0.00    +0.119 C 
BRANCH  19  20
ATOM     20  N   UNL     1     -33.732  -2.326  19.558  0.00  0.00    -0.302 NA
ATOM     21  C   UNL     1     -34.753  -2.038  20.663  0.00  0.00    +0.066 C 
ATOM     22  C   UNL     1     -35.497  -0.687  20.411  0.00  0.00    -0.064 C 
ATOM     23  N   UNL     1     -36.178  -0.730  19.042  0.00  0.00    +0.379 N 
ATOM     24  C   UNL     1     -36.927   0.517  18.827  0.00  0.00    -0.096 C 
ATOM     25  H   UNL     1     -36.913  -1.568  19.057  0.00  0.00    -0.082 HD
ATOM     26  C   UNL     1     -35.171  -1.018  17.938  0.00  0.00    -0.064 C 
ATOM     27  C   UNL     1     -34.416  -2.349  18.213  0.00  0.00    +0.066 C 
ENDBRANCH  19  20
ENDBRANCH  18  19
ENDBRANCH  14  15
ENDBRANCH  12  13
TORSDOF 6
ENDMDL
