MODEL 1
REMARK VINA RESULT:      -7.7      0.000      0.000
REMARK  Name = C:\Users\Docking\Desktop\test protocol\1iep_ligandH.pdb
REMARK  8 active torsions:
REMARK  status: ('A' for Active; 'I' for Inactive)
REMARK    1  A    between atoms: _5  and  _11
REMARK    2  A    between atoms: _19  and  _21
REMARK    3  A    between atoms: _22  and  _66
REMARK    4  A    between atoms: _27  and  _30
REMARK    5  A    between atoms: _32  and  _33
REMARK    6  A    between atoms: _38  and  _43
REMARK    7  A    between atoms: _43  and  _46
REMARK    8  A    between atoms: _53  and  _55
REMARK                            x       y       z     vdW  Elec       q    Type
REMARK                         _______ _______ _______ _____ _____    ______ ____
ROOT
ATOM     10  C   UNL     1      19.350 -42.326   6.691  0.00  0.00    +0.038 A 
ATOM     11  C   UNL     1      18.735 -43.228   5.786  0.00  0.00    +0.047 A 
ATOM     12  C   UNL     1      18.915 -44.666   5.917  0.00  0.00    +0.035 A 
ATOM     32  C   UNL     1      19.727 -45.150   6.984  0.00  0.00    +0.024 A 
ATOM     33  C   UNL     1      20.361 -44.247   7.912  0.00  0.00    +0.007 A 
ATOM     34  C   UNL     1      20.189 -42.828   7.786  0.00  0.00    -0.029 A 
ATOM     35  C   UNL     1      20.898 -41.907   8.805  0.00  0.00    +0.045 C 
ENDROOT
BRANCH  10   9
ATOM      4  C   UNL     1      16.725 -38.342   7.217  0.00  0.00    +0.077 A 
ATOM      5  C   UNL     1      15.664 -39.056   7.867  0.00  0.00    +0.048 A 
ATOM      6  C   UNL     1      15.830 -40.449   8.041  0.00  0.00    +0.116 A 
ATOM      7  N   UNL     1      16.976 -41.070   7.593  0.00  0.00    -0.223 NA
ATOM      8  C   UNL     1      17.979 -40.352   6.969  0.00  0.00    +0.220 A 
ATOM      9  N   UNL     1      19.143 -40.956   6.518  0.00  0.00    -0.283 N 
ATOM     36  H   UNL     1      19.856 -40.392   6.055  0.00  0.00    +0.155 HD
ATOM     37  N   UNL     1      17.844 -39.022   6.790  0.00  0.00    -0.214 NA
BRANCH   4   3
ATOM      1  C   UNL     1      17.668 -34.746   6.001  0.00  0.00    +0.020 A 
ATOM      2  C   UNL     1      17.741 -36.172   6.218  0.00  0.00    +0.013 A 
ATOM      3  C   UNL     1      16.699 -36.867   6.964  0.00  0.00    +0.019 A 
ATOM     38  C   UNL     1      15.587 -36.083   7.479  0.00  0.00    +0.120 A 
ATOM     39  N   UNL     1      15.543 -34.710   7.256  0.00  0.00    -0.263 NA
ATOM     40  C   UNL     1      16.542 -34.031   6.541  0.00  0.00    +0.111 A 
ENDBRANCH   4   3
ENDBRANCH  10   9
BRANCH  12  13
ATOM     13  N   UNL     1      18.321 -45.630   5.024  0.00  0.00    -0.281 N 
ATOM     14  C   UNL     1      17.213 -46.430   5.250  0.00  0.00    +0.248 C 
ATOM     30  O   UNL     1      16.689 -46.593   6.342  0.00  0.00    -0.270 OA
ATOM     31  H   UNL     1      18.773 -45.735   4.116  0.00  0.00    +0.155 HD
BRANCH  14  15
ATOM     15  C   UNL     1      16.609 -47.168   4.099  0.00  0.00    +0.037 A 
ATOM     16  C   UNL     1      15.298 -47.811   4.212  0.00  0.00    +0.013 A 
ATOM     17  C   UNL     1      14.746 -48.531   3.092  0.00  0.00    +0.005 A 
ATOM     18  C   UNL     1      15.506 -48.610   1.847  0.00  0.00    -0.033 A 
ATOM     28  C   UNL     1      16.802 -47.958   1.760  0.00  0.00    +0.005 A 
ATOM     29  C   UNL     1      17.347 -47.252   2.856  0.00  0.00    +0.013 A 
BRANCH  18  19
ATOM     19  C   UNL     1      15.003 -49.374   0.608  0.00  0.00    +0.119 C 
BRANCH  19  20
ATOM     20  N   UNL     1      14.318 -48.579  -0.455  0.00  0.00    -0.302 NA
ATOM     21  C   UNL     1      15.179 -48.439  -1.713  0.00  0.00    +0.066 C 
ATOM     22  C   UNL     1      14.438 -47.624  -2.822  0.00  0.00    -0.064 C 
ATOM     23  N   UNL     1      14.055 -46.249  -2.271  0.00  0.00    +0.379 N 
ATOM     24  C   UNL     1      13.409 -45.459  -3.330  0.00  0.00    -0.096 C 
ATOM     25  H   UNL     1      14.997 -45.726  -1.985  0.00  0.00    -0.082 HD
ATOM     26  C   UNL     1      13.201 -46.380  -1.018  0.00  0.00    -0.064 C 
ATOM     27  C   UNL     1      13.935 -47.216   0.067  0.00  0.00    +0.066 C 
ENDBRANCH  19  20
ENDBRANCH  18  19
ENDBRANCH  14  15
ENDBRANCH  12  13
TORSDOF 6
ENDMDL
MODEL 2
REMARK VINA RESULT:      -7.6     31.034     32.925
REMARK  Name = C:\Users\Docking\Desktop\test protocol\1iep_ligandH.pdb
REMARK  8 active torsions:
REMARK  status: ('A' for Active; 'I' for Inactive)
REMARK    1  A    between atoms: _5  and  _11
REMARK    2  A    between atoms: _19  and  _21
REMARK    3  A    between atoms: _22  and  _66
REMARK    4  A    between atoms: _27  and  _30
REMARK    5  A    between atoms: _32  and  _33
REMARK    6  A    between atoms: _38  and  _43
REMARK    7  A    between atoms: _43  and  _46
REMARK    8  A    between atoms: _53  and  _55
REMARK                            x       y       z     vdW  Elec       q    Type
REMARK                         _______ _______ _______ _____ _____    ______ ____
ROOT
ATOM     10  C   UNL     1      37.570 -20.982  11.364  0.00  0.00    +0.038 A 
ATOM     11  C   UNL     1      37.329 -20.216  10.195  0.00  0.00    +0.047 A 
ATOM     12  C   UNL     1      37.786 -20.669   8.891  0.00  0.00    +0.035 A 
ATOM     32  C   UNL     1      38.485 -21.909   8.813  0.00  0.00    +0.024 A 
ATOM     33  C   UNL     1      38.741 -22.699   9.992  0.00  0.00    +0.007 A 
ATOM     34  C   UNL     1      38.294 -22.257  11.281  0.00  0.00    -0.029 A 
ATOM     35  C   UNL     1      38.601 -23.142  12.511  0.00  0.00    +0.045 C 
ENDROOT
BRANCH  10   9
ATOM      4  C   UNL     1      37.982 -18.173  15.234  0.00  0.00    +0.077 A 
ATOM      5  C   UNL     1      39.237 -17.641  14.788  0.00  0.00    +0.048 A 
ATOM      6  C   UNL     1      39.746 -18.121  13.560  0.00  0.00    +0.116 A 
ATOM      7  N   UNL     1      39.043 -19.064  12.841  0.00  0.00    -0.223 NA
ATOM      8  C   UNL     1      37.836 -19.557  13.301  0.00  0.00    +0.220 A 
ATOM      9  N   UNL     1      37.108 -20.500  12.591  0.00  0.00    -0.283 N 
ATOM     36  H   UNL     1      36.225 -20.844  12.968  0.00  0.00    +0.155 HD
ATOM     37  N   UNL     1      37.329 -19.115  14.471  0.00  0.00    -0.214 NA
BRANCH   4   3
ATOM      1  C   UNL     1      35.280 -17.145  17.869  0.00  0.00    +0.020 A 
ATOM      2  C   UNL     1      35.876 -17.541  16.614  0.00  0.00    +0.013 A 
ATOM      3  C   UNL     1      37.313 -17.762  16.509  0.00  0.00    +0.019 A 
ATOM     38  C   UNL     1      38.124 -17.573  17.702  0.00  0.00    +0.120 A 
ATOM     39  N   UNL     1      37.523 -17.190  18.897  0.00  0.00    -0.263 NA
ATOM     40  C   UNL     1      36.141 -16.973  19.009  0.00  0.00    +0.111 A 
ENDBRANCH   4   3
ENDBRANCH  10   9
BRANCH  12  13
ATOM     13  N   UNL     1      37.577 -19.930   7.671  0.00  0.00    -0.281 N 
ATOM     14  C   UNL     1      38.294 -18.842   7.200  0.00  0.00    +0.248 C 
ATOM     30  O   UNL     1      39.095 -18.202   7.865  0.00  0.00    -0.270 OA
ATOM     31  H   UNL     1      36.807 -20.248   7.082  0.00  0.00    +0.155 HD
BRANCH  14  15
ATOM     15  C   UNL     1      38.080 -18.390   5.792  0.00  0.00    +0.037 A 
ATOM     16  C   UNL     1      36.788 -17.858   5.353  0.00  0.00    +0.013 A 
ATOM     17  C   UNL     1      36.603 -17.445   3.984  0.00  0.00    +0.005 A 
ATOM     18  C   UNL     1      37.715 -17.563   3.044  0.00  0.00    -0.033 A 
ATOM     28  C   UNL     1      38.988 -18.089   3.508  0.00  0.00    +0.005 A 
ATOM     29  C   UNL     1      39.172 -18.496   4.848  0.00  0.00    +0.013 A 
BRANCH  18  19
ATOM     19  C   UNL     1      37.601 -17.166   1.560  0.00  0.00    +0.119 C 
BRANCH  19  20
ATOM     20  N   UNL     1      37.926 -18.213   0.546  0.00  0.00    -0.302 NA
ATOM     21  C   UNL     1      37.578 -17.763  -0.876  0.00  0.00    +0.066 C 
ATOM     22  C   UNL     1      37.946 -18.862  -1.926  0.00  0.00    -0.064 C 
ATOM     23  N   UNL     1      37.219 -20.161  -1.576  0.00  0.00    +0.379 N 
ATOM     24  C   UNL     1      37.517 -21.179  -2.595  0.00  0.00    -0.096 C 
ATOM     25  H   UNL     1      36.124 -19.957  -1.613  0.00  0.00    -0.082 HD
ATOM     26  C   UNL     1      37.558 -20.614  -0.163  0.00  0.00    -0.064 C 
ATOM     27  C   UNL     1      37.216 -19.504   0.870  0.00  0.00    +0.066 C 
ENDBRANCH  19  20
ENDBRANCH  18  19
ENDBRANCH  14  15
ENDBRANCH  12  13
TORSDOF 6
ENDMDL
MODEL 3
REMARK VINA RESULT:      -7.5      7.205     12.367
REMARK  Name = C:\Users\Docking\Desktop\test protocol\1iep_ligandH.pdb
REMARK  8 active torsions:
REMARK  status: ('A' for Active; 'I' for Inactive)
REMARK    1  A    between atoms: _5  and  _11
REMARK    2  A    between atoms: _19  and  _21
REMARK    3  A    between atoms: _22  and  _66
REMARK    4  A    between atoms: _27  and  _30
REMARK    5  A    between atoms: _32  and  _33
REMARK    6  A    between atoms: _38  and  _43
REMARK    7  A    between atoms: _43  and  _46
REMARK    8  A    between atoms: _53  and  _55
REMARK                            x       y       z     vdW  Elec       q    Type
REMARK                         _______ _______ _______ _____ _____    ______ ____
ROOT
ATOM     10  C   UNL     1      16.908 -38.045   7.363  0.00  0.00    +0.038 A 
ATOM     11  C   UNL     1      17.910 -38.227   8.351  0.00  0.00    +0.047 A 
ATOM     12  C   UNL     1      18.919 -39.266   8.217  0.00  0.00    +0.035 A 
ATOM     32  C   UNL     1      18.879 -40.102   7.063  0.00  0.00    +0.024 A 
ATOM     33  C   UNL     1      17.867 -39.931   6.049  0.00  0.00    +0.007 A 
ATOM     34  C   UNL     1      16.868 -38.909   6.177  0.00  0.00    -0.029 A 
ATOM     35  C   UNL     1      15.804 -38.777   5.063  0.00  0.00    +0.045 C 
ENDROOT
BRANCH  10   9
ATOM      4  C   UNL     1      15.713 -33.447   8.044  0.00  0.00    +0.077 A 
ATOM      5  C   UNL     1      17.086 -33.033   8.072  0.00  0.00    +0.048 A 
ATOM      6  C   UNL     1      18.070 -34.035   7.914  0.00  0.00    +0.116 A 
ATOM      7  N   UNL     1      17.696 -35.350   7.742  0.00  0.00    -0.223 NA
ATOM      8  C   UNL     1      16.363 -35.716   7.722  0.00  0.00    +0.220 A 
ATOM      9  N   UNL     1      15.964 -37.032   7.542  0.00  0.00    -0.283 N 
ATOM     36  H   UNL     1      14.971 -37.262   7.541  0.00  0.00    +0.155 HD
ATOM     37  N   UNL     1      15.405 -34.778   7.872  0.00  0.00    -0.214 NA
BRANCH   4   3
ATOM      1  C   UNL     1      12.091 -31.989   8.290  0.00  0.00    +0.020 A 
ATOM      2  C   UNL     1      13.169 -32.940   8.139  0.00  0.00    +0.013 A 
ATOM      3  C   UNL     1      14.559 -32.505   8.193  0.00  0.00    +0.019 A 
ATOM     38  C   UNL     1      14.826 -31.090   8.404  0.00  0.00    +0.120 A 
ATOM     39  N   UNL     1      13.768 -30.198   8.544  0.00  0.00    -0.263 NA
ATOM     40  C   UNL     1      12.427 -30.604   8.492  0.00  0.00    +0.111 A 
ENDBRANCH   4   3
ENDBRANCH  10   9
BRANCH  12  13
ATOM     13  N   UNL     1      19.955 -39.503   9.191  0.00  0.00    -0.281 N 
ATOM     14  C   UNL     1      19.812 -39.715  10.553  0.00  0.00    +0.248 C 
ATOM     30  O   UNL     1      18.780 -39.520  11.178  0.00  0.00    -0.270 OA
ATOM     31  H   UNL     1      20.910 -39.517   8.833  0.00  0.00    +0.155 HD
BRANCH  14  15
ATOM     15  C   UNL     1      20.989 -40.200  11.336  0.00  0.00    +0.037 A 
ATOM     16  C   UNL     1      21.728 -39.305  12.229  0.00  0.00    +0.013 A 
ATOM     17  C   UNL     1      22.870 -39.795  12.960  0.00  0.00    +0.005 A 
ATOM     18  C   UNL     1      23.279 -41.188  12.801  0.00  0.00    -0.033 A 
ATOM     28  C   UNL     1      22.524 -42.056  11.912  0.00  0.00    +0.005 A 
ATOM     29  C   UNL     1      21.405 -41.579  11.193  0.00  0.00    +0.013 A 
BRANCH  18  19
ATOM     19  C   UNL     1      24.498 -41.790  13.525  0.00  0.00    +0.119 C 
BRANCH  19  20
ATOM     20  N   UNL     1      25.585 -40.851  13.931  0.00  0.00    -0.302 NA
ATOM     21  C   UNL     1      26.895 -41.134  13.190  0.00  0.00    +0.066 C 
ATOM     22  C   UNL     1      28.015 -40.127  13.610  0.00  0.00    -0.064 C 
ATOM     23  N   UNL     1      28.222 -40.201  15.123  0.00  0.00    +0.379 N 
ATOM     24  C   UNL     1      29.315 -39.298  15.514  0.00  0.00    -0.096 C 
ATOM     25  H   UNL     1      28.538 -41.241  15.371  0.00  0.00    -0.082 HD
ATOM     26  C   UNL     1      26.924 -39.923  15.868  0.00  0.00    -0.064 C 
ATOM     27  C   UNL     1      25.809 -40.910  15.422  0.00  0.00    +0.066 C 
ENDBRANCH  19  20
ENDBRANCH  18  19
ENDBRANCH  14  15
ENDBRANCH  12  13
TORSDOF 6
ENDMDL
MODEL 4
REMARK VINA RESULT:      -7.5      2.517     11.635
REMARK  Name = C:\Users\Docking\Desktop\test protocol\1iep_ligandH.pdb
REMARK  8 active torsions:
REMARK  status: ('A' for Active; 'I' for Inactive)
REMARK    1  A    between atoms: _5  and  _11
REMARK    2  A    between atoms: _19  and  _21
REMARK    3  A    between atoms: _22  and  _66
REMARK    4  A    between atoms: _27  and  _30
REMARK    5  A    between atoms: _32  and  _33
REMARK    6  A    between atoms: _38  and  _43
REMARK    7  A    between atoms: _43  and  _46
REMARK    8  A    between atoms: _53  and  _55
REMARK                            x       y       z     vdW  Elec       q    Type
REMARK                         _______ _______ _______ _____ _____    ______ ____
ROOT
ATOM     10  C   UNL     1      18.916 -45.725   5.777  0.00  0.00    +0.038 A 
ATOM     11  C   UNL     1      18.437 -44.391   5.735  0.00  0.00    +0.047 A 
ATOM     12  C   UNL     1      18.782 -43.434   6.776  0.00  0.00    +0.035 A 
ATOM     32  C   UNL     1      19.619 -43.871   7.844  0.00  0.00    +0.024 A 
ATOM     33  C   UNL     1      20.114 -45.224   7.902  0.00  0.00    +0.007 A 
ATOM     34  C   UNL     1      19.775 -46.172   6.880  0.00  0.00    -0.029 A 
ATOM     35  C   UNL     1      20.328 -47.612   6.998  0.00  0.00    +0.045 C 
ENDROOT
BRANCH  10   9
ATOM      4  C   UNL     1      15.720 -48.497   3.509  0.00  0.00    +0.077 A 
ATOM      5  C   UNL     1      14.693 -48.196   4.464  0.00  0.00    +0.048 A 
ATOM      6  C   UNL     1      15.030 -47.329   5.528  0.00  0.00    +0.116 A 
ATOM      7  N   UNL     1      16.302 -46.808   5.620  0.00  0.00    -0.223 NA
ATOM      8  C   UNL     1      17.270 -47.120   4.683  0.00  0.00    +0.220 A 
ATOM      9  N   UNL     1      18.554 -46.601   4.751  0.00  0.00    -0.283 N 
ATOM     36  H   UNL     1      19.241 -46.862   4.044  0.00  0.00    +0.155 HD
ATOM     37  N   UNL     1      16.974 -47.947   3.658  0.00  0.00    -0.214 NA
BRANCH   4   3
ATOM      1  C   UNL     1      14.707 -49.856  -0.016  0.00  0.00    +0.020 A 
ATOM      2  C   UNL     1      14.878 -48.949   1.096  0.00  0.00    +0.013 A 
ATOM      3  C   UNL     1      15.518 -49.394   2.328  0.00  0.00    +0.019 A 
ATOM     38  C   UNL     1      15.977 -50.773   2.403  0.00  0.00    +0.120 A 
ATOM     39  N   UNL     1      15.797 -51.623   1.316  0.00  0.00    -0.263 NA
ATOM     40  C   UNL     1      15.182 -51.207   0.126  0.00  0.00    +0.111 A 
ENDBRANCH   4   3
ENDBRANCH  10   9
BRANCH  12  13
ATOM     13  N   UNL     1      18.320 -42.069   6.791  0.00  0.00    -0.281 N 
ATOM     14  C   UNL     1      18.638 -41.052   5.905  0.00  0.00    +0.248 C 
ATOM     30  O   UNL     1      19.542 -41.108   5.084  0.00  0.00    -0.270 OA
ATOM     31  H   UNL     1      17.680 -41.822   7.546  0.00  0.00    +0.155 HD
BRANCH  14  15
ATOM     15  C   UNL     1      17.847 -39.785   5.947  0.00  0.00    +0.037 A 
ATOM     16  C   UNL     1      18.253 -38.663   6.798  0.00  0.00    +0.013 A 
ATOM     17  C   UNL     1      17.463 -37.458   6.833  0.00  0.00    +0.005 A 
ATOM     18  C   UNL     1      16.258 -37.368   6.011  0.00  0.00    -0.033 A 
ATOM     28  C   UNL     1      15.882 -38.493   5.171  0.00  0.00    +0.005 A 
ATOM     29  C   UNL     1      16.653 -39.676   5.136  0.00  0.00    +0.013 A 
BRANCH  18  19
ATOM     19  C   UNL     1      15.343 -36.129   6.001  0.00  0.00    +0.119 C 
BRANCH  19  20
ATOM     20  N   UNL     1      15.729 -34.987   6.882  0.00  0.00    -0.302 NA
ATOM     21  C   UNL     1      14.506 -34.268   7.460  0.00  0.00    +0.066 C 
ATOM     22  C   UNL     1      14.928 -33.091   8.397  0.00  0.00    -0.064 C 
ATOM     23  N   UNL     1      15.813 -32.115   7.620  0.00  0.00    +0.379 N 
ATOM     24  C   UNL     1      16.164 -30.977   8.482  0.00  0.00    -0.096 C 
ATOM     25  H   UNL     1      15.213 -31.721   6.767  0.00  0.00    -0.082 HD
ATOM     26  C   UNL     1      17.030 -32.822   7.040  0.00  0.00    -0.064 C 
ATOM     27  C   UNL     1      16.600 -34.009   6.133  0.00  0.00    +0.066 C 
ENDBRANCH  19  20
ENDBRANCH  18  19
ENDBRANCH  14  15
ENDBRANCH  12  13
TORSDOF 6
ENDMDL
MODEL 5
REMARK VINA RESULT:      -7.4      7.967     12.136
REMARK  Name = C:\Users\Docking\Desktop\test protocol\1iep_ligandH.pdb
REMARK  8 active torsions:
REMARK  status: ('A' for Active; 'I' for Inactive)
REMARK    1  A    between atoms: _5  and  _11
REMARK    2  A    between atoms: _19  and  _21
REMARK    3  A    between atoms: _22  and  _66
REMARK    4  A    between atoms: _27  and  _30
REMARK    5  A    between atoms: _32  and  _33
REMARK    6  A    between atoms: _38  and  _43
REMARK    7  A    between atoms: _43  and  _46
REMARK    8  A    between atoms: _53  and  _55
REMARK                            x       y       z     vdW  Elec       q    Type
REMARK                         _______ _______ _______ _____ _____    ______ ____
ROOT
ATOM     10  C   UNL     1      15.844 -36.197   7.331  0.00  0.00    +0.038 A 
ATOM     11  C   UNL     1      16.844 -36.815   8.125  0.00  0.00    +0.047 A 
ATOM     12  C   UNL     1      17.647 -37.911   7.606  0.00  0.00    +0.035 A 
ATOM     32  C   UNL     1      17.407 -38.351   6.272  0.00  0.00    +0.024 A 
ATOM     33  C   UNL     1      16.394 -37.736   5.451  0.00  0.00    +0.007 A 
ATOM     34  C   UNL     1      15.597 -36.656   5.958  0.00  0.00    -0.029 A 
ATOM     35  C   UNL     1      14.521 -36.038   5.036  0.00  0.00    +0.045 C 
ENDROOT
BRANCH  10   9
ATOM      4  C   UNL     1      15.206 -31.555   8.370  0.00  0.00    +0.077 A 
ATOM      5  C   UNL     1      16.469 -31.192   7.795  0.00  0.00    +0.048 A 
ATOM      6  C   UNL     1      17.256 -32.230   7.249  0.00  0.00    +0.116 A 
ATOM      7  N   UNL     1      16.803 -33.531   7.280  0.00  0.00    -0.223 NA
ATOM      8  C   UNL     1      15.581 -33.848   7.844  0.00  0.00    +0.220 A 
ATOM      9  N   UNL     1      15.103 -35.149   7.880  0.00  0.00    -0.283 N 
ATOM     36  H   UNL     1      14.199 -35.342   8.311  0.00  0.00    +0.155 HD
ATOM     37  N   UNL     1      14.811 -32.874   8.374  0.00  0.00    -0.214 NA
BRANCH   4   3
ATOM      1  C   UNL     1      12.165 -29.165   8.955  0.00  0.00    +0.020 A 
ATOM      2  C   UNL     1      13.045 -30.117   8.318  0.00  0.00    +0.013 A 
ATOM      3  C   UNL     1      14.259 -30.571   8.984  0.00  0.00    +0.019 A 
ATOM     38  C   UNL     1      14.556 -30.038  10.306  0.00  0.00    +0.120 A 
ATOM     39  N   UNL     1      13.690 -29.121  10.894  0.00  0.00    -0.263 NA
ATOM     40  C   UNL     1      12.520 -28.676  10.261  0.00  0.00    +0.111 A 
ENDBRANCH   4   3
ENDBRANCH  10   9
BRANCH  12  13
ATOM     13  N   UNL     1      18.670 -38.582   8.369  0.00  0.00    -0.281 N 
ATOM     14  C   UNL     1      19.254 -38.172   9.556  0.00  0.00    +0.248 C 
ATOM     30  O   UNL     1      19.135 -37.054  10.035  0.00  0.00    -0.270 OA
ATOM     31  H   UNL     1      19.005 -39.466   7.987  0.00  0.00    +0.155 HD
BRANCH  14  15
ATOM     15  C   UNL     1      20.104 -39.139  10.315  0.00  0.00    +0.037 A 
ATOM     16  C   UNL     1      20.256 -40.527   9.872  0.00  0.00    +0.013 A 
ATOM     17  C   UNL     1      21.068 -41.444  10.631  0.00  0.00    +0.005 A 
ATOM     18  C   UNL     1      21.737 -40.975  11.842  0.00  0.00    -0.033 A 
ATOM     28  C   UNL     1      21.574 -39.591  12.256  0.00  0.00    +0.005 A 
ATOM     29  C   UNL     1      20.777 -38.690  11.515  0.00  0.00    +0.013 A 
BRANCH  18  19
ATOM     19  C   UNL     1      22.606 -41.889  12.726  0.00  0.00    +0.119 C 
BRANCH  19  20
ATOM     20  N   UNL     1      24.029 -41.486  12.935  0.00  0.00    -0.302 NA
ATOM     21  C   UNL     1      25.007 -42.567  12.467  0.00  0.00    +0.066 C 
ATOM     22  C   UNL     1      26.491 -42.119  12.673  0.00  0.00    -0.064 C 
ATOM     23  N   UNL     1      26.719 -41.784  14.148  0.00  0.00    +0.379 N 
ATOM     24  C   UNL     1      28.128 -41.419  14.355  0.00  0.00    -0.096 C 
ATOM     25  H   UNL     1      26.519 -42.707  14.740  0.00  0.00    -0.082 HD
ATOM     26  C   UNL     1      25.749 -40.712  14.623  0.00  0.00    -0.064 C 
ATOM     27  C   UNL     1      24.278 -41.154  14.386  0.00  0.00    +0.066 C 
ENDBRANCH  19  20
ENDBRANCH  18  19
ENDBRANCH  14  15
ENDBRANCH  12  13
TORSDOF 6
ENDMDL
