MODEL 1
REMARK VINA RESULT:      -7.6      0.000      0.000
REMARK  Name = C:\Users\Docking\Desktop\test protocol\1iep_ligandH.pdb
REMARK  8 active torsions:
REMARK  status: ('A' for Active; 'I' for Inactive)
REMARK    1  A    between atoms: _5  and  _11
REMARK    2  A    between atoms: _19  and  _21
REMARK    3  A    between atoms: _22  and  _66
REMARK    4  A    between atoms: _27  and  _30
REMARK    5  A    between atoms: _32  and  _33
REMARK    6  A    between atoms: _38  and  _43
REMARK    7  A    between atoms: _43  and  _46
REMARK    8  A    between atoms: _53  and  _55
REMARK                            x       y       z     vdW  Elec       q    Type
REMARK                         _______ _______ _______ _____ _____    ______ ____
ROOT
ATOM     10  C   UNL     1      20.304   8.819  15.345  0.00  0.00    +0.038 A 
ATOM     11  C   UNL     1      20.066  10.139  14.886  0.00  0.00    +0.047 A 
ATOM     12  C   UNL     1      19.533  11.160  15.775  0.00  0.00    +0.035 A 
ATOM     32  C   UNL     1      19.256  10.801  17.127  0.00  0.00    +0.024 A 
ATOM     33  C   UNL     1      19.491   9.463  17.609  0.00  0.00    +0.007 A 
ATOM     34  C   UNL     1      20.015   8.452  16.736  0.00  0.00    -0.029 A 
ATOM     35  C   UNL     1      20.241   7.032  17.306  0.00  0.00    +0.045 C 
ENDROOT
BRANCH  10   9
ATOM      4  C   UNL     1      23.836   7.069  12.605  0.00  0.00    +0.077 A 
ATOM      5  C   UNL     1      24.726   8.133  12.971  0.00  0.00    +0.048 A 
ATOM      6  C   UNL     1      24.234   9.114  13.860  0.00  0.00    +0.116 A 
ATOM      7  N   UNL     1      22.946   9.028  14.343  0.00  0.00    -0.223 NA
ATOM      8  C   UNL     1      22.113   7.990  13.969  0.00  0.00    +0.220 A 
ATOM      9  N   UNL     1      20.817   7.879  14.448  0.00  0.00    -0.283 N 
ATOM     36  H   UNL     1      20.231   7.102  14.143  0.00  0.00    +0.155 HD
ATOM     37  N   UNL     1      22.559   7.041  13.119  0.00  0.00    -0.214 NA
BRANCH   4   3
ATOM      1  C   UNL     1      24.025   4.708   9.493  0.00  0.00    +0.020 A 
ATOM      2  C   UNL     1      23.629   5.801  10.350  0.00  0.00    +0.013 A 
ATOM      3  C   UNL     1      24.210   5.956  11.677  0.00  0.00    +0.019 A 
ATOM     38  C   UNL     1      25.199   4.980  12.110  0.00  0.00    +0.120 A 
ATOM     39  N   UNL     1      25.561   3.936  11.264  0.00  0.00    -0.263 NA
ATOM     40  C   UNL     1      25.006   3.777   9.985  0.00  0.00    +0.111 A 
ENDBRANCH   4   3
ENDBRANCH  10   9
BRANCH  12  13
ATOM     13  N   UNL     1      19.264  12.516  15.364  0.00  0.00    -0.281 N 
ATOM     14  C   UNL     1      20.098  13.617  15.460  0.00  0.00    +0.248 C 
ATOM     30  O   UNL     1      21.131  13.647  16.114  0.00  0.00    -0.270 OA
ATOM     31  H   UNL     1      18.346  12.684  14.952  0.00  0.00    +0.155 HD
BRANCH  14  15
ATOM     15  C   UNL     1      19.726  14.871  14.737  0.00  0.00    +0.037 A 
ATOM     16  C   UNL     1      19.198  14.832  13.371  0.00  0.00    +0.013 A 
ATOM     17  C   UNL     1      18.862  16.058  12.691  0.00  0.00    +0.005 A 
ATOM     18  C   UNL     1      19.052  17.333  13.377  0.00  0.00    -0.033 A 
ATOM     28  C   UNL     1      19.573  17.342  14.734  0.00  0.00    +0.005 A 
ATOM     29  C   UNL     1      19.904  16.143  15.404  0.00  0.00    +0.013 A 
BRANCH  18  19
ATOM     19  C   UNL     1      18.741  18.691  12.720  0.00  0.00    +0.119 C 
BRANCH  19  20
ATOM     20  N   UNL     1      18.567  19.865  13.627  0.00  0.00    -0.302 NA
ATOM     21  C   UNL     1      17.228  20.573  13.400  0.00  0.00    +0.066 C 
ATOM     22  C   UNL     1      17.054  21.785  14.372  0.00  0.00    -0.064 C 
ATOM     23  N   UNL     1      18.219  22.758  14.184  0.00  0.00    +0.379 N 
ATOM     24  C   UNL     1      18.027  23.927  15.054  0.00  0.00    -0.096 C 
ATOM     25  H   UNL     1      18.195  23.115  13.128  0.00  0.00    -0.082 HD
ATOM     26  C   UNL     1      19.554  22.062  14.405  0.00  0.00    -0.064 C 
ATOM     27  C   UNL     1      19.705  20.841  13.455  0.00  0.00    +0.066 C 
ENDBRANCH  19  20
ENDBRANCH  18  19
ENDBRANCH  14  15
ENDBRANCH  12  13
TORSDOF 6
ENDMDL
MODEL 2
REMARK VINA RESULT:      -7.6     11.446     17.738
REMARK  Name = C:\Users\Docking\Desktop\test protocol\1iep_ligandH.pdb
REMARK  8 active torsions:
REMARK  status: ('A' for Active; 'I' for Inactive)
REMARK    1  A    between atoms: _5  and  _11
REMARK    2  A    between atoms: _19  and  _21
REMARK    3  A    between atoms: _22  and  _66
REMARK    4  A    between atoms: _27  and  _30
REMARK    5  A    between atoms: _32  and  _33
REMARK    6  A    between atoms: _38  and  _43
REMARK    7  A    between atoms: _43  and  _46
REMARK    8  A    between atoms: _53  and  _55
REMARK                            x       y       z     vdW  Elec       q    Type
REMARK                         _______ _______ _______ _____ _____    ______ ____
ROOT
ATOM     10  C   UNL     1      26.603   3.829  10.889  0.00  0.00    +0.038 A 
ATOM     11  C   UNL     1      27.247   3.252   9.765  0.00  0.00    +0.047 A 
ATOM     12  C   UNL     1      28.450   3.845   9.200  0.00  0.00    +0.035 A 
ATOM     32  C   UNL     1      28.971   5.025   9.807  0.00  0.00    +0.024 A 
ATOM     33  C   UNL     1      28.328   5.625  10.950  0.00  0.00    +0.007 A 
ATOM     34  C   UNL     1      27.140   5.046  11.510  0.00  0.00    -0.029 A 
ATOM     35  C   UNL     1      26.490   5.737  12.731  0.00  0.00    +0.045 C 
ENDROOT
BRANCH  10   9
ATOM      4  C   UNL     1      24.394   0.565  13.628  0.00  0.00    +0.077 A 
ATOM      5  C   UNL     1      25.639   0.013  14.078  0.00  0.00    +0.048 A 
ATOM      6  C   UNL     1      26.826   0.593  13.575  0.00  0.00    +0.116 A 
ATOM      7  N   UNL     1      26.759   1.647  12.689  0.00  0.00    -0.223 NA
ATOM      8  C   UNL     1      25.542   2.154  12.274  0.00  0.00    +0.220 A 
ATOM      9  N   UNL     1      25.452   3.218  11.390  0.00  0.00    -0.283 N 
ATOM     36  H   UNL     1      24.534   3.559  11.103  0.00  0.00    +0.155 HD
ATOM     37  N   UNL     1      24.395   1.617  12.739  0.00  0.00    -0.214 NA
BRANCH   4   3
ATOM      1  C   UNL     1      20.670  -0.633  13.633  0.00  0.00    +0.020 A 
ATOM      2  C   UNL     1      21.943  -0.146  13.153  0.00  0.00    +0.013 A 
ATOM      3  C   UNL     1      23.055   0.063  14.072  0.00  0.00    +0.019 A 
ATOM     38  C   UNL     1      22.845  -0.234  15.481  0.00  0.00    +0.120 A 
ATOM     39  N   UNL     1      21.609  -0.701  15.914  0.00  0.00    -0.263 NA
ATOM     40  C   UNL     1      20.530  -0.904  15.040  0.00  0.00    +0.111 A 
ENDBRANCH   4   3
ENDBRANCH  10   9
BRANCH  12  13
ATOM     13  N   UNL     1      29.142   3.308   8.055  0.00  0.00    -0.281 N 
ATOM     14  C   UNL     1      29.745   4.005   7.020  0.00  0.00    +0.248 C 
ATOM     30  O   UNL     1      29.594   5.200   6.812  0.00  0.00    -0.270 OA
ATOM     31  H   UNL     1      29.194   2.291   8.000  0.00  0.00    +0.155 HD
BRANCH  14  15
ATOM     15  C   UNL     1      30.632   3.266   6.072  0.00  0.00    +0.037 A 
ATOM     16  C   UNL     1      30.875   1.829   6.222  0.00  0.00    +0.013 A 
ATOM     17  C   UNL     1      31.749   1.143   5.304  0.00  0.00    +0.005 A 
ATOM     18  C   UNL     1      32.386   1.894   4.225  0.00  0.00    -0.033 A 
ATOM     28  C   UNL     1      32.124   3.318   4.096  0.00  0.00    +0.005 A 
ATOM     29  C   UNL     1      31.268   3.994   4.995  0.00  0.00    +0.013 A 
BRANCH  18  19
ATOM     19  C   UNL     1      33.349   1.249   3.212  0.00  0.00    +0.119 C 
BRANCH  19  20
ATOM     20  N   UNL     1      32.791   0.195   2.313  0.00  0.00    -0.302 NA
ATOM     21  C   UNL     1      33.880  -0.739   1.777  0.00  0.00    +0.066 C 
ATOM     22  C   UNL     1      33.275  -1.849   0.856  0.00  0.00    -0.064 C 
ATOM     23  N   UNL     1      32.510  -1.192  -0.295  0.00  0.00    +0.379 N 
ATOM     24  C   UNL     1      31.990  -2.232  -1.194  0.00  0.00    -0.096 C 
ATOM     25  H   UNL     1      33.236  -0.575  -0.874  0.00  0.00    -0.082 HD
ATOM     26  C   UNL     1      31.427  -0.260   0.230  0.00  0.00    -0.064 C 
ATOM     27  C   UNL     1      32.035   0.821   1.167  0.00  0.00    +0.066 C 
ENDBRANCH  19  20
ENDBRANCH  18  19
ENDBRANCH  14  15
ENDBRANCH  12  13
TORSDOF 6
ENDMDL
MODEL 3
REMARK VINA RESULT:      -7.5     19.185     23.302
REMARK  Name = C:\Users\Docking\Desktop\test protocol\1iep_ligandH.pdb
REMARK  8 active torsions:
REMARK  status: ('A' for Active; 'I' for Inactive)
REMARK    1  A    between atoms: _5  and  _11
REMARK    2  A    between atoms: _19  and  _21
REMARK    3  A    between atoms: _22  and  _66
REMARK    4  A    between atoms: _27  and  _30
REMARK    5  A    between atoms: _32  and  _33
REMARK    6  A    between atoms: _38  and  _43
REMARK    7  A    between atoms: _43  and  _46
REMARK    8  A    between atoms: _53  and  _55
REMARK                            x       y       z     vdW  Elec       q    Type
REMARK                         _______ _______ _______ _____ _____    ______ ____
ROOT
ATOM     10  C   UNL     1      32.220  -1.960  -1.486  0.00  0.00    +0.038 A 
ATOM     11  C   UNL     1      31.230  -1.087  -2.006  0.00  0.00    +0.047 A 
ATOM     12  C   UNL     1      30.562  -0.115  -1.155  0.00  0.00    +0.035 A 
ATOM     32  C   UNL     1      30.928  -0.058   0.221  0.00  0.00    +0.024 A 
ATOM     33  C   UNL     1      31.931  -0.938   0.767  0.00  0.00    +0.007 A 
ATOM     34  C   UNL     1      32.592  -1.901  -0.067  0.00  0.00    -0.029 A 
ATOM     35  C   UNL     1      33.655  -2.823   0.573  0.00  0.00    +0.045 C 
ENDROOT
BRANCH  10   9
ATOM      4  C   UNL     1      32.452  -6.246  -3.635  0.00  0.00    +0.077 A 
ATOM      5  C   UNL     1      31.274  -6.713  -2.963  0.00  0.00    +0.048 A 
ATOM      6  C   UNL     1      30.642  -5.821  -2.067  0.00  0.00    +0.116 A 
ATOM      7  N   UNL     1      31.158  -4.560  -1.866  0.00  0.00    -0.223 NA
ATOM      8  C   UNL     1      32.297  -4.142  -2.529  0.00  0.00    +0.220 A 
ATOM      9  N   UNL     1      32.830  -2.874  -2.348  0.00  0.00    -0.283 N 
ATOM     36  H   UNL     1      33.676  -2.606  -2.851  0.00  0.00    +0.155 HD
ATOM     37  N   UNL     1      32.920  -4.974  -3.389  0.00  0.00    -0.214 NA
BRANCH   4   3
ATOM      1  C   UNL     1      33.933  -9.272  -5.622  0.00  0.00    +0.020 A 
ATOM      2  C   UNL     1      33.162  -8.524  -4.656  0.00  0.00    +0.013 A 
ATOM      3  C   UNL     1      33.229  -7.069  -4.614  0.00  0.00    +0.019 A 
ATOM     38  C   UNL     1      34.093  -6.395  -5.573  0.00  0.00    +0.120 A 
ATOM     39  N   UNL     1      34.825  -7.142  -6.491  0.00  0.00    -0.263 NA
ATOM     40  C   UNL     1      34.770  -8.543  -6.539  0.00  0.00    +0.111 A 
ENDBRANCH   4   3
ENDBRANCH  10   9
BRANCH  12  13
ATOM     13  N   UNL     1      29.544   0.791  -1.625  0.00  0.00    -0.281 N 
ATOM     14  C   UNL     1      29.668   1.794  -2.572  0.00  0.00    +0.248 C 
ATOM     30  O   UNL     1      30.734   2.206  -3.007  0.00  0.00    -0.270 OA
ATOM     31  H   UNL     1      28.619   0.680  -1.209  0.00  0.00    +0.155 HD
BRANCH  14  15
ATOM     15  C   UNL     1      28.431   2.443  -3.103  0.00  0.00    +0.037 A 
ATOM     16  C   UNL     1      27.112   2.138  -2.543  0.00  0.00    +0.013 A 
ATOM     17  C   UNL     1      25.933   2.766  -3.085  0.00  0.00    +0.005 A 
ATOM     18  C   UNL     1      26.068   3.707  -4.194  0.00  0.00    -0.033 A 
ATOM     28  C   UNL     1      27.389   3.995  -4.728  0.00  0.00    +0.005 A 
ATOM     29  C   UNL     1      28.547   3.381  -4.200  0.00  0.00    +0.013 A 
BRANCH  18  19
ATOM     19  C   UNL     1      24.863   4.407  -4.849  0.00  0.00    +0.119 C 
BRANCH  19  20
ATOM     20  N   UNL     1      24.826   5.899  -4.795  0.00  0.00    -0.302 NA
ATOM     21  C   UNL     1      25.192   6.432  -3.407  0.00  0.00    +0.066 C 
ATOM     22  C   UNL     1      25.170   7.995  -3.374  0.00  0.00    -0.064 C 
ATOM     23  N   UNL     1      23.787   8.492  -3.798  0.00  0.00    +0.379 N 
ATOM     24  C   UNL     1      23.746   9.959  -3.713  0.00  0.00    -0.096 C 
ATOM     25  H   UNL     1      23.045   8.090  -3.070  0.00  0.00    -0.082 HD
ATOM     26  C   UNL     1      23.415   7.964  -5.176  0.00  0.00    -0.064 C 
ATOM     27  C   UNL     1      23.468   6.411  -5.206  0.00  0.00    +0.066 C 
ENDBRANCH  19  20
ENDBRANCH  18  19
ENDBRANCH  14  15
ENDBRANCH  12  13
TORSDOF 6
ENDMDL
MODEL 4
REMARK VINA RESULT:      -7.4      4.135      7.859
REMARK  Name = C:\Users\Docking\Desktop\test protocol\1iep_ligandH.pdb
REMARK  8 active torsions:
REMARK  status: ('A' for Active; 'I' for Inactive)
REMARK    1  A    between atoms: _5  and  _11
REMARK    2  A    between atoms: _19  and  _21
REMARK    3  A    between atoms: _22  and  _66
REMARK    4  A    between atoms: _27  and  _30
REMARK    5  A    between atoms: _32  and  _33
REMARK    6  A    between atoms: _38  and  _43
REMARK    7  A    between atoms: _43  and  _46
REMARK    8  A    between atoms: _53  and  _55
REMARK                            x       y       z     vdW  Elec       q    Type
REMARK                         _______ _______ _______ _____ _____    ______ ____
ROOT
ATOM     10  C   UNL     1      24.640   3.831  11.887  0.00  0.00    +0.038 A 
ATOM     11  C   UNL     1      23.832   4.725  12.635  0.00  0.00    +0.047 A 
ATOM     12  C   UNL     1      23.048   5.759  11.979  0.00  0.00    +0.035 A 
ATOM     32  C   UNL     1      23.108   5.853  10.558  0.00  0.00    +0.024 A 
ATOM     33  C   UNL     1      23.925   4.953   9.782  0.00  0.00    +0.007 A 
ATOM     34  C   UNL     1      24.703   3.933  10.424  0.00  0.00    -0.029 A 
ATOM     35  C   UNL     1      25.566   3.000   9.543  0.00  0.00    +0.045 C 
ENDROOT
BRANCH  10   9
ATOM      4  C   UNL     1      24.947  -0.250  14.395  0.00  0.00    +0.077 A 
ATOM      5  C   UNL     1      23.526  -0.443  14.368  0.00  0.00    +0.048 A 
ATOM      6  C   UNL     1      22.751   0.535  13.704  0.00  0.00    +0.116 A 
ATOM      7  N   UNL     1      23.362   1.620  13.115  0.00  0.00    -0.223 NA
ATOM      8  C   UNL     1      24.735   1.777  13.161  0.00  0.00    +0.220 A 
ATOM      9  N   UNL     1      25.372   2.857  12.569  0.00  0.00    -0.283 N 
ATOM     36  H   UNL     1      26.387   2.940  12.632  0.00  0.00    +0.155 HD
ATOM     37  N   UNL     1      25.497   0.858  13.791  0.00  0.00    -0.214 NA
BRANCH   4   3
ATOM      1  C   UNL     1      27.391  -3.233  15.053  0.00  0.00    +0.020 A 
ATOM      2  C   UNL     1      26.474  -2.349  14.371  0.00  0.00    +0.013 A 
ATOM      3  C   UNL     1      25.901  -1.197  15.055  0.00  0.00    +0.019 A 
ATOM     38  C   UNL     1      26.279  -0.965  16.441  0.00  0.00    +0.120 A 
ATOM     39  N   UNL     1      27.163  -1.834  17.073  0.00  0.00    -0.263 NA
ATOM     40  C   UNL     1      27.720  -2.947  16.425  0.00  0.00    +0.111 A 
ENDBRANCH   4   3
ENDBRANCH  10   9
BRANCH  12  13
ATOM     13  N   UNL     1      22.216   6.701  12.686  0.00  0.00    -0.281 N 
ATOM     14  C   UNL     1      22.308   7.090  14.012  0.00  0.00    +0.248 C 
ATOM     30  O   UNL     1      22.993   6.525  14.852  0.00  0.00    -0.270 OA
ATOM     31  H   UNL     1      21.467   7.132  12.144  0.00  0.00    +0.155 HD
BRANCH  14  15
ATOM     15  C   UNL     1      21.515   8.269  14.475  0.00  0.00    +0.037 A 
ATOM     16  C   UNL     1      20.260   8.099  15.212  0.00  0.00    +0.013 A 
ATOM     17  C   UNL     1      19.506   9.254  15.632  0.00  0.00    +0.005 A 
ATOM     18  C   UNL     1      20.007  10.590  15.318  0.00  0.00    -0.033 A 
ATOM     28  C   UNL     1      21.258  10.730  14.591  0.00  0.00    +0.005 A 
ATOM     29  C   UNL     1      21.999   9.600  14.176  0.00  0.00    +0.013 A 
BRANCH  18  19
ATOM     19  C   UNL     1      19.257  11.877  15.709  0.00  0.00    +0.119 C 
BRANCH  19  20
ATOM     20  N   UNL     1      19.816  13.171  15.214  0.00  0.00    -0.302 NA
ATOM     21  C   UNL     1      19.979  14.194  16.341  0.00  0.00    +0.066 C 
ATOM     22  C   UNL     1      20.586  15.534  15.810  0.00  0.00    -0.064 C 
ATOM     23  N   UNL     1      19.694  16.089  14.698  0.00  0.00    +0.379 N 
ATOM     24  C   UNL     1      20.231  17.378  14.237  0.00  0.00    -0.096 C 
ATOM     25  H   UNL     1      18.687  16.280  15.137  0.00  0.00    -0.082 HD
ATOM     26  C   UNL     1      19.524  15.077  13.575  0.00  0.00    -0.064 C 
ATOM     27  C   UNL     1      18.948  13.739  14.118  0.00  0.00    +0.066 C 
ENDBRANCH  19  20
ENDBRANCH  18  19
ENDBRANCH  14  15
ENDBRANCH  12  13
TORSDOF 6
ENDMDL
MODEL 5
REMARK VINA RESULT:      -7.2      4.232      7.990
REMARK  Name = C:\Users\Docking\Desktop\test protocol\1iep_ligandH.pdb
REMARK  8 active torsions:
REMARK  status: ('A' for Active; 'I' for Inactive)
REMARK    1  A    between atoms: _5  and  _11
REMARK    2  A    between atoms: _19  and  _21
REMARK    3  A    between atoms: _22  and  _66
REMARK    4  A    between atoms: _27  and  _30
REMARK    5  A    between atoms: _32  and  _33
REMARK    6  A    between atoms: _38  and  _43
REMARK    7  A    between atoms: _43  and  _46
REMARK    8  A    between atoms: _53  and  _55
REMARK                            x       y       z     vdW  Elec       q    Type
REMARK                         _______ _______ _______ _____ _____    ______ ____
ROOT
ATOM     10  C   UNL     1      24.589   3.807  11.879  0.00  0.00    +0.038 A 
ATOM     11  C   UNL     1      23.805   4.698  12.656  0.00  0.00    +0.047 A 
ATOM     12  C   UNL     1      23.067   5.787  12.035  0.00  0.00    +0.035 A 
ATOM     32  C   UNL     1      23.147   5.938  10.620  0.00  0.00    +0.024 A 
ATOM     33  C   UNL     1      23.940   5.041   9.816  0.00  0.00    +0.007 A 
ATOM     34  C   UNL     1      24.672   3.967  10.422  0.00  0.00    -0.029 A 
ATOM     35  C   UNL     1      25.510   3.040   9.511  0.00  0.00    +0.045 C 
ENDROOT
BRANCH  10   9
ATOM      4  C   UNL     1      24.704  -0.269  14.411  0.00  0.00    +0.077 A 
ATOM      5  C   UNL     1      23.273  -0.342  14.471  0.00  0.00    +0.048 A 
ATOM      6  C   UNL     1      22.544   0.693  13.844  0.00  0.00    +0.116 A 
ATOM      7  N   UNL     1      23.207   1.719  13.207  0.00  0.00    -0.223 NA
ATOM      8  C   UNL     1      24.589   1.760  13.169  0.00  0.00    +0.220 A 
ATOM      9  N   UNL     1      25.277   2.778  12.527  0.00  0.00    -0.283 N 
ATOM     36  H   UNL     1      26.296   2.776  12.528  0.00  0.00    +0.155 HD
ATOM     37  N   UNL     1      25.308   0.784  13.761  0.00  0.00    -0.214 NA
BRANCH   4   3
ATOM      1  C   UNL     1      27.368  -3.097  14.875  0.00  0.00    +0.020 A 
ATOM      2  C   UNL     1      26.509  -2.127  14.235  0.00  0.00    +0.013 A 
ATOM      3  C   UNL     1      25.613  -1.290  15.023  0.00  0.00    +0.019 A 
ATOM     38  C   UNL     1      25.611  -1.460  16.468  0.00  0.00    +0.120 A 
ATOM     39  N   UNL     1      26.447  -2.403  17.057  0.00  0.00    -0.263 NA
ATOM     40  C   UNL     1      27.312  -3.215  16.309  0.00  0.00    +0.111 A 
ENDBRANCH   4   3
ENDBRANCH  10   9
BRANCH  12  13
ATOM     13  N   UNL     1      22.262   6.728  12.774  0.00  0.00    -0.281 N 
ATOM     14  C   UNL     1      22.617   7.456  13.898  0.00  0.00    +0.248 C 
ATOM     30  O   UNL     1      23.617   7.246  14.569  0.00  0.00    -0.270 OA
ATOM     31  H   UNL     1      21.314   6.876  12.425  0.00  0.00    +0.155 HD
BRANCH  14  15
ATOM     15  C   UNL     1      21.726   8.567  14.350  0.00  0.00    +0.037 A 
ATOM     16  C   UNL     1      22.086   9.969  14.125  0.00  0.00    +0.013 A 
ATOM     17  C   UNL     1      21.216  11.022  14.587  0.00  0.00    +0.005 A 
ATOM     18  C   UNL     1      19.976  10.676  15.277  0.00  0.00    -0.033 A 
ATOM     28  C   UNL     1      19.641   9.277  15.482  0.00  0.00    +0.005 A 
ATOM     29  C   UNL     1      20.491   8.242  15.032  0.00  0.00    +0.013 A 
BRANCH  18  19
ATOM     19  C   UNL     1      18.999  11.734  15.823  0.00  0.00    +0.119 C 
BRANCH  19  20
ATOM     20  N   UNL     1      19.591  12.929  16.496  0.00  0.00    -0.302 NA
ATOM     21  C   UNL     1      19.196  13.011  17.973  0.00  0.00    +0.066 C 
ATOM     22  C   UNL     1      19.841  14.254  18.667  0.00  0.00    -0.064 C 
ATOM     23  N   UNL     1      19.424  15.524  17.923  0.00  0.00    +0.379 N 
ATOM     24  C   UNL     1      19.982  16.699  18.608  0.00  0.00    -0.096 C 
ATOM     25  H   UNL     1      18.313  15.597  17.977  0.00  0.00    -0.082 HD
ATOM     26  C   UNL     1      19.810  15.450  16.453  0.00  0.00    -0.064 C 
ATOM     27  C   UNL     1      19.187  14.195  15.780  0.00  0.00    +0.066 C 
ENDBRANCH  19  20
ENDBRANCH  18  19
ENDBRANCH  14  15
ENDBRANCH  12  13
TORSDOF 6
ENDMDL
