MODEL 1
REMARK VINA RESULT:     -11.3      0.000      0.000
REMARK  Name = C:\Users\Docking\Desktop\test protocol\1iep_ligandH.pdb
REMARK  8 active torsions:
REMARK  status: ('A' for Active; 'I' for Inactive)
REMARK    1  A    between atoms: _5  and  _11
REMARK    2  A    between atoms: _19  and  _21
REMARK    3  A    between atoms: _22  and  _66
REMARK    4  A    between atoms: _27  and  _30
REMARK    5  A    between atoms: _32  and  _33
REMARK    6  A    between atoms: _38  and  _43
REMARK    7  A    between atoms: _43  and  _46
REMARK    8  A    between atoms: _53  and  _55
REMARK                            x       y       z     vdW  Elec       q    Type
REMARK                         _______ _______ _______ _____ _____    ______ ____
ROOT
ATOM     10  C   UNL     1       0.972   3.713   3.668  0.00  0.00    +0.038 A 
ATOM     11  C   UNL     1       0.259   3.641   4.892  0.00  0.00    +0.047 A 
ATOM     12  C   UNL     1       0.953   3.458   6.157  0.00  0.00    +0.035 A 
ATOM     32  C   UNL     1       2.375   3.356   6.139  0.00  0.00    +0.024 A 
ATOM     33  C   UNL     1       3.115   3.426   4.904  0.00  0.00    +0.007 A 
ATOM     34  C   UNL     1       2.435   3.603   3.653  0.00  0.00    -0.029 A 
ATOM     35  C   UNL     1       3.280   3.665   2.358  0.00  0.00    +0.045 C 
ENDROOT
BRANCH  10   9
ATOM      4  C   UNL     1      -1.525   2.011  -0.061  0.00  0.00    +0.077 A 
ATOM      5  C   UNL     1      -1.364   0.654   0.375  0.00  0.00    +0.048 A 
ATOM      6  C   UNL     1      -0.626   0.436   1.560  0.00  0.00    +0.116 A 
ATOM      7  N   UNL     1      -0.094   1.503   2.250  0.00  0.00    -0.223 NA
ATOM      8  C   UNL     1      -0.266   2.800   1.801  0.00  0.00    +0.220 A 
ATOM      9  N   UNL     1       0.255   3.889   2.482  0.00  0.00    -0.283 N 
ATOM     36  H   UNL     1       0.112   4.829   2.115  0.00  0.00    +0.155 HD
ATOM     37  N   UNL     1      -0.965   3.034   0.671  0.00  0.00    -0.214 NA
BRANCH   4   3
ATOM      1  C   UNL     1      -3.709   3.999  -2.627  0.00  0.00    +0.020 A 
ATOM      2  C   UNL     1      -2.994   3.668  -1.415  0.00  0.00    +0.013 A 
ATOM      3  C   UNL     1      -2.282   2.403  -1.292  0.00  0.00    +0.019 A 
ATOM     38  C   UNL     1      -2.312   1.487  -2.423  0.00  0.00    +0.120 A 
ATOM     39  N   UNL     1      -3.010   1.831  -3.576  0.00  0.00    -0.263 NA
ATOM     40  C   UNL     1      -3.701   3.045  -3.705  0.00  0.00    +0.111 A 
ENDBRANCH   4   3
ENDBRANCH  10   9
BRANCH  12  13
ATOM     13  N   UNL     1       0.282   3.370   7.431  0.00  0.00    -0.281 N 
ATOM     14  C   UNL     1       0.238   2.290   8.297  0.00  0.00    +0.248 C 
ATOM     30  O   UNL     1       0.594   1.157   8.007  0.00  0.00    -0.270 OA
ATOM     31  H   UNL     1      -0.222   4.205   7.730  0.00  0.00    +0.155 HD
BRANCH  14  15
ATOM     15  C   UNL     1      -0.291   2.494   9.680  0.00  0.00    +0.037 A 
ATOM     16  C   UNL     1      -1.610   1.990  10.071  0.00  0.00    +0.013 A 
ATOM     17  C   UNL     1      -2.103   2.215  11.406  0.00  0.00    +0.005 A 
ATOM     18  C   UNL     1      -1.276   2.949  12.361  0.00  0.00    -0.033 A 
ATOM     28  C   UNL     1       0.031   3.433  11.948  0.00  0.00    +0.005 A 
ATOM     29  C   UNL     1       0.518   3.215  10.640  0.00  0.00    +0.013 A 
BRANCH  18  19
ATOM     19  C   UNL     1      -1.731   3.254  13.801  0.00  0.00    +0.119 C 
BRANCH  19  20
ATOM     20  N   UNL     1      -1.492   4.636  14.315  0.00  0.00    -0.302 NA
ATOM     21  C   UNL     1      -1.706   4.731  15.828  0.00  0.00    +0.066 C 
ATOM     22  C   UNL     1      -1.430   6.178  16.352  0.00  0.00    -0.064 C 
ATOM     23  N   UNL     1      -2.336   7.165  15.614  0.00  0.00    +0.379 N 
ATOM     24  C   UNL     1      -2.120   8.519  16.145  0.00  0.00    -0.096 C 
ATOM     25  H   UNL     1      -3.392   6.881  15.829  0.00  0.00    -0.082 HD
ATOM     26  C   UNL     1      -2.131   7.076  14.108  0.00  0.00    -0.064 C 
ATOM     27  C   UNL     1      -2.379   5.627  13.602  0.00  0.00    +0.066 C 
ENDBRANCH  19  20
ENDBRANCH  18  19
ENDBRANCH  14  15
ENDBRANCH  12  13
TORSDOF 6
ENDMDL
MODEL 2
REMARK VINA RESULT:     -11.3      4.611     13.908
REMARK  Name = C:\Users\Docking\Desktop\test protocol\1iep_ligandH.pdb
REMARK  8 active torsions:
REMARK  status: ('A' for Active; 'I' for Inactive)
REMARK    1  A    between atoms: _5  and  _11
REMARK    2  A    between atoms: _19  and  _21
REMARK    3  A    between atoms: _22  and  _66
REMARK    4  A    between atoms: _27  and  _30
REMARK    5  A    between atoms: _32  and  _33
REMARK    6  A    between atoms: _38  and  _43
REMARK    7  A    between atoms: _43  and  _46
REMARK    8  A    between atoms: _53  and  _55
REMARK                            x       y       z     vdW  Elec       q    Type
REMARK                         _______ _______ _______ _____ _____    ______ ____
ROOT
ATOM     10  C   UNL     1      -3.541   6.633  15.503  0.00  0.00    +0.038 A 
ATOM     11  C   UNL     1      -2.773   5.811  14.640  0.00  0.00    +0.047 A 
ATOM     12  C   UNL     1      -2.121   6.359  13.461  0.00  0.00    +0.035 A 
ATOM     32  C   UNL     1      -2.270   7.751  13.192  0.00  0.00    +0.024 A 
ATOM     33  C   UNL     1      -3.049   8.601  14.057  0.00  0.00    +0.007 A 
ATOM     34  C   UNL     1      -3.696   8.065  15.221  0.00  0.00    -0.029 A 
ATOM     35  C   UNL     1      -4.523   9.023  16.110  0.00  0.00    +0.045 C 
ENDROOT
BRANCH  10   9
ATOM      4  C   UNL     1      -5.830   3.021  17.682  0.00  0.00    +0.077 A 
ATOM      5  C   UNL     1      -5.848   2.232  16.485  0.00  0.00    +0.048 A 
ATOM      6  C   UNL     1      -5.264   2.794  15.328  0.00  0.00    +0.116 A 
ATOM      7  N   UNL     1      -4.706   4.054  15.376  0.00  0.00    -0.223 NA
ATOM      8  C   UNL     1      -4.707   4.789  16.547  0.00  0.00    +0.220 A 
ATOM      9  N   UNL     1      -4.145   6.054  16.621  0.00  0.00    -0.283 N 
ATOM     36  H   UNL     1      -4.172   6.568  17.502  0.00  0.00    +0.155 HD
ATOM     37  N   UNL     1      -5.260   4.275  17.665  0.00  0.00    -0.214 NA
BRANCH   4   3
ATOM      1  C   UNL     1      -6.936   0.784  20.694  0.00  0.00    +0.020 A 
ATOM      2  C   UNL     1      -6.367   1.174  19.425  0.00  0.00    +0.013 A 
ATOM      3  C   UNL     1      -6.404   2.563  18.987  0.00  0.00    +0.019 A 
ATOM     38  C   UNL     1      -7.029   3.541  19.864  0.00  0.00    +0.120 A 
ATOM     39  N   UNL     1      -7.570   3.136  21.081  0.00  0.00    -0.263 NA
ATOM     40  C   UNL     1      -7.541   1.802  21.512  0.00  0.00    +0.111 A 
ENDBRANCH   4   3
ENDBRANCH  10   9
BRANCH  12  13
ATOM     13  N   UNL     1      -1.335   5.571  12.544  0.00  0.00    -0.281 N 
ATOM     14  C   UNL     1      -0.002   5.210  12.657  0.00  0.00    +0.248 C 
ATOM     30  O   UNL     1       0.778   5.692  13.465  0.00  0.00    -0.270 OA
ATOM     31  H   UNL     1      -1.820   5.239  11.710  0.00  0.00    +0.155 HD
BRANCH  14  15
ATOM     15  C   UNL     1       0.546   4.174  11.730  0.00  0.00    +0.037 A 
ATOM     16  C   UNL     1      -0.249   3.008  11.336  0.00  0.00    +0.013 A 
ATOM     17  C   UNL     1       0.310   2.015  10.454  0.00  0.00    +0.005 A 
ATOM     18  C   UNL     1       1.674   2.185   9.958  0.00  0.00    -0.033 A 
ATOM     28  C   UNL     1       2.439   3.353  10.360  0.00  0.00    +0.005 A 
ATOM     29  C   UNL     1       1.894   4.328  11.225  0.00  0.00    +0.013 A 
BRANCH  18  19
ATOM     19  C   UNL     1       2.359   1.164   9.030  0.00  0.00    +0.119 C 
BRANCH  19  20
ATOM     20  N   UNL     1       2.471   1.523   7.584  0.00  0.00    -0.302 NA
ATOM     21  C   UNL     1       3.734   2.338   7.291  0.00  0.00    +0.066 C 
ATOM     22  C   UNL     1       3.847   2.685   5.771  0.00  0.00    -0.064 C 
ATOM     23  N   UNL     1       2.596   3.446   5.330  0.00  0.00    +0.379 N 
ATOM     24  C   UNL     1       2.725   3.825   3.915  0.00  0.00    -0.096 C 
ATOM     25  H   UNL     1       2.543   4.386   5.928  0.00  0.00    -0.082 HD
ATOM     26  C   UNL     1       1.336   2.644   5.620  0.00  0.00    -0.064 C 
ATOM     27  C   UNL     1       1.248   2.279   7.128  0.00  0.00    +0.066 C 
ENDBRANCH  19  20
ENDBRANCH  18  19
ENDBRANCH  14  15
ENDBRANCH  12  13
TORSDOF 6
ENDMDL
MODEL 3
REMARK VINA RESULT:     -11.2      2.222      3.558
REMARK  Name = C:\Users\Docking\Desktop\test protocol\1iep_ligandH.pdb
REMARK  8 active torsions:
REMARK  status: ('A' for Active; 'I' for Inactive)
REMARK    1  A    between atoms: _5  and  _11
REMARK    2  A    between atoms: _19  and  _21
REMARK    3  A    between atoms: _22  and  _66
REMARK    4  A    between atoms: _27  and  _30
REMARK    5  A    between atoms: _32  and  _33
REMARK    6  A    between atoms: _38  and  _43
REMARK    7  A    between atoms: _43  and  _46
REMARK    8  A    between atoms: _53  and  _55
REMARK                            x       y       z     vdW  Elec       q    Type
REMARK                         _______ _______ _______ _____ _____    ______ ____
ROOT
ATOM     10  C   UNL     1       1.311   2.271   6.681  0.00  0.00    +0.038 A 
ATOM     11  C   UNL     1       0.380   2.720   7.652  0.00  0.00    +0.047 A 
ATOM     12  C   UNL     1       0.822   3.396   8.862  0.00  0.00    +0.035 A 
ATOM     32  C   UNL     1       2.220   3.600   9.050  0.00  0.00    +0.024 A 
ATOM     33  C   UNL     1       3.181   3.149   8.073  0.00  0.00    +0.007 A 
ATOM     34  C   UNL     1       2.751   2.480   6.879  0.00  0.00    -0.029 A 
ATOM     35  C   UNL     1       3.825   2.013   5.870  0.00  0.00    +0.045 C 
ENDROOT
BRANCH  10   9
ATOM      4  C   UNL     1       0.070   2.249   2.044  0.00  0.00    +0.077 A 
ATOM      5  C   UNL     1       0.377   3.642   1.894  0.00  0.00    +0.048 A 
ATOM      6  C   UNL     1       0.845   4.330   3.036  0.00  0.00    +0.116 A 
ATOM      7  N   UNL     1       0.992   3.664   4.234  0.00  0.00    -0.223 NA
ATOM      8  C   UNL     1       0.685   2.320   4.345  0.00  0.00    +0.220 A 
ATOM      9  N   UNL     1       0.832   1.629   5.537  0.00  0.00    -0.283 N 
ATOM     36  H   UNL     1       0.588   0.640   5.580  0.00  0.00    +0.155 HD
ATOM     37  N   UNL     1       0.234   1.641   3.269  0.00  0.00    -0.214 NA
BRANCH   4   3
ATOM      1  C   UNL     1      -1.793  -0.539   0.030  0.00  0.00    +0.020 A 
ATOM      2  C   UNL     1      -1.338   0.263   1.142  0.00  0.00    +0.013 A 
ATOM      3  C   UNL     1      -0.432   1.385   0.929  0.00  0.00    +0.019 A 
ATOM     38  C   UNL     1      -0.002   1.671  -0.432  0.00  0.00    +0.120 A 
ATOM     39  N   UNL     1      -0.456   0.880  -1.482  0.00  0.00    -0.263 NA
ATOM     40  C   UNL     1      -1.326  -0.203  -1.290  0.00  0.00    +0.111 A 
ENDBRANCH   4   3
ENDBRANCH  10   9
BRANCH  12  13
ATOM     13  N   UNL     1      -0.076   3.867   9.887  0.00  0.00    -0.281 N 
ATOM     14  C   UNL     1      -0.483   3.203  11.033  0.00  0.00    +0.248 C 
ATOM     30  O   UNL     1      -0.301   2.013  11.244  0.00  0.00    -0.270 OA
ATOM     31  H   UNL     1      -0.459   4.802   9.751  0.00  0.00    +0.155 HD
BRANCH  14  15
ATOM     15  C   UNL     1      -1.209   3.969  12.091  0.00  0.00    +0.037 A 
ATOM     16  C   UNL     1      -2.209   3.324  12.946  0.00  0.00    +0.013 A 
ATOM     17  C   UNL     1      -2.907   4.090  13.948  0.00  0.00    +0.005 A 
ATOM     18  C   UNL     1      -2.606   5.511  14.101  0.00  0.00    -0.033 A 
ATOM     28  C   UNL     1      -1.606   6.125  13.244  0.00  0.00    +0.005 A 
ATOM     29  C   UNL     1      -0.920   5.378  12.260  0.00  0.00    +0.013 A 
BRANCH  18  19
ATOM     19  C   UNL     1      -3.317   6.410  15.130  0.00  0.00    +0.119 C 
BRANCH  19  20
ATOM     20  N   UNL     1      -3.169   7.887  14.965  0.00  0.00    -0.302 NA
ATOM     21  C   UNL     1      -2.556   8.544  16.205  0.00  0.00    +0.066 C 
ATOM     22  C   UNL     1      -2.386  10.086  16.007  0.00  0.00    -0.064 C 
ATOM     23  N   UNL     1      -3.745  10.708  15.681  0.00  0.00    +0.379 N 
ATOM     24  C   UNL     1      -3.600  12.165  15.551  0.00  0.00    -0.096 C 
ATOM     25  H   UNL     1      -4.423  10.511  16.543  0.00  0.00    -0.082 HD
ATOM     26  C   UNL     1      -4.363  10.058  14.451  0.00  0.00    -0.064 C 
ATOM     27  C   UNL     1      -4.500   8.522  14.646  0.00  0.00    +0.066 C 
ENDBRANCH  19  20
ENDBRANCH  18  19
ENDBRANCH  14  15
ENDBRANCH  12  13
TORSDOF 6
ENDMDL
MODEL 4
REMARK VINA RESULT:     -10.9      1.953     12.634
REMARK  Name = C:\Users\Docking\Desktop\test protocol\1iep_ligandH.pdb
REMARK  8 active torsions:
REMARK  status: ('A' for Active; 'I' for Inactive)
REMARK    1  A    between atoms: _5  and  _11
REMARK    2  A    between atoms: _19  and  _21
REMARK    3  A    between atoms: _22  and  _66
REMARK    4  A    between atoms: _27  and  _30
REMARK    5  A    between atoms: _32  and  _33
REMARK    6  A    between atoms: _38  and  _43
REMARK    7  A    between atoms: _43  and  _46
REMARK    8  A    between atoms: _53  and  _55
REMARK                            x       y       z     vdW  Elec       q    Type
REMARK                         _______ _______ _______ _____ _____    ______ ____
ROOT
ATOM     10  C   UNL     1       1.257   3.539   8.676  0.00  0.00    +0.038 A 
ATOM     11  C   UNL     1       0.561   3.432   7.445  0.00  0.00    +0.047 A 
ATOM     12  C   UNL     1       1.100   2.653   6.341  0.00  0.00    +0.035 A 
ATOM     32  C   UNL     1       2.350   1.993   6.526  0.00  0.00    +0.024 A 
ATOM     33  C   UNL     1       3.072   2.092   7.770  0.00  0.00    +0.007 A 
ATOM     34  C   UNL     1       2.546   2.861   8.861  0.00  0.00    -0.029 A 
ATOM     35  C   UNL     1       3.367   2.938  10.170  0.00  0.00    +0.045 C 
ENDROOT
BRANCH  10   9
ATOM      4  C   UNL     1      -1.551   4.016  12.539  0.00  0.00    +0.077 A 
ATOM      5  C   UNL     1      -1.950   2.639  12.492  0.00  0.00    +0.048 A 
ATOM      6  C   UNL     1      -1.416   1.843  11.453  0.00  0.00    +0.116 A 
ATOM      7  N   UNL     1      -0.547   2.394  10.536  0.00  0.00    -0.223 NA
ATOM      8  C   UNL     1      -0.184   3.727  10.609  0.00  0.00    +0.220 A 
ATOM      9  N   UNL     1       0.694   4.300   9.702  0.00  0.00    -0.283 N 
ATOM     36  H   UNL     1       0.931   5.288   9.786  0.00  0.00    +0.155 HD
ATOM     37  N   UNL     1      -0.682   4.508  11.590  0.00  0.00    -0.214 NA
BRANCH   4   3
ATOM      1  C   UNL     1      -2.611   7.306  14.370  0.00  0.00    +0.020 A 
ATOM      2  C   UNL     1      -2.145   6.415  13.333  0.00  0.00    +0.013 A 
ATOM      3  C   UNL     1      -2.027   4.983  13.578  0.00  0.00    +0.019 A 
ATOM     38  C   UNL     1      -2.393   4.480  14.893  0.00  0.00    +0.120 A 
ATOM     39  N   UNL     1      -2.838   5.362  15.873  0.00  0.00    -0.263 NA
ATOM     40  C   UNL     1      -2.953   6.743  15.650  0.00  0.00    +0.111 A 
ENDBRANCH   4   3
ENDBRANCH  10   9
BRANCH  12  13
ATOM     13  N   UNL     1       0.441   2.514   5.065  0.00  0.00    -0.281 N 
ATOM     14  C   UNL     1       0.851   3.008   3.837  0.00  0.00    +0.248 C 
ATOM     30  O   UNL     1       1.742   3.831   3.686  0.00  0.00    -0.270 OA
ATOM     31  H   UNL     1      -0.433   1.989   5.068  0.00  0.00    +0.155 HD
BRANCH  14  15
ATOM     15  C   UNL     1       0.162   2.530   2.600  0.00  0.00    +0.037 A 
ATOM     16  C   UNL     1      -0.250   1.132   2.452  0.00  0.00    +0.013 A 
ATOM     17  C   UNL     1      -0.898   0.693   1.242  0.00  0.00    +0.005 A 
ATOM     18  C   UNL     1      -1.139   1.655   0.169  0.00  0.00    -0.033 A 
ATOM     28  C   UNL     1      -0.725   3.037   0.345  0.00  0.00    +0.005 A 
ATOM     29  C   UNL     1      -0.088   3.471   1.529  0.00  0.00    +0.013 A 
BRANCH  18  19
ATOM     19  C   UNL     1      -1.805   1.271  -1.165  0.00  0.00    +0.119 C 
BRANCH  19  20
ATOM     20  N   UNL     1      -2.974   2.089  -1.607  0.00  0.00    -0.302 NA
ATOM     21  C   UNL     1      -4.250   1.728  -0.841  0.00  0.00    +0.066 C 
ATOM     22  C   UNL     1      -5.457   2.609  -1.300  0.00  0.00    -0.064 C 
ATOM     23  N   UNL     1      -5.664   2.441  -2.806  0.00  0.00    +0.379 N 
ATOM     24  C   UNL     1      -6.835   3.223  -3.230  0.00  0.00    -0.096 C 
ATOM     25  H   UNL     1      -5.887   1.366  -2.999  0.00  0.00    -0.082 HD
ATOM     26  C   UNL     1      -4.399   2.795  -3.575  0.00  0.00    -0.064 C 
ATOM     27  C   UNL     1      -3.199   1.935  -3.091  0.00  0.00    +0.066 C 
ENDBRANCH  19  20
ENDBRANCH  18  19
ENDBRANCH  14  15
ENDBRANCH  12  13
TORSDOF 6
ENDMDL
MODEL 5
REMARK VINA RESULT:     -10.5      2.328     12.258
REMARK  Name = C:\Users\Docking\Desktop\test protocol\1iep_ligandH.pdb
REMARK  8 active torsions:
REMARK  status: ('A' for Active; 'I' for Inactive)
REMARK    1  A    between atoms: _5  and  _11
REMARK    2  A    between atoms: _19  and  _21
REMARK    3  A    between atoms: _22  and  _66
REMARK    4  A    between atoms: _27  and  _30
REMARK    5  A    between atoms: _32  and  _33
REMARK    6  A    between atoms: _38  and  _43
REMARK    7  A    between atoms: _43  and  _46
REMARK    8  A    between atoms: _53  and  _55
REMARK                            x       y       z     vdW  Elec       q    Type
REMARK                         _______ _______ _______ _____ _____    ______ ____
ROOT
ATOM     10  C   UNL     1       1.163   3.564   8.388  0.00  0.00    +0.038 A 
ATOM     11  C   UNL     1       0.455   3.406   7.170  0.00  0.00    +0.047 A 
ATOM     12  C   UNL     1       1.020   2.649   6.063  0.00  0.00    +0.035 A 
ATOM     32  C   UNL     1       2.308   2.063   6.234  0.00  0.00    +0.024 A 
ATOM     33  C   UNL     1       3.042   2.214   7.466  0.00  0.00    +0.007 A 
ATOM     34  C   UNL     1       2.491   2.962   8.559  0.00  0.00    -0.029 A 
ATOM     35  C   UNL     1       3.325   3.097   9.854  0.00  0.00    +0.045 C 
ENDROOT
BRANCH  10   9
ATOM      4  C   UNL     1      -1.528   3.900  12.349  0.00  0.00    +0.077 A 
ATOM      5  C   UNL     1      -1.803   2.492  12.353  0.00  0.00    +0.048 A 
ATOM      6  C   UNL     1      -1.240   1.718  11.314  0.00  0.00    +0.116 A 
ATOM      7  N   UNL     1      -0.460   2.317  10.349  0.00  0.00    -0.223 NA
ATOM      8  C   UNL     1      -0.215   3.678  10.373  0.00  0.00    +0.220 A 
ATOM      9  N   UNL     1       0.573   4.301   9.418  0.00  0.00    -0.283 N 
ATOM     36  H   UNL     1       0.723   5.308   9.467  0.00  0.00    +0.155 HD
ATOM     37  N   UNL     1      -0.743   4.440  11.354  0.00  0.00    -0.214 NA
BRANCH   4   3
ATOM      1  C   UNL     1      -3.238   5.369  15.545  0.00  0.00    +0.020 A 
ATOM      2  C   UNL     1      -2.755   4.410  14.579  0.00  0.00    +0.013 A 
ATOM      3  C   UNL     1      -2.049   4.850  13.382  0.00  0.00    +0.019 A 
ATOM     38  C   UNL     1      -1.847   6.279  13.192  0.00  0.00    +0.120 A 
ATOM     39  N   UNL     1      -2.325   7.179  14.139  0.00  0.00    -0.263 NA
ATOM     40  C   UNL     1      -3.006   6.767  15.294  0.00  0.00    +0.111 A 
ENDBRANCH   4   3
ENDBRANCH  10   9
BRANCH  12  13
ATOM     13  N   UNL     1       0.351   2.462   4.800  0.00  0.00    -0.281 N 
ATOM     14  C   UNL     1       0.661   3.038   3.579  0.00  0.00    +0.248 C 
ATOM     30  O   UNL     1       1.435   3.973   3.432  0.00  0.00    -0.270 OA
ATOM     31  H   UNL     1      -0.448   1.828   4.806  0.00  0.00    +0.155 HD
BRANCH  14  15
ATOM     15  C   UNL     1       0.006   2.509   2.344  0.00  0.00    +0.037 A 
ATOM     16  C   UNL     1      -0.280   3.382   1.202  0.00  0.00    +0.013 A 
ATOM     17  C   UNL     1      -0.928   2.850   0.029  0.00  0.00    +0.005 A 
ATOM     18  C   UNL     1      -1.293   1.436  -0.007  0.00  0.00    -0.033 A 
ATOM     28  C   UNL     1      -0.993   0.592   1.137  0.00  0.00    +0.005 A 
ATOM     29  C   UNL     1      -0.359   1.110   2.288  0.00  0.00    +0.013 A 
BRANCH  18  19
ATOM     19  C   UNL     1      -2.006   0.787  -1.209  0.00  0.00    +0.119 C 
BRANCH  19  20
ATOM     20  N   UNL     1      -3.495   0.889  -1.256  0.00  0.00    -0.302 NA
ATOM     21  C   UNL     1      -3.982   2.318  -1.000  0.00  0.00    +0.066 C 
ATOM     22  C   UNL     1      -5.541   2.410  -1.075  0.00  0.00    -0.064 C 
ATOM     23  N   UNL     1      -6.156   1.439  -0.066  0.00  0.00    +0.379 N 
ATOM     24  C   UNL     1      -7.621   1.565  -0.093  0.00  0.00    -0.096 C 
ATOM     25  H   UNL     1      -5.809   1.742   0.949  0.00  0.00    -0.082 HD
ATOM     26  C   UNL     1      -5.675   0.016  -0.312  0.00  0.00    -0.064 C 
ATOM     27  C   UNL     1      -4.123  -0.059  -0.264  0.00  0.00    +0.066 C 
ENDBRANCH  19  20
ENDBRANCH  18  19
ENDBRANCH  14  15
ENDBRANCH  12  13
TORSDOF 6
ENDMDL
