MODEL 1
REMARK VINA RESULT:      -7.5      0.000      0.000
REMARK  Name = C:\Users\Docking\Desktop\test protocol\1iep_ligandH.pdb
REMARK  8 active torsions:
REMARK  status: ('A' for Active; 'I' for Inactive)
REMARK    1  A    between atoms: _5  and  _11
REMARK    2  A    between atoms: _19  and  _21
REMARK    3  A    between atoms: _22  and  _66
REMARK    4  A    between atoms: _27  and  _30
REMARK    5  A    between atoms: _32  and  _33
REMARK    6  A    between atoms: _38  and  _43
REMARK    7  A    between atoms: _43  and  _46
REMARK    8  A    between atoms: _53  and  _55
REMARK                            x       y       z     vdW  Elec       q    Type
REMARK                         _______ _______ _______ _____ _____    ______ ____
ROOT
ATOM     10  C   UNL     1      82.964  77.816  95.984  0.00  0.00    +0.038 A 
ATOM     11  C   UNL     1      83.705  76.608  95.920  0.00  0.00    +0.047 A 
ATOM     12  C   UNL     1      83.208  75.458  95.182  0.00  0.00    +0.035 A 
ATOM     32  C   UNL     1      81.952  75.572  94.518  0.00  0.00    +0.024 A 
ATOM     33  C   UNL     1      81.184  76.791  94.574  0.00  0.00    +0.007 A 
ATOM     34  C   UNL     1      81.669  77.929  95.302  0.00  0.00    -0.029 A 
ATOM     35  C   UNL     1      80.800  79.208  95.333  0.00  0.00    +0.045 C 
ENDROOT
BRANCH  10   9
ATOM      4  C   UNL     1      84.058  80.008 100.111  0.00  0.00    +0.077 A 
ATOM      5  C   UNL     1      83.514  78.936 100.893  0.00  0.00    +0.048 A 
ATOM      6  C   UNL     1      82.955  77.842 100.195  0.00  0.00    +0.116 A 
ATOM      7  N   UNL     1      82.947  77.831  98.817  0.00  0.00    -0.223 NA
ATOM      8  C   UNL     1      83.479  78.882  98.093  0.00  0.00    +0.220 A 
ATOM      9  N   UNL     1      83.489  78.889  96.707  0.00  0.00    -0.283 N 
ATOM     36  H   UNL     1      83.883  79.687  96.209  0.00  0.00    +0.155 HD
ATOM     37  N   UNL     1      84.017  79.939  98.736  0.00  0.00    -0.214 NA
BRANCH   4   3
ATOM      1  C   UNL     1      85.984  82.430 102.504  0.00  0.00    +0.020 A 
ATOM      2  C   UNL     1      85.395  81.221 101.977  0.00  0.00    +0.013 A 
ATOM      3  C   UNL     1      84.687  81.231 100.703  0.00  0.00    +0.019 A 
ATOM     38  C   UNL     1      84.592  82.492  99.981  0.00  0.00    +0.120 A 
ATOM     39  N   UNL     1      85.168  83.640 100.515  0.00  0.00    -0.263 NA
ATOM     40  C   UNL     1      85.851  83.643 101.740  0.00  0.00    +0.111 A 
ENDBRANCH   4   3
ENDBRANCH  10   9
BRANCH  12  13
ATOM     13  N   UNL     1      83.913  74.203  95.089  0.00  0.00    -0.281 N 
ATOM     14  C   UNL     1      83.662  73.031  95.784  0.00  0.00    +0.248 C 
ATOM     30  O   UNL     1      82.922  72.947  96.752  0.00  0.00    -0.270 OA
ATOM     31  H   UNL     1      84.692  74.176  94.431  0.00  0.00    +0.155 HD
BRANCH  14  15
ATOM     15  C   UNL     1      84.342  71.774  95.348  0.00  0.00    +0.037 A 
ATOM     16  C   UNL     1      85.004  70.894  96.314  0.00  0.00    +0.013 A 
ATOM     17  C   UNL     1      85.667  69.695  95.865  0.00  0.00    +0.005 A 
ATOM     18  C   UNL     1      85.670  69.369  94.441  0.00  0.00    -0.033 A 
ATOM     28  C   UNL     1      85.001  70.257  93.505  0.00  0.00    +0.005 A 
ATOM     29  C   UNL     1      84.351  71.433  93.941  0.00  0.00    +0.013 A 
BRANCH  18  19
ATOM     19  C   UNL     1      86.371  68.123  93.870  0.00  0.00    +0.119 C 
BRANCH  19  20
ATOM     20  N   UNL     1      85.814  67.541  92.613  0.00  0.00    -0.302 NA
ATOM     21  C   UNL     1      85.603  66.028  92.724  0.00  0.00    +0.066 C 
ATOM     22  C   UNL     1      84.999  65.439  91.408  0.00  0.00    -0.064 C 
ATOM     23  N   UNL     1      85.920  65.772  90.233  0.00  0.00    +0.379 N 
ATOM     24  C   UNL     1      85.384  65.170  89.004  0.00  0.00    -0.096 C 
ATOM     25  H   UNL     1      86.910  65.302  90.436  0.00  0.00    -0.082 HD
ATOM     26  C   UNL     1      86.137  67.274  90.117  0.00  0.00    -0.064 C 
ATOM     27  C   UNL     1      86.710  67.854  91.440  0.00  0.00    +0.066 C 
ENDBRANCH  19  20
ENDBRANCH  18  19
ENDBRANCH  14  15
ENDBRANCH  12  13
TORSDOF 6
ENDMDL
MODEL 2
REMARK VINA RESULT:      -7.4     16.804     22.042
REMARK  Name = C:\Users\Docking\Desktop\test protocol\1iep_ligandH.pdb
REMARK  8 active torsions:
REMARK  status: ('A' for Active; 'I' for Inactive)
REMARK    1  A    between atoms: _5  and  _11
REMARK    2  A    between atoms: _19  and  _21
REMARK    3  A    between atoms: _22  and  _66
REMARK    4  A    between atoms: _27  and  _30
REMARK    5  A    between atoms: _32  and  _33
REMARK    6  A    between atoms: _38  and  _43
REMARK    7  A    between atoms: _43  and  _46
REMARK    8  A    between atoms: _53  and  _55
REMARK                            x       y       z     vdW  Elec       q    Type
REMARK                         _______ _______ _______ _____ _____    ______ ____
ROOT
ATOM     10  C   UNL     1      99.099  60.994  93.986  0.00  0.00    +0.038 A 
ATOM     11  C   UNL     1      97.754  60.807  94.394  0.00  0.00    +0.047 A 
ATOM     12  C   UNL     1      96.647  61.140  93.511  0.00  0.00    +0.035 A 
ATOM     32  C   UNL     1      96.946  61.658  92.217  0.00  0.00    +0.024 A 
ATOM     33  C   UNL     1      98.308  61.855  91.787  0.00  0.00    +0.007 A 
ATOM     34  C   UNL     1      99.404  61.531  92.654  0.00  0.00    -0.029 A 
ATOM     35  C   UNL     1     100.844  61.768  92.142  0.00  0.00    +0.045 C 
ENDROOT
BRANCH  10   9
ATOM      4  C   UNL     1     102.446  57.977  95.641  0.00  0.00    +0.077 A 
ATOM      5  C   UNL     1     102.107  56.976  94.670  0.00  0.00    +0.048 A 
ATOM      6  C   UNL     1     101.061  57.274  93.768  0.00  0.00    +0.116 A 
ATOM      7  N   UNL     1     100.410  58.486  93.840  0.00  0.00    -0.223 NA
ATOM      8  C   UNL     1     100.760  59.429  94.789  0.00  0.00    +0.220 A 
ATOM      9  N   UNL     1     100.123  60.657  94.874  0.00  0.00    -0.283 N 
ATOM     36  H   UNL     1     100.406  61.323  95.593  0.00  0.00    +0.155 HD
ATOM     37  N   UNL     1     101.754  59.168  95.663  0.00  0.00    -0.214 NA
BRANCH   4   3
ATOM      1  C   UNL     1     105.761  58.419  97.669  0.00  0.00    +0.020 A 
ATOM      2  C   UNL     1     104.744  58.618  96.662  0.00  0.00    +0.013 A 
ATOM      3  C   UNL     1     103.530  57.812  96.660  0.00  0.00    +0.019 A 
ATOM     38  C   UNL     1     103.373  56.806  97.699  0.00  0.00    +0.120 A 
ATOM     39  N   UNL     1     104.370  56.635  98.655  0.00  0.00    -0.263 NA
ATOM     40  C   UNL     1     105.543  57.404  98.666  0.00  0.00    +0.111 A 
ENDBRANCH   4   3
ENDBRANCH  10   9
BRANCH  12  13
ATOM     13  N   UNL     1      95.260  60.980  93.873  0.00  0.00    -0.281 N 
ATOM     14  C   UNL     1      94.616  59.826  94.287  0.00  0.00    +0.248 C 
ATOM     30  O   UNL     1      95.089  58.702  94.202  0.00  0.00    -0.270 OA
ATOM     31  H   UNL     1      94.684  61.820  93.818  0.00  0.00    +0.155 HD
BRANCH  14  15
ATOM     15  C   UNL     1      93.241  59.933  94.864  0.00  0.00    +0.037 A 
ATOM     16  C   UNL     1      92.197  58.963  94.526  0.00  0.00    +0.013 A 
ATOM     17  C   UNL     1      90.875  59.100  95.084  0.00  0.00    +0.005 A 
ATOM     18  C   UNL     1      90.590  60.212  95.988  0.00  0.00    -0.033 A 
ATOM     28  C   UNL     1      91.646  61.157  96.310  0.00  0.00    +0.005 A 
ATOM     29  C   UNL     1      92.943  61.027  95.764  0.00  0.00    +0.013 A 
BRANCH  18  19
ATOM     19  C   UNL     1      89.202  60.448  96.612  0.00  0.00    +0.119 C 
BRANCH  19  20
ATOM     20  N   UNL     1      88.787  59.535  97.719  0.00  0.00    -0.302 NA
ATOM     21  C   UNL     1      89.960  59.167  98.631  0.00  0.00    +0.066 C 
ATOM     22  C   UNL     1      89.503  58.230  99.797  0.00  0.00    -0.064 C 
ATOM     23  N   UNL     1      88.856  56.973  99.213  0.00  0.00    +0.379 N 
ATOM     24  C   UNL     1      88.478  56.064 100.304  0.00  0.00    -0.096 C 
ATOM     25  H   UNL     1      89.623  56.455  98.591  0.00  0.00    -0.082 HD
ATOM     26  C   UNL     1      87.690  57.330  98.302  0.00  0.00    -0.064 C 
ATOM     27  C   UNL     1      88.149  58.285  97.165  0.00  0.00    +0.066 C 
ENDBRANCH  19  20
ENDBRANCH  18  19
ENDBRANCH  14  15
ENDBRANCH  12  13
TORSDOF 6
ENDMDL
MODEL 3
REMARK VINA RESULT:      -7.3      3.223     12.649
REMARK  Name = C:\Users\Docking\Desktop\test protocol\1iep_ligandH.pdb
REMARK  8 active torsions:
REMARK  status: ('A' for Active; 'I' for Inactive)
REMARK    1  A    between atoms: _5  and  _11
REMARK    2  A    between atoms: _19  and  _21
REMARK    3  A    between atoms: _22  and  _66
REMARK    4  A    between atoms: _27  and  _30
REMARK    5  A    between atoms: _32  and  _33
REMARK    6  A    between atoms: _38  and  _43
REMARK    7  A    between atoms: _43  and  _46
REMARK    8  A    between atoms: _53  and  _55
REMARK                            x       y       z     vdW  Elec       q    Type
REMARK                         _______ _______ _______ _____ _____    ______ ____
ROOT
ATOM     10  C   UNL     1      82.083  72.210  96.063  0.00  0.00    +0.038 A 
ATOM     11  C   UNL     1      82.668  73.502  96.036  0.00  0.00    +0.047 A 
ATOM     12  C   UNL     1      82.191  74.563  96.909  0.00  0.00    +0.035 A 
ATOM     32  C   UNL     1      81.117  74.272  97.801  0.00  0.00    +0.024 A 
ATOM     33  C   UNL     1      80.510  72.965  97.841  0.00  0.00    +0.007 A 
ATOM     34  C   UNL     1      80.975  71.916  96.980  0.00  0.00    -0.029 A 
ATOM     35  C   UNL     1      80.283  70.535  97.062  0.00  0.00    +0.045 C 
ENDROOT
BRANCH  10   9
ATOM      4  C   UNL     1      85.537  69.212  94.609  0.00  0.00    +0.077 A 
ATOM      5  C   UNL     1      86.437  69.657  95.634  0.00  0.00    +0.048 A 
ATOM      6  C   UNL     1      85.974  70.664  96.511  0.00  0.00    +0.116 A 
ATOM      7  N   UNL     1      84.705  71.180  96.364  0.00  0.00    -0.223 NA
ATOM      8  C   UNL     1      83.864  70.730  95.364  0.00  0.00    +0.220 A 
ATOM      9  N   UNL     1      82.580  71.229  95.203  0.00  0.00    -0.283 N 
ATOM     36  H   UNL     1      81.993  70.876  94.447  0.00  0.00    +0.155 HD
ATOM     37  N   UNL     1      84.282  69.770  94.513  0.00  0.00    -0.214 NA
BRANCH   4   3
ATOM      1  C   UNL     1      87.428  66.421  92.626  0.00  0.00    +0.020 A 
ATOM      2  C   UNL     1      87.148  67.436  93.615  0.00  0.00    +0.013 A 
ATOM      3  C   UNL     1      85.879  68.152  93.608  0.00  0.00    +0.019 A 
ATOM     38  C   UNL     1      84.907  67.815  92.579  0.00  0.00    +0.120 A 
ATOM     39  N   UNL     1      85.205  66.834  91.639  0.00  0.00    -0.263 NA
ATOM     40  C   UNL     1      86.424  66.139  91.635  0.00  0.00    +0.111 A 
ENDBRANCH   4   3
ENDBRANCH  10   9
BRANCH  12  13
ATOM     13  N   UNL     1      82.740  75.896  96.920  0.00  0.00    -0.281 N 
ATOM     14  C   UNL     1      82.644  76.865  95.935  0.00  0.00    +0.248 C 
ATOM     30  O   UNL     1      82.249  76.657  94.797  0.00  0.00    -0.270 OA
ATOM     31  H   UNL     1      83.264  76.157  97.756  0.00  0.00    +0.155 HD
BRANCH  14  15
ATOM     15  C   UNL     1      83.060  78.264  96.255  0.00  0.00    +0.037 A 
ATOM     16  C   UNL     1      82.200  79.406  95.931  0.00  0.00    +0.013 A 
ATOM     17  C   UNL     1      82.633  80.747  96.235  0.00  0.00    +0.005 A 
ATOM     18  C   UNL     1      83.933  80.953  96.870  0.00  0.00    -0.033 A 
ATOM     28  C   UNL     1      84.763  79.802  97.185  0.00  0.00    +0.005 A 
ATOM     29  C   UNL     1      84.343  78.487  96.887  0.00  0.00    +0.013 A 
BRANCH  18  19
ATOM     19  C   UNL     1      84.484  82.350  97.211  0.00  0.00    +0.119 C 
BRANCH  19  20
ATOM     20  N   UNL     1      85.639  82.845  96.404  0.00  0.00    -0.302 NA
ATOM     21  C   UNL     1      86.346  84.025  97.077  0.00  0.00    +0.066 C 
ATOM     22  C   UNL     1      87.566  84.516  96.230  0.00  0.00    -0.064 C 
ATOM     23  N   UNL     1      87.089  84.898  94.828  0.00  0.00    +0.379 N 
ATOM     24  C   UNL     1      88.223  85.414  94.048  0.00  0.00    -0.096 C 
ATOM     25  H   UNL     1      86.348  85.724  94.936  0.00  0.00    -0.082 HD
ATOM     26  C   UNL     1      86.383  83.730  94.153  0.00  0.00    -0.064 C 
ATOM     27  C   UNL     1      85.190  83.232  95.017  0.00  0.00    +0.066 C 
ENDBRANCH  19  20
ENDBRANCH  18  19
ENDBRANCH  14  15
ENDBRANCH  12  13
TORSDOF 6
ENDMDL
MODEL 4
REMARK VINA RESULT:      -7.3      3.836      6.635
REMARK  Name = C:\Users\Docking\Desktop\test protocol\1iep_ligandH.pdb
REMARK  8 active torsions:
REMARK  status: ('A' for Active; 'I' for Inactive)
REMARK    1  A    between atoms: _5  and  _11
REMARK    2  A    between atoms: _19  and  _21
REMARK    3  A    between atoms: _22  and  _66
REMARK    4  A    between atoms: _27  and  _30
REMARK    5  A    between atoms: _32  and  _33
REMARK    6  A    between atoms: _38  and  _43
REMARK    7  A    between atoms: _43  and  _46
REMARK    8  A    between atoms: _53  and  _55
REMARK                            x       y       z     vdW  Elec       q    Type
REMARK                         _______ _______ _______ _____ _____    ______ ____
ROOT
ATOM     10  C   UNL     1      85.477  80.806 101.638  0.00  0.00    +0.038 A 
ATOM     11  C   UNL     1      85.316  79.590 100.926  0.00  0.00    +0.047 A 
ATOM     12  C   UNL     1      84.628  79.554  99.645  0.00  0.00    +0.035 A 
ATOM     32  C   UNL     1      84.118  80.776  99.117  0.00  0.00    +0.024 A 
ATOM     33  C   UNL     1      84.272  82.021  99.828  0.00  0.00    +0.007 A 
ATOM     34  C   UNL     1      84.948  82.062 101.093  0.00  0.00    -0.029 A 
ATOM     35  C   UNL     1      85.078  83.424 101.814  0.00  0.00    +0.045 C 
ENDROOT
BRANCH  10   9
ATOM      4  C   UNL     1      85.595  80.099 106.384  0.00  0.00    +0.077 A 
ATOM      5  C   UNL     1      84.198  79.774 106.430  0.00  0.00    +0.048 A 
ATOM      6  C   UNL     1      83.484  79.807 105.211  0.00  0.00    +0.116 A 
ATOM      7  N   UNL     1      84.129  80.142 104.040  0.00  0.00    -0.223 NA
ATOM      8  C   UNL     1      85.476  80.452 104.031  0.00  0.00    +0.220 A 
ATOM      9  N   UNL     1      86.147  80.783 102.864  0.00  0.00    -0.283 N 
ATOM     36  H   UNL     1      87.139  81.013 102.900  0.00  0.00    +0.155 HD
ATOM     37  N   UNL     1      86.180  80.429 105.182  0.00  0.00    -0.214 NA
BRANCH   4   3
ATOM      1  C   UNL     1      87.726  78.951 109.456  0.00  0.00    +0.020 A 
ATOM      2  C   UNL     1      86.863  78.890 108.299  0.00  0.00    +0.013 A 
ATOM      3  C   UNL     1      86.485  80.105 107.588  0.00  0.00    +0.019 A 
ATOM     38  C   UNL     1      87.002  81.375 108.076  0.00  0.00    +0.120 A 
ATOM     39  N   UNL     1      87.830  81.402 109.194  0.00  0.00    -0.263 NA
ATOM     40  C   UNL     1      88.199  80.240 109.888  0.00  0.00    +0.111 A 
ENDBRANCH   4   3
ENDBRANCH  10   9
BRANCH  12  13
ATOM     13  N   UNL     1      84.427  78.348  98.881  0.00  0.00    -0.281 N 
ATOM     14  C   UNL     1      83.325  77.508  98.889  0.00  0.00    +0.248 C 
ATOM     30  O   UNL     1      82.429  77.551  99.719  0.00  0.00    -0.270 OA
ATOM     31  H   UNL     1      85.189  78.081  98.258  0.00  0.00    +0.155 HD
BRANCH  14  15
ATOM     15  C   UNL     1      83.210  76.459  97.831  0.00  0.00    +0.037 A 
ATOM     16  C   UNL     1      82.858  75.076  98.167  0.00  0.00    +0.013 A 
ATOM     17  C   UNL     1      82.770  74.080  97.129  0.00  0.00    +0.005 A 
ATOM     18  C   UNL     1      83.032  74.464  95.744  0.00  0.00    -0.033 A 
ATOM     28  C   UNL     1      83.374  75.843  95.438  0.00  0.00    +0.005 A 
ATOM     29  C   UNL     1      83.463  76.822  96.453  0.00  0.00    +0.013 A 
BRANCH  18  19
ATOM     19  C   UNL     1      82.982  73.462  94.575  0.00  0.00    +0.119 C 
BRANCH  19  20
ATOM     20  N   UNL     1      83.582  72.114  94.803  0.00  0.00    -0.302 NA
ATOM     21  C   UNL     1      85.085  72.195  95.084  0.00  0.00    +0.066 C 
ATOM     22  C   UNL     1      85.693  70.778  95.342  0.00  0.00    -0.064 C 
ATOM     23  N   UNL     1      85.415  69.879  94.136  0.00  0.00    +0.379 N 
ATOM     24  C   UNL     1      86.035  68.563  94.351  0.00  0.00    -0.096 C 
ATOM     25  H   UNL     1      85.905  70.343  93.249  0.00  0.00    -0.082 HD
ATOM     26  C   UNL     1      83.923  69.795  93.848  0.00  0.00    -0.064 C 
ATOM     27  C   UNL     1      83.324  71.211  93.622  0.00  0.00    +0.066 C 
ENDBRANCH  19  20
ENDBRANCH  18  19
ENDBRANCH  14  15
ENDBRANCH  12  13
TORSDOF 6
ENDMDL
MODEL 5
REMARK VINA RESULT:      -7.2     17.656     22.994
REMARK  Name = C:\Users\Docking\Desktop\test protocol\1iep_ligandH.pdb
REMARK  8 active torsions:
REMARK  status: ('A' for Active; 'I' for Inactive)
REMARK    1  A    between atoms: _5  and  _11
REMARK    2  A    between atoms: _19  and  _21
REMARK    3  A    between atoms: _22  and  _66
REMARK    4  A    between atoms: _27  and  _30
REMARK    5  A    between atoms: _32  and  _33
REMARK    6  A    between atoms: _38  and  _43
REMARK    7  A    between atoms: _43  and  _46
REMARK    8  A    between atoms: _53  and  _55
REMARK                            x       y       z     vdW  Elec       q    Type
REMARK                         _______ _______ _______ _____ _____    ______ ____
ROOT
ATOM     10  C   UNL     1      99.991  60.519  94.653  0.00  0.00    +0.038 A 
ATOM     11  C   UNL     1      98.701  60.350  95.216  0.00  0.00    +0.047 A 
ATOM     12  C   UNL     1      97.525  60.936  94.591  0.00  0.00    +0.035 A 
ATOM     32  C   UNL     1      97.699  61.685  93.392  0.00  0.00    +0.024 A 
ATOM     33  C   UNL     1      99.004  61.867  92.806  0.00  0.00    +0.007 A 
ATOM     34  C   UNL     1     100.168  61.294  93.419  0.00  0.00    -0.029 A 
ATOM     35  C   UNL     1     101.543  61.527  92.750  0.00  0.00    +0.045 C 
ENDROOT
BRANCH  10   9
ATOM      4  C   UNL     1     103.278  57.050  95.100  0.00  0.00    +0.077 A 
ATOM      5  C   UNL     1     102.754  56.327  93.978  0.00  0.00    +0.048 A 
ATOM      6  C   UNL     1     101.634  56.878  93.316  0.00  0.00    +0.116 A 
ATOM      7  N   UNL     1     101.087  58.065  93.754  0.00  0.00    -0.223 NA
ATOM      8  C   UNL     1     101.615  58.736  94.842  0.00  0.00    +0.220 A 
ATOM      9  N   UNL     1     101.086  59.934  95.294  0.00  0.00    -0.283 N 
ATOM     36  H   UNL     1     101.500  60.395  96.104  0.00  0.00    +0.155 HD
ATOM     37  N   UNL     1     102.684  58.229  95.491  0.00  0.00    -0.214 NA
BRANCH   4   3
ATOM      1  C   UNL     1     106.886  55.944  96.130  0.00  0.00    +0.020 A 
ATOM      2  C   UNL     1     105.777  56.381  95.314  0.00  0.00    +0.013 A 
ATOM      3  C   UNL     1     104.461  56.598  95.900  0.00  0.00    +0.019 A 
ATOM     38  C   UNL     1     104.299  56.363  97.327  0.00  0.00    +0.120 A 
ATOM     39  N   UNL     1     105.385  55.942  98.088  0.00  0.00    -0.263 NA
ATOM     40  C   UNL     1     106.656  55.728  97.534  0.00  0.00    +0.111 A 
ENDBRANCH   4   3
ENDBRANCH  10   9
BRANCH  12  13
ATOM     13  N   UNL     1      96.190  60.806  95.122  0.00  0.00    -0.281 N 
ATOM     14  C   UNL     1      95.285  59.779  94.907  0.00  0.00    +0.248 C 
ATOM     30  O   UNL     1      95.408  58.917  94.050  0.00  0.00    -0.270 OA
ATOM     31  H   UNL     1      95.875  61.562  95.729  0.00  0.00    +0.155 HD
BRANCH  14  15
ATOM     15  C   UNL     1      94.058  59.708  95.758  0.00  0.00    +0.037 A 
ATOM     16  C   UNL     1      93.474  58.421  96.143  0.00  0.00    +0.013 A 
ATOM     17  C   UNL     1      92.280  58.382  96.951  0.00  0.00    +0.005 A 
ATOM     18  C   UNL     1      91.664  59.635  97.380  0.00  0.00    -0.033 A 
ATOM     28  C   UNL     1      92.268  60.897  96.988  0.00  0.00    +0.005 A 
ATOM     29  C   UNL     1      93.437  60.940  96.195  0.00  0.00    +0.013 A 
BRANCH  18  19
ATOM     19  C   UNL     1      90.378  59.688  98.225  0.00  0.00    +0.119 C 
BRANCH  19  20
ATOM     20  N   UNL     1      89.503  58.477  98.215  0.00  0.00    -0.302 NA
ATOM     21  C   UNL     1      88.212  58.708  97.424  0.00  0.00    +0.066 C 
ATOM     22  C   UNL     1      87.319  57.425  97.405  0.00  0.00    -0.064 C 
ATOM     23  N   UNL     1      87.006  57.004  98.842  0.00  0.00    +0.379 N 
ATOM     24  C   UNL     1      86.118  55.832  98.827  0.00  0.00    -0.096 C 
ATOM     25  H   UNL     1      86.452  57.841  99.327  0.00  0.00    -0.082 HD
ATOM     26  C   UNL     1      88.284  56.775  99.636  0.00  0.00    -0.064 C 
ATOM     27  C   UNL     1      89.178  58.046  99.624  0.00  0.00    +0.066 C 
ENDBRANCH  19  20
ENDBRANCH  18  19
ENDBRANCH  14  15
ENDBRANCH  12  13
TORSDOF 6
ENDMDL
