MODEL 1
REMARK VINA RESULT:      -9.5      0.000      0.000
REMARK  Name = C:\Users\Docking\Desktop\test protocol\1iep_ligandH.pdb
REMARK  8 active torsions:
REMARK  status: ('A' for Active; 'I' for Inactive)
REMARK    1  A    between atoms: _5  and  _11
REMARK    2  A    between atoms: _19  and  _21
REMARK    3  A    between atoms: _22  and  _66
REMARK    4  A    between atoms: _27  and  _30
REMARK    5  A    between atoms: _32  and  _33
REMARK    6  A    between atoms: _38  and  _43
REMARK    7  A    between atoms: _43  and  _46
REMARK    8  A    between atoms: _53  and  _55
REMARK                            x       y       z     vdW  Elec       q    Type
REMARK                         _______ _______ _______ _____ _____    ______ ____
ROOT
ATOM     10  C   UNL     1       9.360 -22.503 -13.695  0.00  0.00    +0.038 A 
ATOM     11  C   UNL     1      10.573 -22.196 -14.364  0.00  0.00    +0.047 A 
ATOM     12  C   UNL     1      11.104 -20.842 -14.375  0.00  0.00    +0.035 A 
ATOM     32  C   UNL     1      10.375 -19.825 -13.693  0.00  0.00    +0.024 A 
ATOM     33  C   UNL     1       9.140 -20.119 -13.009  0.00  0.00    +0.007 A 
ATOM     34  C   UNL     1       8.610 -21.452 -12.997  0.00  0.00    -0.029 A 
ATOM     35  C   UNL     1       7.278 -21.709 -12.253  0.00  0.00    +0.045 C 
ENDROOT
BRANCH  10   9
ATOM      4  C   UNL     1       8.791 -26.823 -11.682  0.00  0.00    +0.077 A 
ATOM      5  C   UNL     1       9.501 -26.430 -10.498  0.00  0.00    +0.048 A 
ATOM      6  C   UNL     1      10.002 -25.110 -10.451  0.00  0.00    +0.116 A 
ATOM      7  N   UNL     1       9.803 -24.255 -11.513  0.00  0.00    -0.223 NA
ATOM      8  C   UNL     1       9.115 -24.666 -12.640  0.00  0.00    +0.220 A 
ATOM      9  N   UNL     1       8.896 -23.820 -13.716  0.00  0.00    -0.283 N 
ATOM     36  H   UNL     1       8.391 -24.164 -14.533  0.00  0.00    +0.155 HD
ATOM     37  N   UNL     1       8.628 -25.922 -12.711  0.00  0.00    -0.214 NA
BRANCH   4   3
ATOM      1  C   UNL     1       8.209 -30.504 -12.869  0.00  0.00    +0.020 A 
ATOM      2  C   UNL     1       8.823 -29.206 -12.710  0.00  0.00    +0.013 A 
ATOM      3  C   UNL     1       8.198 -28.183 -11.881  0.00  0.00    +0.019 A 
ATOM     38  C   UNL     1       6.943 -28.509 -11.220  0.00  0.00    +0.120 A 
ATOM     39  N   UNL     1       6.375 -29.767 -11.393  0.00  0.00    -0.263 NA
ATOM     40  C   UNL     1       6.966 -30.759 -12.190  0.00  0.00    +0.111 A 
ENDBRANCH   4   3
ENDBRANCH  10   9
BRANCH  12  13
ATOM     13  N   UNL     1      12.326 -20.469 -15.044  0.00  0.00    -0.281 N 
ATOM     14  C   UNL     1      13.621 -20.840 -14.721  0.00  0.00    +0.248 C 
ATOM     30  O   UNL     1      13.944 -21.381 -13.674  0.00  0.00    -0.270 OA
ATOM     31  H   UNL     1      12.224 -19.856 -15.853  0.00  0.00    +0.155 HD
BRANCH  14  15
ATOM     15  C   UNL     1      14.717 -20.557 -15.696  0.00  0.00    +0.037 A 
ATOM     16  C   UNL     1      14.427 -20.055 -17.041  0.00  0.00    +0.013 A 
ATOM     17  C   UNL     1      15.502 -19.806 -17.968  0.00  0.00    +0.005 A 
ATOM     18  C   UNL     1      16.880 -20.059 -17.552  0.00  0.00    -0.033 A 
ATOM     28  C   UNL     1      17.140 -20.553 -16.210  0.00  0.00    +0.005 A 
ATOM     29  C   UNL     1      16.088 -20.799 -15.299  0.00  0.00    +0.013 A 
BRANCH  18  19
ATOM     19  C   UNL     1      18.088 -19.842 -18.482  0.00  0.00    +0.119 C 
BRANCH  19  20
ATOM     20  N   UNL     1      18.468 -18.432 -18.791  0.00  0.00    -0.302 NA
ATOM     21  C   UNL     1      18.100 -18.038 -20.225  0.00  0.00    +0.066 C 
ATOM     22  C   UNL     1      18.485 -16.553 -20.524  0.00  0.00    -0.064 C 
ATOM     23  N   UNL     1      19.981 -16.356 -20.275  0.00  0.00    +0.379 N 
ATOM     24  C   UNL     1      20.357 -14.975 -20.611  0.00  0.00    -0.096 C 
ATOM     25  H   UNL     1      20.531 -17.035 -20.969  0.00  0.00    -0.082 HD
ATOM     26  C   UNL     1      20.356 -16.748 -18.853  0.00  0.00    -0.064 C 
ATOM     27  C   UNL     1      19.943 -18.216 -18.557  0.00  0.00    +0.066 C 
ENDBRANCH  19  20
ENDBRANCH  18  19
ENDBRANCH  14  15
ENDBRANCH  12  13
TORSDOF 6
ENDMDL
MODEL 2
REMARK VINA RESULT:      -9.2      4.898      8.116
REMARK  Name = C:\Users\Docking\Desktop\test protocol\1iep_ligandH.pdb
REMARK  8 active torsions:
REMARK  status: ('A' for Active; 'I' for Inactive)
REMARK    1  A    between atoms: _5  and  _11
REMARK    2  A    between atoms: _19  and  _21
REMARK    3  A    between atoms: _22  and  _66
REMARK    4  A    between atoms: _27  and  _30
REMARK    5  A    between atoms: _32  and  _33
REMARK    6  A    between atoms: _38  and  _43
REMARK    7  A    between atoms: _43  and  _46
REMARK    8  A    between atoms: _53  and  _55
REMARK                            x       y       z     vdW  Elec       q    Type
REMARK                         _______ _______ _______ _____ _____    ______ ____
ROOT
ATOM     10  C   UNL     1      11.802 -23.717 -13.893  0.00  0.00    +0.038 A 
ATOM     11  C   UNL     1      11.067 -22.516 -14.061  0.00  0.00    +0.047 A 
ATOM     12  C   UNL     1      11.733 -21.223 -14.080  0.00  0.00    +0.035 A 
ATOM     32  C   UNL     1      13.150 -21.190 -13.927  0.00  0.00    +0.024 A 
ATOM     33  C   UNL     1      13.912 -22.401 -13.754  0.00  0.00    +0.007 A 
ATOM     34  C   UNL     1      13.260 -23.680 -13.732  0.00  0.00    -0.029 A 
ATOM     35  C   UNL     1      14.128 -24.945 -13.537  0.00  0.00    +0.045 C 
ENDROOT
BRANCH  10   9
ATOM      4  C   UNL     1       9.109 -27.037 -11.710  0.00  0.00    +0.077 A 
ATOM      5  C   UNL     1       9.100 -26.303 -10.477  0.00  0.00    +0.048 A 
ATOM      6  C   UNL     1       9.806 -25.080 -10.444  0.00  0.00    +0.116 A 
ATOM      7  N   UNL     1      10.468 -24.633 -11.567  0.00  0.00    -0.223 NA
ATOM      8  C   UNL     1      10.459 -25.366 -12.740  0.00  0.00    +0.220 A 
ATOM      9  N   UNL     1      11.111 -24.931 -13.883  0.00  0.00    -0.283 N 
ATOM     36  H   UNL     1      11.087 -25.504 -14.726  0.00  0.00    +0.155 HD
ATOM     37  N   UNL     1       9.793 -26.538 -12.796  0.00  0.00    -0.214 NA
BRANCH   4   3
ATOM      1  C   UNL     1       8.200 -30.643 -12.923  0.00  0.00    +0.020 A 
ATOM      2  C   UNL     1       8.917 -29.398 -12.772  0.00  0.00    +0.013 A 
ATOM      3  C   UNL     1       8.407 -28.345 -11.903  0.00  0.00    +0.019 A 
ATOM     38  C   UNL     1       7.159 -28.586 -11.194  0.00  0.00    +0.120 A 
ATOM     39  N   UNL     1       6.489 -29.794 -11.360  0.00  0.00    -0.263 NA
ATOM     40  C   UNL     1       6.970 -30.814 -12.195  0.00  0.00    +0.111 A 
ENDBRANCH   4   3
ENDBRANCH  10   9
BRANCH  12  13
ATOM     13  N   UNL     1      11.038 -19.969 -14.239  0.00  0.00    -0.281 N 
ATOM     14  C   UNL     1      11.244 -18.998 -15.206  0.00  0.00    +0.248 C 
ATOM     30  O   UNL     1      12.206 -18.965 -15.958  0.00  0.00    -0.270 OA
ATOM     31  H   UNL     1      10.306 -19.774 -13.556  0.00  0.00    +0.155 HD
BRANCH  14  15
ATOM     15  C   UNL     1      10.242 -17.898 -15.348  0.00  0.00    +0.037 A 
ATOM     16  C   UNL     1       9.513 -17.379 -14.188  0.00  0.00    +0.013 A 
ATOM     17  C   UNL     1       8.540 -16.329 -14.356  0.00  0.00    +0.005 A 
ATOM     18  C   UNL     1       8.292 -15.790 -15.691  0.00  0.00    -0.033 A 
ATOM     28  C   UNL     1       9.033 -16.320 -16.824  0.00  0.00    +0.005 A 
ATOM     29  C   UNL     1       9.986 -17.349 -16.663  0.00  0.00    +0.013 A 
BRANCH  18  19
ATOM     19  C   UNL     1       7.256 -14.683 -15.967  0.00  0.00    +0.119 C 
BRANCH  19  20
ATOM     20  N   UNL     1       5.858 -15.114 -16.265  0.00  0.00    -0.302 NA
ATOM     21  C   UNL     1       4.968 -15.076 -15.019  0.00  0.00    +0.066 C 
ATOM     22  C   UNL     1       3.503 -15.509 -15.353  0.00  0.00    -0.064 C 
ATOM     23  N   UNL     1       3.515 -16.909 -15.968  0.00  0.00    +0.379 N 
ATOM     24  C   UNL     1       2.134 -17.342 -16.230  0.00  0.00    -0.096 C 
ATOM     25  H   UNL     1       3.951 -17.605 -15.215  0.00  0.00    -0.082 HD
ATOM     26  C   UNL     1       4.400 -16.956 -17.206  0.00  0.00    -0.064 C 
ATOM     27  C   UNL     1       5.846 -16.497 -16.869  0.00  0.00    +0.066 C 
ENDBRANCH  19  20
ENDBRANCH  18  19
ENDBRANCH  14  15
ENDBRANCH  12  13
TORSDOF 6
ENDMDL
MODEL 3
REMARK VINA RESULT:      -9.2      5.143     12.637
REMARK  Name = C:\Users\Docking\Desktop\test protocol\1iep_ligandH.pdb
REMARK  8 active torsions:
REMARK  status: ('A' for Active; 'I' for Inactive)
REMARK    1  A    between atoms: _5  and  _11
REMARK    2  A    between atoms: _19  and  _21
REMARK    3  A    between atoms: _22  and  _66
REMARK    4  A    between atoms: _27  and  _30
REMARK    5  A    between atoms: _32  and  _33
REMARK    6  A    between atoms: _38  and  _43
REMARK    7  A    between atoms: _43  and  _46
REMARK    8  A    between atoms: _53  and  _55
REMARK                            x       y       z     vdW  Elec       q    Type
REMARK                         _______ _______ _______ _____ _____    ______ ____
ROOT
ATOM     10  C   UNL     1      13.231 -20.672 -15.306  0.00  0.00    +0.038 A 
ATOM     11  C   UNL     1      12.313 -19.591 -15.286  0.00  0.00    +0.047 A 
ATOM     12  C   UNL     1      10.897 -19.811 -15.033  0.00  0.00    +0.035 A 
ATOM     32  C   UNL     1      10.452 -21.145 -14.802  0.00  0.00    +0.024 A 
ATOM     33  C   UNL     1      11.372 -22.256 -14.820  0.00  0.00    +0.007 A 
ATOM     34  C   UNL     1      12.768 -22.045 -15.071  0.00  0.00    -0.029 A 
ATOM     35  C   UNL     1      13.708 -23.273 -15.085  0.00  0.00    +0.045 C 
ENDROOT
BRANCH  10   9
ATOM      4  C   UNL     1      16.821 -19.361 -18.209  0.00  0.00    +0.077 A 
ATOM      5  C   UNL     1      15.941 -19.226 -19.334  0.00  0.00    +0.048 A 
ATOM      6  C   UNL     1      14.573 -19.510 -19.125  0.00  0.00    +0.116 A 
ATOM      7  N   UNL     1      14.129 -19.899 -17.880  0.00  0.00    -0.223 NA
ATOM      8  C   UNL     1      15.005 -20.021 -16.817  0.00  0.00    +0.220 A 
ATOM      9  N   UNL     1      14.579 -20.403 -15.554  0.00  0.00    -0.283 N 
ATOM     36  H   UNL     1      15.258 -20.488 -14.797  0.00  0.00    +0.155 HD
ATOM     37  N   UNL     1      16.317 -19.757 -16.991  0.00  0.00    -0.214 NA
BRANCH   4   3
ATOM      1  C   UNL     1      20.277 -17.578 -18.638  0.00  0.00    +0.020 A 
ATOM      2  C   UNL     1      18.847 -17.784 -18.592  0.00  0.00    +0.013 A 
ATOM      3  C   UNL     1      18.293 -19.093 -18.270  0.00  0.00    +0.019 A 
ATOM     38  C   UNL     1      19.220 -20.181 -17.997  0.00  0.00    +0.120 A 
ATOM     39  N   UNL     1      20.591 -19.953 -18.049  0.00  0.00    -0.263 NA
ATOM     40  C   UNL     1      21.136 -18.698 -18.360  0.00  0.00    +0.111 A 
ENDBRANCH   4   3
ENDBRANCH  10   9
BRANCH  12  13
ATOM     13  N   UNL     1       9.917 -18.754 -15.008  0.00  0.00    -0.281 N 
ATOM     14  C   UNL     1       9.917 -17.575 -15.734  0.00  0.00    +0.248 C 
ATOM     30  O   UNL     1      10.876 -17.150 -16.361  0.00  0.00    -0.270 OA
ATOM     31  H   UNL     1       9.126 -18.893 -14.379  0.00  0.00    +0.155 HD
BRANCH  14  15
ATOM     15  C   UNL     1       8.678 -16.739 -15.756  0.00  0.00    +0.037 A 
ATOM     16  C   UNL     1       8.091 -16.219 -14.519  0.00  0.00    +0.013 A 
ATOM     17  C   UNL     1       6.886 -15.430 -14.566  0.00  0.00    +0.005 A 
ATOM     18  C   UNL     1       6.260 -15.155 -15.857  0.00  0.00    -0.033 A 
ATOM     28  C   UNL     1       6.866 -15.680 -17.070  0.00  0.00    +0.005 A 
ATOM     29  C   UNL     1       8.047 -16.454 -17.027  0.00  0.00    +0.013 A 
BRANCH  18  19
ATOM     19  C   UNL     1       4.961 -14.340 -16.001  0.00  0.00    +0.119 C 
BRANCH  19  20
ATOM     20  N   UNL     1       3.706 -14.955 -15.473  0.00  0.00    -0.302 NA
ATOM     21  C   UNL     1       3.372 -16.273 -16.177  0.00  0.00    +0.066 C 
ATOM     22  C   UNL     1       2.069 -16.914 -15.598  0.00  0.00    -0.064 C 
ATOM     23  N   UNL     1       0.913 -15.921 -15.731  0.00  0.00    +0.379 N 
ATOM     24  C   UNL     1      -0.326 -16.542 -15.240  0.00  0.00    -0.096 C 
ATOM     25  H   UNL     1       0.777 -15.705 -16.816  0.00  0.00    -0.082 HD
ATOM     26  C   UNL     1       1.238 -14.606 -15.036  0.00  0.00    -0.064 C 
ATOM     27  C   UNL     1       2.551 -13.993 -15.599  0.00  0.00    +0.066 C 
ENDBRANCH  19  20
ENDBRANCH  18  19
ENDBRANCH  14  15
ENDBRANCH  12  13
TORSDOF 6
ENDMDL
MODEL 4
REMARK VINA RESULT:      -9.0      5.464      7.726
REMARK  Name = C:\Users\Docking\Desktop\test protocol\1iep_ligandH.pdb
REMARK  8 active torsions:
REMARK  status: ('A' for Active; 'I' for Inactive)
REMARK    1  A    between atoms: _5  and  _11
REMARK    2  A    between atoms: _19  and  _21
REMARK    3  A    between atoms: _22  and  _66
REMARK    4  A    between atoms: _27  and  _30
REMARK    5  A    between atoms: _32  and  _33
REMARK    6  A    between atoms: _38  and  _43
REMARK    7  A    between atoms: _43  and  _46
REMARK    8  A    between atoms: _53  and  _55
REMARK                            x       y       z     vdW  Elec       q    Type
REMARK                         _______ _______ _______ _____ _____    ______ ____
ROOT
ATOM     10  C   UNL     1      10.560 -25.476 -11.424  0.00  0.00    +0.038 A 
ATOM     11  C   UNL     1      10.190 -24.142 -11.734  0.00  0.00    +0.047 A 
ATOM     12  C   UNL     1      10.733 -23.462 -12.900  0.00  0.00    +0.035 A 
ATOM     32  C   UNL     1      11.648 -24.172 -13.731  0.00  0.00    +0.024 A 
ATOM     33  C   UNL     1      12.036 -25.528 -13.430  0.00  0.00    +0.007 A 
ATOM     34  C   UNL     1      11.506 -26.203 -12.280  0.00  0.00    -0.029 A 
ATOM     35  C   UNL     1      11.962 -27.654 -12.003  0.00  0.00    +0.045 C 
ENDROOT
BRANCH  10   9
ATOM      4  C   UNL     1       6.967 -27.680  -9.129  0.00  0.00    +0.077 A 
ATOM      5  C   UNL     1       6.106 -27.597 -10.273  0.00  0.00    +0.048 A 
ATOM      6  C   UNL     1       6.624 -26.973 -11.430  0.00  0.00    +0.116 A 
ATOM      7  N   UNL     1       7.908 -26.473 -11.432  0.00  0.00    -0.223 NA
ATOM      8  C   UNL     1       8.711 -26.569 -10.310  0.00  0.00    +0.220 A 
ATOM      9  N   UNL     1      10.009 -26.080 -10.292  0.00  0.00    -0.283 N 
ATOM     36  H   UNL     1      10.567 -26.163  -9.443  0.00  0.00    +0.155 HD
ATOM     37  N   UNL     1       8.240 -27.159  -9.192  0.00  0.00    -0.214 NA
BRANCH   4   3
ATOM      1  C   UNL     1       5.004 -29.687  -6.405  0.00  0.00    +0.020 A 
ATOM      2  C   UNL     1       5.346 -29.096  -7.678  0.00  0.00    +0.013 A 
ATOM      3  C   UNL     1       6.566 -28.314  -7.833  0.00  0.00    +0.019 A 
ATOM     38  C   UNL     1       7.425 -28.148  -6.671  0.00  0.00    +0.120 A 
ATOM     39  N   UNL     1       7.070 -28.727  -5.457  0.00  0.00    -0.263 NA
ATOM     40  C   UNL     1       5.898 -29.481  -5.295  0.00  0.00    +0.111 A 
ENDBRANCH   4   3
ENDBRANCH  10   9
BRANCH  12  13
ATOM     13  N   UNL     1      10.400 -22.106 -13.260  0.00  0.00    -0.281 N 
ATOM     14  C   UNL     1      11.230 -20.997 -13.258  0.00  0.00    +0.248 C 
ATOM     30  O   UNL     1      12.336 -20.962 -12.740  0.00  0.00    -0.270 OA
ATOM     31  H   UNL     1       9.436 -21.945 -13.551  0.00  0.00    +0.155 HD
BRANCH  14  15
ATOM     15  C   UNL     1      10.756 -19.741 -13.916  0.00  0.00    +0.037 A 
ATOM     16  C   UNL     1      11.124 -19.421 -15.297  0.00  0.00    +0.013 A 
ATOM     17  C   UNL     1      10.668 -18.194 -15.902  0.00  0.00    +0.005 A 
ATOM     18  C   UNL     1       9.837 -17.278 -15.124  0.00  0.00    -0.033 A 
ATOM     28  C   UNL     1       9.483 -17.623 -13.757  0.00  0.00    +0.005 A 
ATOM     29  C   UNL     1       9.929 -18.824 -13.161  0.00  0.00    +0.013 A 
BRANCH  18  19
ATOM     19  C   UNL     1       9.324 -15.937 -15.681  0.00  0.00    +0.119 C 
BRANCH  19  20
ATOM     20  N   UNL     1       7.904 -15.887 -16.141  0.00  0.00    -0.302 NA
ATOM     21  C   UNL     1       6.922 -16.202 -15.009  0.00  0.00    +0.066 C 
ATOM     22  C   UNL     1       5.440 -16.122 -15.502  0.00  0.00    -0.064 C 
ATOM     23  N   UNL     1       5.243 -17.086 -16.673  0.00  0.00    +0.379 N 
ATOM     24  C   UNL     1       3.837 -17.057 -17.102  0.00  0.00    -0.096 C 
ATOM     25  H   UNL     1       5.464 -18.115 -16.305  0.00  0.00    -0.082 HD
ATOM     26  C   UNL     1       6.218 -16.782 -17.802  0.00  0.00    -0.064 C 
ATOM     27  C   UNL     1       7.686 -16.835 -17.295  0.00  0.00    +0.066 C 
ENDBRANCH  19  20
ENDBRANCH  18  19
ENDBRANCH  14  15
ENDBRANCH  12  13
TORSDOF 6
ENDMDL
MODEL 5
REMARK VINA RESULT:      -9.0      2.339     12.996
REMARK  Name = C:\Users\Docking\Desktop\test protocol\1iep_ligandH.pdb
REMARK  8 active torsions:
REMARK  status: ('A' for Active; 'I' for Inactive)
REMARK    1  A    between atoms: _5  and  _11
REMARK    2  A    between atoms: _19  and  _21
REMARK    3  A    between atoms: _22  and  _66
REMARK    4  A    between atoms: _27  and  _30
REMARK    5  A    between atoms: _32  and  _33
REMARK    6  A    between atoms: _38  and  _43
REMARK    7  A    between atoms: _43  and  _46
REMARK    8  A    between atoms: _53  and  _55
REMARK                            x       y       z     vdW  Elec       q    Type
REMARK                         _______ _______ _______ _____ _____    ______ ____
ROOT
ATOM     10  C   UNL     1      10.101 -21.485 -14.187  0.00  0.00    +0.038 A 
ATOM     11  C   UNL     1       9.721 -22.843 -14.036  0.00  0.00    +0.047 A 
ATOM     12  C   UNL     1       8.612 -23.223 -13.174  0.00  0.00    +0.035 A 
ATOM     32  C   UNL     1       7.910 -22.193 -12.483  0.00  0.00    +0.024 A 
ATOM     33  C   UNL     1       8.284 -20.808 -12.624  0.00  0.00    +0.007 A 
ATOM     34  C   UNL     1       9.379 -20.427 -13.470  0.00  0.00    -0.029 A 
ATOM     35  C   UNL     1       9.740 -18.928 -13.578  0.00  0.00    +0.045 C 
ENDROOT
BRANCH  10   9
ATOM      4  C   UNL     1      14.792 -20.902 -15.023  0.00  0.00    +0.077 A 
ATOM      5  C   UNL     1      15.132 -21.211 -13.664  0.00  0.00    +0.048 A 
ATOM      6  C   UNL     1      14.071 -21.507 -12.780  0.00  0.00    +0.116 A 
ATOM      7  N   UNL     1      12.769 -21.493 -13.232  0.00  0.00    -0.223 NA
ATOM      8  C   UNL     1      12.475 -21.190 -14.548  0.00  0.00    +0.220 A 
ATOM      9  N   UNL     1      11.174 -21.178 -15.027  0.00  0.00    -0.283 N 
ATOM     36  H   UNL     1      10.998 -20.941 -16.003  0.00  0.00    +0.155 HD
ATOM     37  N   UNL     1      13.471 -20.902 -15.412  0.00  0.00    -0.214 NA
BRANCH   4   3
ATOM      1  C   UNL     1      18.133 -20.638 -17.039  0.00  0.00    +0.020 A 
ATOM      2  C   UNL     1      17.197 -20.983 -15.994  0.00  0.00    +0.013 A 
ATOM      3  C   UNL     1      15.802 -20.571 -16.077  0.00  0.00    +0.019 A 
ATOM     38  C   UNL     1      15.381 -19.806 -17.241  0.00  0.00    +0.120 A 
ATOM     39  N   UNL     1      16.305 -19.487 -18.231  0.00  0.00    -0.263 NA
ATOM     40  C   UNL     1      17.651 -19.876 -18.161  0.00  0.00    +0.111 A 
ENDBRANCH   4   3
ENDBRANCH  10   9
BRANCH  12  13
ATOM     13  N   UNL     1       8.186 -24.586 -12.976  0.00  0.00    -0.281 N 
ATOM     14  C   UNL     1       8.768 -25.552 -12.172  0.00  0.00    +0.248 C 
ATOM     30  O   UNL     1       9.875 -25.453 -11.664  0.00  0.00    -0.270 OA
ATOM     31  H   UNL     1       7.353 -24.874 -13.491  0.00  0.00    +0.155 HD
BRANCH  14  15
ATOM     15  C   UNL     1       8.019 -26.818 -11.907  0.00  0.00    +0.037 A 
ATOM     16  C   UNL     1       6.689 -26.800 -11.293  0.00  0.00    +0.013 A 
ATOM     17  C   UNL     1       5.995 -28.036 -11.032  0.00  0.00    +0.005 A 
ATOM     18  C   UNL     1       6.631 -29.303 -11.387  0.00  0.00    -0.033 A 
ATOM     28  C   UNL     1       7.949 -29.292 -11.999  0.00  0.00    +0.005 A 
ATOM     29  C   UNL     1       8.633 -28.082 -12.256  0.00  0.00    +0.013 A 
BRANCH  18  19
ATOM     19  C   UNL     1       5.974 -30.671 -11.125  0.00  0.00    +0.119 C 
BRANCH  19  20
ATOM     20  N   UNL     1       5.133 -31.245 -12.218  0.00  0.00    -0.302 NA
ATOM     21  C   UNL     1       5.967 -31.623 -13.446  0.00  0.00    +0.066 C 
ATOM     22  C   UNL     1       5.075 -32.243 -14.570  0.00  0.00    -0.064 C 
ATOM     23  N   UNL     1       3.973 -31.252 -14.948  0.00  0.00    +0.379 N 
ATOM     24  C   UNL     1       3.168 -31.809 -16.045  0.00  0.00    -0.096 C 
ATOM     25  H   UNL     1       4.465 -30.326 -15.325  0.00  0.00    -0.082 HD
ATOM     26  C   UNL     1       3.141 -30.869 -13.732  0.00  0.00    -0.064 C 
ATOM     27  C   UNL     1       4.041 -30.281 -12.609  0.00  0.00    +0.066 C 
ENDBRANCH  19  20
ENDBRANCH  18  19
ENDBRANCH  14  15
ENDBRANCH  12  13
TORSDOF 6
ENDMDL
