MODEL 1
REMARK VINA RESULT:     -12.0      0.000      0.000
REMARK  Name = C:\Users\Docking\Desktop\test protocol\1iep_ligandH.pdb
REMARK  8 active torsions:
REMARK  status: ('A' for Active; 'I' for Inactive)
REMARK    1  A    between atoms: _5  and  _11
REMARK    2  A    between atoms: _19  and  _21
REMARK    3  A    between atoms: _22  and  _66
REMARK    4  A    between atoms: _27  and  _30
REMARK    5  A    between atoms: _32  and  _33
REMARK    6  A    between atoms: _38  and  _43
REMARK    7  A    between atoms: _43  and  _46
REMARK    8  A    between atoms: _53  and  _55
REMARK                            x       y       z     vdW  Elec       q    Type
REMARK                         _______ _______ _______ _____ _____    ______ ____
ROOT
ATOM     10  C   UNL     1       1.268   3.753   3.426  0.00  0.00    +0.038 A 
ATOM     11  C   UNL     1       0.531   3.630   4.632  0.00  0.00    +0.047 A 
ATOM     12  C   UNL     1       1.200   3.391   5.901  0.00  0.00    +0.035 A 
ATOM     32  C   UNL     1       2.621   3.286   5.907  0.00  0.00    +0.024 A 
ATOM     33  C   UNL     1       3.386   3.407   4.690  0.00  0.00    +0.007 A 
ATOM     34  C   UNL     1       2.731   3.640   3.435  0.00  0.00    -0.029 A 
ATOM     35  C   UNL     1       3.601   3.756   2.161  0.00  0.00    +0.045 C 
ENDROOT
BRANCH  10   9
ATOM      4  C   UNL     1      -1.161   2.222  -0.420  0.00  0.00    +0.077 A 
ATOM      5  C   UNL     1      -1.013   0.846  -0.039  0.00  0.00    +0.048 A 
ATOM      6  C   UNL     1      -0.299   0.575   1.150  0.00  0.00    +0.116 A 
ATOM      7  N   UNL     1       0.224   1.611   1.894  0.00  0.00    -0.223 NA
ATOM      8  C   UNL     1       0.064   2.926   1.498  0.00  0.00    +0.220 A 
ATOM      9  N   UNL     1       0.574   3.983   2.236  0.00  0.00    -0.283 N 
ATOM     36  H   UNL     1       0.442   4.938   1.906  0.00  0.00    +0.155 HD
ATOM     37  N   UNL     1      -0.613   3.210   0.366  0.00  0.00    -0.214 NA
BRANCH   4   3
ATOM      1  C   UNL     1      -3.303   4.317  -2.934  0.00  0.00    +0.020 A 
ATOM      2  C   UNL     1      -2.614   3.933  -1.724  0.00  0.00    +0.013 A 
ATOM      3  C   UNL     1      -1.893   2.668  -1.647  0.00  0.00    +0.019 A 
ATOM     38  C   UNL     1      -1.888   1.810  -2.822  0.00  0.00    +0.120 A 
ATOM     39  N   UNL     1      -2.562   2.206  -3.973  0.00  0.00    -0.263 NA
ATOM     40  C   UNL     1      -3.261   3.420  -4.058  0.00  0.00    +0.111 A 
ENDBRANCH   4   3
ENDBRANCH  10   9
BRANCH  12  13
ATOM     13  N   UNL     1       0.504   3.250   7.156  0.00  0.00    -0.281 N 
ATOM     14  C   UNL     1      -0.854   3.071   7.361  0.00  0.00    +0.248 C 
ATOM     30  O   UNL     1      -1.709   3.221   6.501  0.00  0.00    -0.270 OA
ATOM     31  H   UNL     1       1.083   3.285   7.995  0.00  0.00    +0.155 HD
BRANCH  14  15
ATOM     15  C   UNL     1      -1.334   2.685   8.723  0.00  0.00    +0.037 A 
ATOM     16  C   UNL     1      -2.750   2.406   8.979  0.00  0.00    +0.013 A 
ATOM     17  C   UNL     1      -3.189   2.052  10.306  0.00  0.00    +0.005 A 
ATOM     18  C   UNL     1      -2.209   1.973  11.387  0.00  0.00    -0.033 A 
ATOM     28  C   UNL     1      -0.810   2.249  11.104  0.00  0.00    +0.005 A 
ATOM     29  C   UNL     1      -0.377   2.598   9.805  0.00  0.00    +0.013 A 
BRANCH  18  19
ATOM     19  C   UNL     1      -2.591   1.623  12.838  0.00  0.00    +0.119 C 
BRANCH  19  20
ATOM     20  N   UNL     1      -2.821   2.761  13.777  0.00  0.00    -0.302 NA
ATOM     21  C   UNL     1      -3.748   3.822  13.179  0.00  0.00    +0.066 C 
ATOM     22  C   UNL     1      -3.995   4.994  14.184  0.00  0.00    -0.064 C 
ATOM     23  N   UNL     1      -2.654   5.610  14.585  0.00  0.00    +0.379 N 
ATOM     24  C   UNL     1      -2.886   6.749  15.485  0.00  0.00    -0.096 C 
ATOM     25  H   UNL     1      -2.172   6.003  13.659  0.00  0.00    -0.082 HD
ATOM     26  C   UNL     1      -1.725   4.561  15.178  0.00  0.00    -0.064 C 
ATOM     27  C   UNL     1      -1.509   3.387  14.183  0.00  0.00    +0.066 C 
ENDBRANCH  19  20
ENDBRANCH  18  19
ENDBRANCH  14  15
ENDBRANCH  12  13
TORSDOF 6
ENDMDL
MODEL 2
REMARK VINA RESULT:     -11.4      2.398     12.873
REMARK  Name = C:\Users\Docking\Desktop\test protocol\1iep_ligandH.pdb
REMARK  8 active torsions:
REMARK  status: ('A' for Active; 'I' for Inactive)
REMARK    1  A    between atoms: _5  and  _11
REMARK    2  A    between atoms: _19  and  _21
REMARK    3  A    between atoms: _22  and  _66
REMARK    4  A    between atoms: _27  and  _30
REMARK    5  A    between atoms: _32  and  _33
REMARK    6  A    between atoms: _38  and  _43
REMARK    7  A    between atoms: _43  and  _46
REMARK    8  A    between atoms: _53  and  _55
REMARK                            x       y       z     vdW  Elec       q    Type
REMARK                         _______ _______ _______ _____ _____    ______ ____
ROOT
ATOM     10  C   UNL     1       1.542   3.760   7.788  0.00  0.00    +0.038 A 
ATOM     11  C   UNL     1       0.844   3.504   6.581  0.00  0.00    +0.047 A 
ATOM     12  C   UNL     1       1.427   2.679   5.535  0.00  0.00    +0.035 A 
ATOM     32  C   UNL     1       2.723   2.127   5.753  0.00  0.00    +0.024 A 
ATOM     33  C   UNL     1       3.447   2.378   6.974  0.00  0.00    +0.007 A 
ATOM     34  C   UNL     1       2.878   3.193   8.008  0.00  0.00    -0.029 A 
ATOM     35  C   UNL     1       3.703   3.434   9.294  0.00  0.00    +0.045 C 
ENDROOT
BRANCH  10   9
ATOM      4  C   UNL     1      -1.060   4.329  11.781  0.00  0.00    +0.077 A 
ATOM      5  C   UNL     1      -1.248   2.915  11.931  0.00  0.00    +0.048 A 
ATOM      6  C   UNL     1      -0.665   2.075  10.955  0.00  0.00    +0.116 A 
ATOM      7  N   UNL     1       0.051   2.621   9.912  0.00  0.00    -0.223 NA
ATOM      8  C   UNL     1       0.212   3.989   9.796  0.00  0.00    +0.220 A 
ATOM      9  N   UNL     1       0.935   4.559   8.759  0.00  0.00    -0.283 N 
ATOM     36  H   UNL     1       1.025   5.574   8.705  0.00  0.00    +0.155 HD
ATOM     37  N   UNL     1      -0.336   4.812  10.714  0.00  0.00    -0.214 NA
BRANCH   4   3
ATOM      1  C   UNL     1      -2.104   7.718  13.432  0.00  0.00    +0.020 A 
ATOM      2  C   UNL     1      -1.556   6.779  12.480  0.00  0.00    +0.013 A 
ATOM      3  C   UNL     1      -1.612   5.345  12.733  0.00  0.00    +0.019 A 
ATOM     38  C   UNL     1      -2.234   4.889  13.967  0.00  0.00    +0.120 A 
ATOM     39  N   UNL     1      -2.752   5.817  14.865  0.00  0.00    -0.263 NA
ATOM     40  C   UNL     1      -2.703   7.200  14.634  0.00  0.00    +0.111 A 
ENDBRANCH   4   3
ENDBRANCH  10   9
BRANCH  12  13
ATOM     13  N   UNL     1       0.768   2.391   4.284  0.00  0.00    -0.281 N 
ATOM     14  C   UNL     1       0.802   3.131   3.114  0.00  0.00    +0.248 C 
ATOM     30  O   UNL     1       1.234   4.271   3.029  0.00  0.00    -0.270 OA
ATOM     31  H   UNL     1       0.209   1.538   4.260  0.00  0.00    +0.155 HD
BRANCH  14  15
ATOM     15  C   UNL     1       0.265   2.522   1.859  0.00  0.00    +0.037 A 
ATOM     16  C   UNL     1       0.221   1.069   1.678  0.00  0.00    +0.013 A 
ATOM     17  C   UNL     1      -0.286   0.508   0.450  0.00  0.00    +0.005 A 
ATOM     18  C   UNL     1      -0.755   1.402  -0.606  0.00  0.00    -0.033 A 
ATOM     28  C   UNL     1      -0.705   2.840  -0.397  0.00  0.00    +0.005 A 
ATOM     29  C   UNL     1      -0.208   3.393   0.804  0.00  0.00    +0.013 A 
BRANCH  18  19
ATOM     19  C   UNL     1      -1.292   0.892  -1.956  0.00  0.00    +0.119 C 
BRANCH  19  20
ATOM     20  N   UNL     1      -0.598   1.365  -3.191  0.00  0.00    -0.302 NA
ATOM     21  C   UNL     1      -1.245   0.810  -4.462  0.00  0.00    +0.066 C 
ATOM     22  C   UNL     1      -0.520   1.332  -5.745  0.00  0.00    -0.064 C 
ATOM     23  N   UNL     1       0.960   0.953  -5.681  0.00  0.00    +0.379 N 
ATOM     24  C   UNL     1       1.633   1.392  -6.913  0.00  0.00    -0.096 C 
ATOM     25  H   UNL     1       1.022  -0.160  -5.640  0.00  0.00    -0.082 HD
ATOM     26  C   UNL     1       1.611   1.499  -4.418  0.00  0.00    -0.064 C 
ATOM     27  C   UNL     1       0.865   0.997  -3.150  0.00  0.00    +0.066 C 
ENDBRANCH  19  20
ENDBRANCH  18  19
ENDBRANCH  14  15
ENDBRANCH  12  13
TORSDOF 6
ENDMDL
MODEL 3
REMARK VINA RESULT:     -11.2      2.148     12.310
REMARK  Name = C:\Users\Docking\Desktop\test protocol\1iep_ligandH.pdb
REMARK  8 active torsions:
REMARK  status: ('A' for Active; 'I' for Inactive)
REMARK    1  A    between atoms: _5  and  _11
REMARK    2  A    between atoms: _19  and  _21
REMARK    3  A    between atoms: _22  and  _66
REMARK    4  A    between atoms: _27  and  _30
REMARK    5  A    between atoms: _32  and  _33
REMARK    6  A    between atoms: _38  and  _43
REMARK    7  A    between atoms: _43  and  _46
REMARK    8  A    between atoms: _53  and  _55
REMARK                            x       y       z     vdW  Elec       q    Type
REMARK                         _______ _______ _______ _____ _____    ______ ____
ROOT
ATOM     10  C   UNL     1       1.619   3.761   8.248  0.00  0.00    +0.038 A 
ATOM     11  C   UNL     1       0.922   3.602   7.023  0.00  0.00    +0.047 A 
ATOM     12  C   UNL     1       1.465   2.783   5.950  0.00  0.00    +0.035 A 
ATOM     32  C   UNL     1       2.719   2.139   6.160  0.00  0.00    +0.024 A 
ATOM     33  C   UNL     1       3.441   2.291   7.398  0.00  0.00    +0.007 A 
ATOM     34  C   UNL     1       2.912   3.099   8.460  0.00  0.00    -0.029 A 
ATOM     35  C   UNL     1       3.733   3.232   9.764  0.00  0.00    +0.045 C 
ENDROOT
BRANCH  10   9
ATOM      4  C   UNL     1      -1.220   4.382  12.068  0.00  0.00    +0.077 A 
ATOM      5  C   UNL     1      -1.629   3.007  12.062  0.00  0.00    +0.048 A 
ATOM      6  C   UNL     1      -1.091   2.174  11.054  0.00  0.00    +0.116 A 
ATOM      7  N   UNL     1      -0.211   2.690  10.128  0.00  0.00    -0.223 NA
ATOM      8  C   UNL     1       0.162   4.021  10.162  0.00  0.00    +0.220 A 
ATOM      9  N   UNL     1       1.052   4.559   9.245  0.00  0.00    -0.283 N 
ATOM     36  H   UNL     1       1.295   5.548   9.299  0.00  0.00    +0.155 HD
ATOM     37  N   UNL     1      -0.339   4.837  11.113  0.00  0.00    -0.214 NA
BRANCH   4   3
ATOM      1  C   UNL     1      -2.304   7.731  13.773  0.00  0.00    +0.020 A 
ATOM      2  C   UNL     1      -1.837   6.804  12.769  0.00  0.00    +0.013 A 
ATOM      3  C   UNL     1      -1.699   5.385  13.071  0.00  0.00    +0.019 A 
ATOM     38  C   UNL     1      -2.046   4.933  14.410  0.00  0.00    +0.120 A 
ATOM     39  N   UNL     1      -2.492   5.849  15.358  0.00  0.00    -0.263 NA
ATOM     40  C   UNL     1      -2.627   7.217  15.078  0.00  0.00    +0.111 A 
ENDBRANCH   4   3
ENDBRANCH  10   9
BRANCH  12  13
ATOM     13  N   UNL     1       0.806   2.591   4.682  0.00  0.00    -0.281 N 
ATOM     14  C   UNL     1       1.161   3.117   3.450  0.00  0.00    +0.248 C 
ATOM     30  O   UNL     1       1.980   4.010   3.289  0.00  0.00    -0.270 OA
ATOM     31  H   UNL     1      -0.022   1.995   4.693  0.00  0.00    +0.155 HD
BRANCH  14  15
ATOM     15  C   UNL     1       0.500   2.583   2.220  0.00  0.00    +0.037 A 
ATOM     16  C   UNL     1       0.284   1.146   2.036  0.00  0.00    +0.013 A 
ATOM     17  C   UNL     1      -0.340   0.657   0.833  0.00  0.00    +0.005 A 
ATOM     18  C   UNL     1      -0.755   1.607  -0.196  0.00  0.00    -0.033 A 
ATOM     28  C   UNL     1      -0.534   3.028   0.015  0.00  0.00    +0.005 A 
ATOM     29  C   UNL     1       0.079   3.511   1.192  0.00  0.00    +0.013 A 
BRANCH  18  19
ATOM     19  C   UNL     1      -1.410   1.173  -1.521  0.00  0.00    +0.119 C 
BRANCH  19  20
ATOM     20  N   UNL     1      -2.506   2.034  -2.056  0.00  0.00    -0.302 NA
ATOM     21  C   UNL     1      -3.791   1.906  -1.233  0.00  0.00    +0.066 C 
ATOM     22  C   UNL     1      -4.921   2.830  -1.793  0.00  0.00    -0.064 C 
ATOM     23  N   UNL     1      -5.180   2.482  -3.260  0.00  0.00    +0.379 N 
ATOM     24  C   UNL     1      -6.282   3.310  -3.773  0.00  0.00    -0.096 C 
ATOM     25  H   UNL     1      -5.509   1.417  -3.301  0.00  0.00    -0.082 HD
ATOM     26  C   UNL     1      -3.907   2.604  -4.085  0.00  0.00    -0.064 C 
ATOM     27  C   UNL     1      -2.782   1.704  -3.503  0.00  0.00    +0.066 C 
ENDBRANCH  19  20
ENDBRANCH  18  19
ENDBRANCH  14  15
ENDBRANCH  12  13
TORSDOF 6
ENDMDL
MODEL 4
REMARK VINA RESULT:     -10.8      2.634     12.351
REMARK  Name = C:\Users\Docking\Desktop\test protocol\1iep_ligandH.pdb
REMARK  8 active torsions:
REMARK  status: ('A' for Active; 'I' for Inactive)
REMARK    1  A    between atoms: _5  and  _11
REMARK    2  A    between atoms: _19  and  _21
REMARK    3  A    between atoms: _22  and  _66
REMARK    4  A    between atoms: _27  and  _30
REMARK    5  A    between atoms: _32  and  _33
REMARK    6  A    between atoms: _38  and  _43
REMARK    7  A    between atoms: _43  and  _46
REMARK    8  A    between atoms: _53  and  _55
REMARK                            x       y       z     vdW  Elec       q    Type
REMARK                         _______ _______ _______ _____ _____    ______ ____
ROOT
ATOM     10  C   UNL     1       1.600   3.840   8.160  0.00  0.00    +0.038 A 
ATOM     11  C   UNL     1       0.897   3.656   6.942  0.00  0.00    +0.047 A 
ATOM     12  C   UNL     1       1.453   2.850   5.866  0.00  0.00    +0.035 A 
ATOM     32  C   UNL     1       2.727   2.243   6.066  0.00  0.00    +0.024 A 
ATOM     33  C   UNL     1       3.456   2.420   7.297  0.00  0.00    +0.007 A 
ATOM     34  C   UNL     1       2.914   3.216   8.361  0.00  0.00    -0.029 A 
ATOM     35  C   UNL     1       3.742   3.377   9.657  0.00  0.00    +0.045 C 
ENDROOT
BRANCH  10   9
ATOM      4  C   UNL     1      -1.205   4.387  12.016  0.00  0.00    +0.077 A 
ATOM      5  C   UNL     1      -1.565   2.999  12.024  0.00  0.00    +0.048 A 
ATOM      6  C   UNL     1      -1.013   2.179  11.015  0.00  0.00    +0.116 A 
ATOM      7  N   UNL     1      -0.164   2.718  10.073  0.00  0.00    -0.223 NA
ATOM      8  C   UNL     1       0.162   4.062  10.092  0.00  0.00    +0.220 A 
ATOM      9  N   UNL     1       1.019   4.624   9.159  0.00  0.00    -0.283 N 
ATOM     36  H   UNL     1       1.229   5.621   9.203  0.00  0.00    +0.155 HD
ATOM     37  N   UNL     1      -0.354   4.866  11.045  0.00  0.00    -0.214 NA
BRANCH   4   3
ATOM      1  C   UNL     1      -2.274   7.727  13.750  0.00  0.00    +0.020 A 
ATOM      2  C   UNL     1      -1.784   6.810  12.747  0.00  0.00    +0.013 A 
ATOM      3  C   UNL     1      -1.705   5.380  13.019  0.00  0.00    +0.019 A 
ATOM     38  C   UNL     1      -2.134   4.907  14.326  0.00  0.00    +0.120 A 
ATOM     39  N   UNL     1      -2.601   5.813  15.273  0.00  0.00    -0.263 NA
ATOM     40  C   UNL     1      -2.680   7.191  15.023  0.00  0.00    +0.111 A 
ENDBRANCH   4   3
ENDBRANCH  10   9
BRANCH  12  13
ATOM     13  N   UNL     1       0.789   2.634   4.605  0.00  0.00    -0.281 N 
ATOM     14  C   UNL     1       1.143   3.130   3.360  0.00  0.00    +0.248 C 
ATOM     30  O   UNL     1       1.968   4.012   3.177  0.00  0.00    -0.270 OA
ATOM     31  H   UNL     1      -0.044   2.045   4.632  0.00  0.00    +0.155 HD
BRANCH  14  15
ATOM     15  C   UNL     1       0.474   2.574   2.145  0.00  0.00    +0.037 A 
ATOM     16  C   UNL     1       0.254   1.134   1.990  0.00  0.00    +0.013 A 
ATOM     17  C   UNL     1      -0.379   0.623   0.800  0.00  0.00    +0.005 A 
ATOM     18  C   UNL     1      -0.798   1.554  -0.245  0.00  0.00    -0.033 A 
ATOM     28  C   UNL     1      -0.572   2.978  -0.063  0.00  0.00    +0.005 A 
ATOM     29  C   UNL     1       0.049   3.483   1.102  0.00  0.00    +0.013 A 
BRANCH  18  19
ATOM     19  C   UNL     1      -1.461   1.095  -1.557  0.00  0.00    +0.119 C 
BRANCH  19  20
ATOM     20  N   UNL     1      -2.409  -0.056  -1.478  0.00  0.00    -0.302 NA
ATOM     21  C   UNL     1      -2.113  -1.118  -2.541  0.00  0.00    +0.066 C 
ATOM     22  C   UNL     1      -3.100  -2.325  -2.429  0.00  0.00    -0.064 C 
ATOM     23  N   UNL     1      -4.537  -1.818  -2.556  0.00  0.00    +0.379 N 
ATOM     24  C   UNL     1      -5.465  -2.958  -2.510  0.00  0.00    -0.096 C 
ATOM     25  H   UNL     1      -4.639  -1.339  -3.558  0.00  0.00    -0.082 HD
ATOM     26  C   UNL     1      -4.840  -0.760  -1.505  0.00  0.00    -0.064 C 
ATOM     27  C   UNL     1      -3.835   0.422  -1.606  0.00  0.00    +0.066 C 
ENDBRANCH  19  20
ENDBRANCH  18  19
ENDBRANCH  14  15
ENDBRANCH  12  13
TORSDOF 6
ENDMDL
MODEL 5
REMARK VINA RESULT:     -10.3      4.480     14.340
REMARK  Name = C:\Users\Docking\Desktop\test protocol\1iep_ligandH.pdb
REMARK  8 active torsions:
REMARK  status: ('A' for Active; 'I' for Inactive)
REMARK    1  A    between atoms: _5  and  _11
REMARK    2  A    between atoms: _19  and  _21
REMARK    3  A    between atoms: _22  and  _66
REMARK    4  A    between atoms: _27  and  _30
REMARK    5  A    between atoms: _32  and  _33
REMARK    6  A    between atoms: _38  and  _43
REMARK    7  A    between atoms: _43  and  _46
REMARK    8  A    between atoms: _53  and  _55
REMARK                            x       y       z     vdW  Elec       q    Type
REMARK                         _______ _______ _______ _____ _____    ______ ____
ROOT
ATOM     10  C   UNL     1      -4.372   5.155  15.950  0.00  0.00    +0.038 A 
ATOM     11  C   UNL     1      -3.844   4.604  14.755  0.00  0.00    +0.047 A 
ATOM     12  C   UNL     1      -2.433   4.728  14.427  0.00  0.00    +0.035 A 
ATOM     32  C   UNL     1      -1.585   5.419  15.342  0.00  0.00    +0.024 A 
ATOM     33  C   UNL     1      -2.105   5.987  16.561  0.00  0.00    +0.007 A 
ATOM     34  C   UNL     1      -3.497   5.869  16.888  0.00  0.00    -0.029 A 
ATOM     35  C   UNL     1      -4.000   6.503  18.206  0.00  0.00    +0.045 C 
ENDROOT
BRANCH  10   9
ATOM      4  C   UNL     1      -8.082   2.753  17.821  0.00  0.00    +0.077 A 
ATOM      5  C   UNL     1      -7.237   1.692  18.287  0.00  0.00    +0.048 A 
ATOM      6  C   UNL     1      -5.853   1.800  18.019  0.00  0.00    +0.116 A 
ATOM      7  N   UNL     1      -5.364   2.891  17.335  0.00  0.00    -0.223 NA
ATOM      8  C   UNL     1      -6.207   3.896  16.898  0.00  0.00    +0.220 A 
ATOM      9  N   UNL     1      -5.735   5.006  16.215  0.00  0.00    -0.283 N 
ATOM     36  H   UNL     1      -6.390   5.722  15.902  0.00  0.00    +0.155 HD
ATOM     37  N   UNL     1      -7.532   3.816  17.140  0.00  0.00    -0.214 NA
BRANCH   4   3
ATOM      1  C   UNL     1     -11.622   2.636  19.482  0.00  0.00    +0.020 A 
ATOM      2  C   UNL     1     -10.185   2.595  19.335  0.00  0.00    +0.013 A 
ATOM      3  C   UNL     1      -9.564   2.785  18.030  0.00  0.00    +0.019 A 
ATOM     38  C   UNL     1     -10.433   3.017  16.885  0.00  0.00    +0.120 A 
ATOM     39  N   UNL     1     -11.813   3.050  17.057  0.00  0.00    -0.263 NA
ATOM     40  C   UNL     1     -12.422   2.867  18.308  0.00  0.00    +0.111 A 
ENDBRANCH   4   3
ENDBRANCH  10   9
BRANCH  12  13
ATOM     13  N   UNL     1      -1.842   4.196  13.224  0.00  0.00    -0.281 N 
ATOM     14  C   UNL     1      -1.245   4.894  12.187  0.00  0.00    +0.248 C 
ATOM     30  O   UNL     1      -1.320   6.105  12.036  0.00  0.00    -0.270 OA
ATOM     31  H   UNL     1      -1.867   3.181  13.125  0.00  0.00    +0.155 HD
BRANCH  14  15
ATOM     15  C   UNL     1      -0.465   4.137  11.162  0.00  0.00    +0.037 A 
ATOM     16  C   UNL     1      -0.342   2.679  11.225  0.00  0.00    +0.013 A 
ATOM     17  C   UNL     1       0.431   1.975  10.232  0.00  0.00    +0.005 A 
ATOM     18  C   UNL     1       1.086   2.729   9.166  0.00  0.00    -0.033 A 
ATOM     28  C   UNL     1       0.943   4.175   9.125  0.00  0.00    +0.005 A 
ATOM     29  C   UNL     1       0.187   4.869  10.096  0.00  0.00    +0.013 A 
BRANCH  18  19
ATOM     19  C   UNL     1       1.947   2.063   8.077  0.00  0.00    +0.119 C 
BRANCH  19  20
ATOM     20  N   UNL     1       2.251   2.869   6.858  0.00  0.00    -0.302 NA
ATOM     21  C   UNL     1       1.336   2.505   5.685  0.00  0.00    +0.066 C 
ATOM     22  C   UNL     1       1.653   3.373   4.425  0.00  0.00    -0.064 C 
ATOM     23  N   UNL     1       3.123   3.193   4.041  0.00  0.00    +0.379 N 
ATOM     24  C   UNL     1       3.410   3.963   2.822  0.00  0.00    -0.096 C 
ATOM     25  H   UNL     1       3.281   2.115   3.805  0.00  0.00    -0.082 HD
ATOM     26  C   UNL     1       4.040   3.550   5.202  0.00  0.00    -0.064 C 
ATOM     27  C   UNL     1       3.697   2.702   6.458  0.00  0.00    +0.066 C 
ENDBRANCH  19  20
ENDBRANCH  18  19
ENDBRANCH  14  15
ENDBRANCH  12  13
TORSDOF 6
ENDMDL
