MODEL 1
REMARK VINA RESULT:      -8.3      0.000      0.000
REMARK  Name = C:\Users\Docking\Desktop\test protocol\1iep_ligandH.pdb
REMARK  8 active torsions:
REMARK  status: ('A' for Active; 'I' for Inactive)
REMARK    1  A    between atoms: _5  and  _11
REMARK    2  A    between atoms: _19  and  _21
REMARK    3  A    between atoms: _22  and  _66
REMARK    4  A    between atoms: _27  and  _30
REMARK    5  A    between atoms: _32  and  _33
REMARK    6  A    between atoms: _38  and  _43
REMARK    7  A    between atoms: _43  and  _46
REMARK    8  A    between atoms: _53  and  _55
REMARK                            x       y       z     vdW  Elec       q    Type
REMARK                         _______ _______ _______ _____ _____    ______ ____
ROOT
ATOM     10  C   UNL     1      -2.285   7.950  29.779  0.00  0.00    +0.038 A 
ATOM     11  C   UNL     1      -3.273   6.960  30.013  0.00  0.00    +0.047 A 
ATOM     12  C   UNL     1      -4.686   7.248  29.825  0.00  0.00    +0.035 A 
ATOM     32  C   UNL     1      -5.058   8.555  29.395  0.00  0.00    +0.024 A 
ATOM     33  C   UNL     1      -4.066   9.574  29.154  0.00  0.00    +0.007 A 
ATOM     34  C   UNL     1      -2.671   9.296  29.340  0.00  0.00    -0.029 A 
ATOM     35  C   UNL     1      -1.652  10.428  29.072  0.00  0.00    +0.045 C 
ENDROOT
BRANCH  10   9
ATOM      4  C   UNL     1       1.995   6.494  28.166  0.00  0.00    +0.077 A 
ATOM      5  C   UNL     1       1.508   6.357  26.823  0.00  0.00    +0.048 A 
ATOM      6  C   UNL     1       0.149   6.664  26.591  0.00  0.00    +0.116 A 
ATOM      7  N   UNL     1      -0.655   7.077  27.632  0.00  0.00    -0.223 NA
ATOM      8  C   UNL     1      -0.154   7.197  28.915  0.00  0.00    +0.220 A 
ATOM      9  N   UNL     1      -0.942   7.618  29.975  0.00  0.00    -0.283 N 
ATOM     36  H   UNL     1      -0.537   7.686  30.909  0.00  0.00    +0.155 HD
ATOM     37  N   UNL     1       1.140   6.908  29.163  0.00  0.00    -0.214 NA
BRANCH   4   3
ATOM      1  C   UNL     1       5.492   4.788  28.564  0.00  0.00    +0.020 A 
ATOM      2  C   UNL     1       4.128   5.015  28.147  0.00  0.00    +0.013 A 
ATOM      3  C   UNL     1       3.409   6.210  28.569  0.00  0.00    +0.019 A 
ATOM     38  C   UNL     1       4.105   7.164  29.419  0.00  0.00    +0.120 A 
ATOM     39  N   UNL     1       5.419   6.919  29.805  0.00  0.00    -0.263 NA
ATOM     40  C   UNL     1       6.120   5.771  29.407  0.00  0.00    +0.111 A 
ENDBRANCH   4   3
ENDBRANCH  10   9
BRANCH  12  13
ATOM     13  N   UNL     1      -5.735   6.286  30.056  0.00  0.00    -0.281 N 
ATOM     14  C   UNL     1      -5.837   5.000  29.551  0.00  0.00    +0.248 C 
ATOM     30  O   UNL     1      -5.143   4.555  28.648  0.00  0.00    -0.270 OA
ATOM     31  H   UNL     1      -6.495   6.590  30.664  0.00  0.00    +0.155 HD
BRANCH  14  15
ATOM     15  C   UNL     1      -6.867   4.080  30.121  0.00  0.00    +0.037 A 
ATOM     16  C   UNL     1      -7.033   2.716  29.612  0.00  0.00    +0.013 A 
ATOM     17  C   UNL     1      -8.046   1.854  30.169  0.00  0.00    +0.005 A 
ATOM     18  C   UNL     1      -8.901   2.355  31.243  0.00  0.00    -0.033 A 
ATOM     28  C   UNL     1      -8.711   3.710  31.732  0.00  0.00    +0.005 A 
ATOM     29  C   UNL     1      -7.720   4.558  31.188  0.00  0.00    +0.013 A 
BRANCH  18  19
ATOM     19  C   UNL     1     -10.021   1.513  31.881  0.00  0.00    +0.119 C 
BRANCH  19  20
ATOM     20  N   UNL     1     -11.288   1.360  31.106  0.00  0.00    -0.302 NA
ATOM     21  C   UNL     1     -12.510   1.821  31.905  0.00  0.00    +0.066 C 
ATOM     22  C   UNL     1     -13.824   1.676  31.071  0.00  0.00    -0.064 C 
ATOM     23  N   UNL     1     -13.985   0.221  30.627  0.00  0.00    +0.379 N 
ATOM     24  C   UNL     1     -15.249   0.069  29.892  0.00  0.00    -0.096 C 
ATOM     25  H   UNL     1     -14.050  -0.408  31.546  0.00  0.00    -0.082 HD
ATOM     26  C   UNL     1     -12.773  -0.247  29.834  0.00  0.00    -0.064 C 
ATOM     27  C   UNL     1     -11.469  -0.070  30.661  0.00  0.00    +0.066 C 
ENDBRANCH  19  20
ENDBRANCH  18  19
ENDBRANCH  14  15
ENDBRANCH  12  13
TORSDOF 6
ENDMDL
MODEL 2
REMARK VINA RESULT:      -8.2      7.930     12.889
REMARK  Name = C:\Users\Docking\Desktop\test protocol\1iep_ligandH.pdb
REMARK  8 active torsions:
REMARK  status: ('A' for Active; 'I' for Inactive)
REMARK    1  A    between atoms: _5  and  _11
REMARK    2  A    between atoms: _19  and  _21
REMARK    3  A    between atoms: _22  and  _66
REMARK    4  A    between atoms: _27  and  _30
REMARK    5  A    between atoms: _32  and  _33
REMARK    6  A    between atoms: _38  and  _43
REMARK    7  A    between atoms: _43  and  _46
REMARK    8  A    between atoms: _53  and  _55
REMARK                            x       y       z     vdW  Elec       q    Type
REMARK                         _______ _______ _______ _____ _____    ______ ____
ROOT
ATOM     10  C   UNL     1       5.589   1.686  22.545  0.00  0.00    +0.038 A 
ATOM     11  C   UNL     1       4.404   2.302  23.023  0.00  0.00    +0.047 A 
ATOM     12  C   UNL     1       4.445   3.271  24.107  0.00  0.00    +0.035 A 
ATOM     32  C   UNL     1       5.711   3.592  24.679  0.00  0.00    +0.024 A 
ATOM     33  C   UNL     1       6.925   2.974  24.206  0.00  0.00    +0.007 A 
ATOM     34  C   UNL     1       6.890   2.015  23.138  0.00  0.00    -0.029 A 
ATOM     35  C   UNL     1       8.222   1.379  22.676  0.00  0.00    +0.045 C 
ENDROOT
BRANCH  10   9
ATOM      4  C   UNL     1       5.206  -2.803  20.888  0.00  0.00    +0.077 A 
ATOM      5  C   UNL     1       5.230  -3.356  22.211  0.00  0.00    +0.048 A 
ATOM      6  C   UNL     1       5.349  -2.452  23.290  0.00  0.00    +0.116 A 
ATOM      7  N   UNL     1       5.436  -1.098  23.052  0.00  0.00    -0.223 NA
ATOM      8  C   UNL     1       5.412  -0.597  21.764  0.00  0.00    +0.220 A 
ATOM      9  N   UNL     1       5.491   0.762  21.502  0.00  0.00    -0.283 N 
ATOM     36  H   UNL     1       5.477   1.091  20.536  0.00  0.00    +0.155 HD
ATOM     37  N   UNL     1       5.301  -1.440  20.716  0.00  0.00    -0.214 NA
BRANCH   4   3
ATOM      1  C   UNL     1       4.087  -5.525  18.311  0.00  0.00    +0.020 A 
ATOM      2  C   UNL     1       4.169  -4.760  19.534  0.00  0.00    +0.013 A 
ATOM      3  C   UNL     1       5.081  -3.629  19.645  0.00  0.00    +0.019 A 
ATOM     38  C   UNL     1       5.902  -3.294  18.491  0.00  0.00    +0.120 A 
ATOM     39  N   UNL     1       5.802  -4.049  17.327  0.00  0.00    -0.263 NA
ATOM     40  C   UNL     1       4.930  -5.141  17.209  0.00  0.00    +0.111 A 
ENDBRANCH   4   3
ENDBRANCH  10   9
BRANCH  12  13
ATOM     13  N   UNL     1       3.275   3.924  24.640  0.00  0.00    -0.281 N 
ATOM     14  C   UNL     1       2.854   3.974  25.958  0.00  0.00    +0.248 C 
ATOM     30  O   UNL     1       3.310   3.281  26.856  0.00  0.00    -0.270 OA
ATOM     31  H   UNL     1       2.685   4.407  23.962  0.00  0.00    +0.155 HD
BRANCH  14  15
ATOM     15  C   UNL     1       1.760   4.921  26.331  0.00  0.00    +0.037 A 
ATOM     16  C   UNL     1       1.397   5.149  27.733  0.00  0.00    +0.013 A 
ATOM     17  C   UNL     1       0.326   6.055  28.064  0.00  0.00    +0.005 A 
ATOM     18  C   UNL     1      -0.390   6.740  26.991  0.00  0.00    -0.033 A 
ATOM     28  C   UNL     1      -0.006   6.500  25.610  0.00  0.00    +0.005 A 
ATOM     29  C   UNL     1       1.042   5.612  25.281  0.00  0.00    +0.013 A 
BRANCH  18  19
ATOM     19  C   UNL     1      -1.560   7.708  27.251  0.00  0.00    +0.119 C 
BRANCH  19  20
ATOM     20  N   UNL     1      -1.476   8.572  28.466  0.00  0.00    -0.302 NA
ATOM     21  C   UNL     1      -2.740   9.415  28.660  0.00  0.00    +0.066 C 
ATOM     22  C   UNL     1      -2.643  10.296  29.948  0.00  0.00    -0.064 C 
ATOM     23  N   UNL     1      -1.405  11.190  29.859  0.00  0.00    +0.379 N 
ATOM     24  C   UNL     1      -1.343  12.062  31.041  0.00  0.00    -0.096 C 
ATOM     25  H   UNL     1      -1.523  11.843  28.963  0.00  0.00    -0.082 HD
ATOM     26  C   UNL     1      -0.144  10.361  29.662  0.00  0.00    -0.064 C 
ATOM     27  C   UNL     1      -0.262   9.467  28.397  0.00  0.00    +0.066 C 
ENDBRANCH  19  20
ENDBRANCH  18  19
ENDBRANCH  14  15
ENDBRANCH  12  13
TORSDOF 6
ENDMDL
MODEL 3
REMARK VINA RESULT:      -8.1      1.500      2.086
REMARK  Name = C:\Users\Docking\Desktop\test protocol\1iep_ligandH.pdb
REMARK  8 active torsions:
REMARK  status: ('A' for Active; 'I' for Inactive)
REMARK    1  A    between atoms: _5  and  _11
REMARK    2  A    between atoms: _19  and  _21
REMARK    3  A    between atoms: _22  and  _66
REMARK    4  A    between atoms: _27  and  _30
REMARK    5  A    between atoms: _32  and  _33
REMARK    6  A    between atoms: _38  and  _43
REMARK    7  A    between atoms: _43  and  _46
REMARK    8  A    between atoms: _53  and  _55
REMARK                            x       y       z     vdW  Elec       q    Type
REMARK                         _______ _______ _______ _____ _____    ______ ____
ROOT
ATOM     10  C   UNL     1      -2.631   7.254  28.261  0.00  0.00    +0.038 A 
ATOM     11  C   UNL     1      -3.629   6.392  28.783  0.00  0.00    +0.047 A 
ATOM     12  C   UNL     1      -4.781   6.919  29.498  0.00  0.00    +0.035 A 
ATOM     32  C   UNL     1      -4.885   8.331  29.663  0.00  0.00    +0.024 A 
ATOM     33  C   UNL     1      -3.879   9.222  29.140  0.00  0.00    +0.007 A 
ATOM     34  C   UNL     1      -2.740   8.708  28.435  0.00  0.00    -0.029 A 
ATOM     35  C   UNL     1      -1.689   9.709  27.902  0.00  0.00    +0.045 C 
ENDROOT
BRANCH  10   9
ATOM      4  C   UNL     1       1.852   5.546  28.124  0.00  0.00    +0.077 A 
ATOM      5  C   UNL     1       2.062   5.819  29.517  0.00  0.00    +0.048 A 
ATOM      6  C   UNL     1       0.993   6.405  30.231  0.00  0.00    +0.116 A 
ATOM      7  N   UNL     1      -0.193   6.693  29.590  0.00  0.00    -0.223 NA
ATOM      8  C   UNL     1      -0.361   6.419  28.245  0.00  0.00    +0.220 A 
ATOM      9  N   UNL     1      -1.547   6.694  27.582  0.00  0.00    -0.283 N 
ATOM     36  H   UNL     1      -1.629   6.483  26.588  0.00  0.00    +0.155 HD
ATOM     37  N   UNL     1       0.645   5.861  27.540  0.00  0.00    -0.214 NA
BRANCH   4   3
ATOM      1  C   UNL     1       3.597   3.727  25.133  0.00  0.00    +0.020 A 
ATOM      2  C   UNL     1       2.562   4.313  25.953  0.00  0.00    +0.013 A 
ATOM      3  C   UNL     1       2.885   4.926  27.235  0.00  0.00    +0.019 A 
ATOM     38  C   UNL     1       4.276   4.931  27.661  0.00  0.00    +0.120 A 
ATOM     39  N   UNL     1       5.252   4.358  26.851  0.00  0.00    -0.263 NA
ATOM     40  C   UNL     1       4.952   3.764  25.616  0.00  0.00    +0.111 A 
ENDBRANCH   4   3
ENDBRANCH  10   9
BRANCH  12  13
ATOM     13  N   UNL     1      -5.821   6.092  30.057  0.00  0.00    -0.281 N 
ATOM     14  C   UNL     1      -6.155   4.793  29.710  0.00  0.00    +0.248 C 
ATOM     30  O   UNL     1      -5.744   4.217  28.714  0.00  0.00    -0.270 OA
ATOM     31  H   UNL     1      -6.380   6.516  30.798  0.00  0.00    +0.155 HD
BRANCH  14  15
ATOM     15  C   UNL     1      -7.091   4.029  30.590  0.00  0.00    +0.037 A 
ATOM     16  C   UNL     1      -6.913   2.593  30.823  0.00  0.00    +0.013 A 
ATOM     17  C   UNL     1      -7.840   1.877  31.662  0.00  0.00    +0.005 A 
ATOM     18  C   UNL     1      -8.954   2.596  32.276  0.00  0.00    -0.033 A 
ATOM     28  C   UNL     1      -9.104   4.021  32.032  0.00  0.00    +0.005 A 
ATOM     29  C   UNL     1      -8.197   4.727  31.209  0.00  0.00    +0.013 A 
BRANCH  18  19
ATOM     19  C   UNL     1     -10.004   1.908  33.169  0.00  0.00    +0.119 C 
BRANCH  19  20
ATOM     20  N   UNL     1     -11.247   1.414  32.506  0.00  0.00    -0.302 NA
ATOM     21  C   UNL     1     -11.006   1.036  31.041  0.00  0.00    +0.066 C 
ATOM     22  C   UNL     1     -12.312   0.501  30.369  0.00  0.00    -0.064 C 
ATOM     23  N   UNL     1     -13.411   1.558  30.482  0.00  0.00    +0.379 N 
ATOM     24  C   UNL     1     -14.623   1.081  29.800  0.00  0.00    -0.096 C 
ATOM     25  H   UNL     1     -13.059   2.470  29.947  0.00  0.00    -0.082 HD
ATOM     26  C   UNL     1     -13.656   1.941  31.935  0.00  0.00    -0.064 C 
ATOM     27  C   UNL     1     -12.345   2.445  32.601  0.00  0.00    +0.066 C 
ENDBRANCH  19  20
ENDBRANCH  18  19
ENDBRANCH  14  15
ENDBRANCH  12  13
TORSDOF 6
ENDMDL
MODEL 4
REMARK VINA RESULT:      -8.0      9.289     14.588
REMARK  Name = C:\Users\Docking\Desktop\test protocol\1iep_ligandH.pdb
REMARK  8 active torsions:
REMARK  status: ('A' for Active; 'I' for Inactive)
REMARK    1  A    between atoms: _5  and  _11
REMARK    2  A    between atoms: _19  and  _21
REMARK    3  A    between atoms: _22  and  _66
REMARK    4  A    between atoms: _27  and  _30
REMARK    5  A    between atoms: _32  and  _33
REMARK    6  A    between atoms: _38  and  _43
REMARK    7  A    between atoms: _43  and  _46
REMARK    8  A    between atoms: _53  and  _55
REMARK                            x       y       z     vdW  Elec       q    Type
REMARK                         _______ _______ _______ _____ _____    ______ ____
ROOT
ATOM     10  C   UNL     1       6.321  -0.055  21.396  0.00  0.00    +0.038 A 
ATOM     11  C   UNL     1       5.545   0.605  22.383  0.00  0.00    +0.047 A 
ATOM     12  C   UNL     1       6.157   1.131  23.593  0.00  0.00    +0.035 A 
ATOM     32  C   UNL     1       7.563   0.970  23.765  0.00  0.00    +0.024 A 
ATOM     33  C   UNL     1       8.367   0.301  22.772  0.00  0.00    +0.007 A 
ATOM     34  C   UNL     1       7.768  -0.223  21.578  0.00  0.00    -0.029 A 
ATOM     35  C   UNL     1       8.677  -0.937  20.550  0.00  0.00    +0.045 C 
ENDROOT
BRANCH  10   9
ATOM      4  C   UNL     1       4.205  -3.567  18.901  0.00  0.00    +0.077 A 
ATOM      5  C   UNL     1       4.414  -4.520  19.951  0.00  0.00    +0.048 A 
ATOM      6  C   UNL     1       5.077  -4.069  21.115  0.00  0.00    +0.116 A 
ATOM      7  N   UNL     1       5.494  -2.759  21.209  0.00  0.00    -0.223 NA
ATOM      8  C   UNL     1       5.278  -1.865  20.177  0.00  0.00    +0.220 A 
ATOM      9  N   UNL     1       5.682  -0.541  20.254  0.00  0.00    -0.283 N 
ATOM     36  H   UNL     1       5.510   0.085  19.467  0.00  0.00    +0.155 HD
ATOM     37  N   UNL     1       4.648  -2.272  19.055  0.00  0.00    -0.214 NA
BRANCH   4   3
ATOM      1  C   UNL     1       2.175  -3.256  15.571  0.00  0.00    +0.020 A 
ATOM      2  C   UNL     1       2.824  -2.890  16.809  0.00  0.00    +0.013 A 
ATOM      3  C   UNL     1       3.517  -3.891  17.611  0.00  0.00    +0.019 A 
ATOM     38  C   UNL     1       3.536  -5.263  17.127  0.00  0.00    +0.120 A 
ATOM     39  N   UNL     1       2.902  -5.586  15.931  0.00  0.00    -0.263 NA
ATOM     40  C   UNL     1       2.231  -4.631  15.152  0.00  0.00    +0.111 A 
ENDBRANCH   4   3
ENDBRANCH  10   9
BRANCH  12  13
ATOM     13  N   UNL     1       5.419   1.803  24.634  0.00  0.00    -0.281 N 
ATOM     14  C   UNL     1       5.441   3.150  24.960  0.00  0.00    +0.248 C 
ATOM     30  O   UNL     1       6.265   3.949  24.541  0.00  0.00    -0.270 OA
ATOM     31  H   UNL     1       4.806   1.215  25.199  0.00  0.00    +0.155 HD
BRANCH  14  15
ATOM     15  C   UNL     1       4.406   3.682  25.898  0.00  0.00    +0.037 A 
ATOM     16  C   UNL     1       4.784   4.396  27.120  0.00  0.00    +0.013 A 
ATOM     17  C   UNL     1       3.766   4.885  28.016  0.00  0.00    +0.005 A 
ATOM     18  C   UNL     1       2.359   4.662  27.692  0.00  0.00    -0.033 A 
ATOM     28  C   UNL     1       2.012   3.955  26.470  0.00  0.00    +0.005 A 
ATOM     29  C   UNL     1       3.007   3.474  25.590  0.00  0.00    +0.013 A 
BRANCH  18  19
ATOM     19  C   UNL     1       1.207   5.129  28.601  0.00  0.00    +0.119 C 
BRANCH  19  20
ATOM     20  N   UNL     1       1.232   6.550  29.059  0.00  0.00    -0.302 NA
ATOM     21  C   UNL     1       1.555   6.667  30.552  0.00  0.00    +0.066 C 
ATOM     22  C   UNL     1       1.599   8.161  31.010  0.00  0.00    -0.064 C 
ATOM     23  N   UNL     1       0.260   8.828  30.692  0.00  0.00    +0.379 N 
ATOM     24  C   UNL     1       0.277  10.217  31.174  0.00  0.00    -0.096 C 
ATOM     25  H   UNL     1      -0.532   8.284  31.258  0.00  0.00    -0.082 HD
ATOM     26  C   UNL     1      -0.071   8.715  29.211  0.00  0.00    -0.064 C 
ATOM     27  C   UNL     1      -0.083   7.227  28.759  0.00  0.00    +0.066 C 
ENDBRANCH  19  20
ENDBRANCH  18  19
ENDBRANCH  14  15
ENDBRANCH  12  13
TORSDOF 6
ENDMDL
MODEL 5
REMARK VINA RESULT:      -8.0      8.093     12.886
REMARK  Name = C:\Users\Docking\Desktop\test protocol\1iep_ligandH.pdb
REMARK  8 active torsions:
REMARK  status: ('A' for Active; 'I' for Inactive)
REMARK    1  A    between atoms: _5  and  _11
REMARK    2  A    between atoms: _19  and  _21
REMARK    3  A    between atoms: _22  and  _66
REMARK    4  A    between atoms: _27  and  _30
REMARK    5  A    between atoms: _32  and  _33
REMARK    6  A    between atoms: _38  and  _43
REMARK    7  A    between atoms: _43  and  _46
REMARK    8  A    between atoms: _53  and  _55
REMARK                            x       y       z     vdW  Elec       q    Type
REMARK                         _______ _______ _______ _____ _____    ______ ____
ROOT
ATOM     10  C   UNL     1       5.988   0.344  23.749  0.00  0.00    +0.038 A 
ATOM     11  C   UNL     1       4.889   1.200  24.017  0.00  0.00    +0.047 A 
ATOM     12  C   UNL     1       5.077   2.632  24.191  0.00  0.00    +0.035 A 
ATOM     32  C   UNL     1       6.397   3.159  24.083  0.00  0.00    +0.024 A 
ATOM     33  C   UNL     1       7.525   2.303  23.812  0.00  0.00    +0.007 A 
ATOM     34  C   UNL     1       7.346   0.889  23.642  0.00  0.00    -0.029 A 
ATOM     35  C   UNL     1       8.593   0.018  23.360  0.00  0.00    +0.045 C 
ENDROOT
BRANCH  10   9
ATOM      4  C   UNL     1       5.049  -3.503  21.036  0.00  0.00    +0.077 A 
ATOM      5  C   UNL     1       5.001  -2.718  19.836  0.00  0.00    +0.048 A 
ATOM      6  C   UNL     1       5.216  -1.327  19.961  0.00  0.00    +0.116 A 
ATOM      7  N   UNL     1       5.460  -0.773  21.199  0.00  0.00    -0.223 NA
ATOM      8  C   UNL     1       5.498  -1.558  22.336  0.00  0.00    +0.220 A 
ATOM      9  N   UNL     1       5.751  -1.023  23.590  0.00  0.00    -0.283 N 
ATOM     36  H   UNL     1       5.763  -1.635  24.406  0.00  0.00    +0.155 HD
ATOM     37  N   UNL     1       5.295  -2.889  22.244  0.00  0.00    -0.214 NA
BRANCH   4   3
ATOM      1  C   UNL     1       3.620  -7.088  20.401  0.00  0.00    +0.020 A 
ATOM      2  C   UNL     1       3.773  -5.653  20.339  0.00  0.00    +0.013 A 
ATOM      3  C   UNL     1       4.845  -4.986  21.066  0.00  0.00    +0.019 A 
ATOM     38  C   UNL     1       5.754  -5.806  21.853  0.00  0.00    +0.120 A 
ATOM     39  N   UNL     1       5.581  -7.186  21.895  0.00  0.00    -0.263 NA
ATOM     40  C   UNL     1       4.552  -7.839  21.201  0.00  0.00    +0.111 A 
ENDBRANCH   4   3
ENDBRANCH  10   9
BRANCH  12  13
ATOM     13  N   UNL     1       4.001   3.550  24.473  0.00  0.00    -0.281 N 
ATOM     14  C   UNL     1       3.333   3.738  25.672  0.00  0.00    +0.248 C 
ATOM     30  O   UNL     1       3.418   2.989  26.635  0.00  0.00    -0.270 OA
ATOM     31  H   UNL     1       3.693   4.131  23.693  0.00  0.00    +0.155 HD
BRANCH  14  15
ATOM     15  C   UNL     1       2.430   4.919  25.819  0.00  0.00    +0.037 A 
ATOM     16  C   UNL     1       2.526   5.810  26.978  0.00  0.00    +0.013 A 
ATOM     17  C   UNL     1       1.631   6.933  27.103  0.00  0.00    +0.005 A 
ATOM     18  C   UNL     1       0.633   7.173  26.064  0.00  0.00    -0.033 A 
ATOM     28  C   UNL     1       0.563   6.277  24.921  0.00  0.00    +0.005 A 
ATOM     29  C   UNL     1       1.438   5.174  24.796  0.00  0.00    +0.013 A 
BRANCH  18  19
ATOM     19  C   UNL     1      -0.377   8.334  26.125  0.00  0.00    +0.119 C 
BRANCH  19  20
ATOM     20  N   UNL     1      -1.196   8.463  27.367  0.00  0.00    -0.302 NA
ATOM     21  C   UNL     1      -2.075   7.232  27.606  0.00  0.00    +0.066 C 
ATOM     22  C   UNL     1      -2.909   7.374  28.921  0.00  0.00    -0.064 C 
ATOM     23  N   UNL     1      -3.761   8.642  28.847  0.00  0.00    +0.379 N 
ATOM     24  C   UNL     1      -4.589   8.747  30.057  0.00  0.00    -0.096 C 
ATOM     25  H   UNL     1      -4.447   8.537  27.975  0.00  0.00    -0.082 HD
ATOM     26  C   UNL     1      -2.895   9.870  28.608  0.00  0.00    -0.064 C 
ATOM     27  C   UNL     1      -2.049   9.707  27.314  0.00  0.00    +0.066 C 
ENDBRANCH  19  20
ENDBRANCH  18  19
ENDBRANCH  14  15
ENDBRANCH  12  13
TORSDOF 6
ENDMDL
