MODEL 1
REMARK VINA RESULT:     -10.7      0.000      0.000
REMARK  Name = C:\Users\Docking\Desktop\test protocol\1iep_ligandH.pdb
REMARK  8 active torsions:
REMARK  status: ('A' for Active; 'I' for Inactive)
REMARK    1  A    between atoms: _5  and  _11
REMARK    2  A    between atoms: _19  and  _21
REMARK    3  A    between atoms: _22  and  _66
REMARK    4  A    between atoms: _27  and  _30
REMARK    5  A    between atoms: _32  and  _33
REMARK    6  A    between atoms: _38  and  _43
REMARK    7  A    between atoms: _43  and  _46
REMARK    8  A    between atoms: _53  and  _55
REMARK                            x       y       z     vdW  Elec       q    Type
REMARK                         _______ _______ _______ _____ _____    ______ ____
ROOT
ATOM     10  C   UNL     1      42.169  12.136  76.479  0.00  0.00    +0.038 A 
ATOM     11  C   UNL     1      41.037  12.835  75.987  0.00  0.00    +0.047 A 
ATOM     12  C   UNL     1      39.772  12.153  75.761  0.00  0.00    +0.035 A 
ATOM     32  C   UNL     1      39.694  10.760  76.051  0.00  0.00    +0.024 A 
ATOM     33  C   UNL     1      40.835  10.034  76.551  0.00  0.00    +0.007 A 
ATOM     34  C   UNL     1      42.086  10.701  76.773  0.00  0.00    -0.029 A 
ATOM     35  C   UNL     1      43.279   9.871  77.305  0.00  0.00    +0.045 C 
ENDROOT
BRANCH  10   9
ATOM      4  C   UNL     1      45.364  14.340  79.303  0.00  0.00    +0.077 A 
ATOM      5  C   UNL     1      44.583  14.091  80.481  0.00  0.00    +0.048 A 
ATOM      6  C   UNL     1      43.362  13.399  80.316  0.00  0.00    +0.116 A 
ATOM      7  N   UNL     1      42.962  12.991  79.062  0.00  0.00    -0.223 NA
ATOM      8  C   UNL     1      43.738  13.249  77.946  0.00  0.00    +0.220 A 
ATOM      9  N   UNL     1      43.359  12.841  76.677  0.00  0.00    -0.283 N 
ATOM     36  H   UNL     1      43.955  13.057  75.879  0.00  0.00    +0.155 HD
ATOM     37  N   UNL     1      44.907  13.909  78.077  0.00  0.00    -0.214 NA
BRANCH   4   3
ATOM      1  C   UNL     1      48.890  15.653  80.372  0.00  0.00    +0.020 A 
ATOM      2  C   UNL     1      47.634  14.940  80.409  0.00  0.00    +0.013 A 
ATOM      3  C   UNL     1      46.678  15.057  79.315  0.00  0.00    +0.019 A 
ATOM     38  C   UNL     1      47.027  15.908  78.188  0.00  0.00    +0.120 A 
ATOM     39  N   UNL     1      48.244  16.584  78.180  0.00  0.00    -0.263 NA
ATOM     40  C   UNL     1      49.170  16.481  79.228  0.00  0.00    +0.111 A 
ENDBRANCH   4   3
ENDBRANCH  10   9
BRANCH  12  13
ATOM     13  N   UNL     1      38.591  12.808  75.255  0.00  0.00    -0.281 N 
ATOM     14  C   UNL     1      37.991  12.645  74.018  0.00  0.00    +0.248 C 
ATOM     30  O   UNL     1      38.503  12.065  73.072  0.00  0.00    -0.270 OA
ATOM     31  H   UNL     1      38.143  13.473  75.886  0.00  0.00    +0.155 HD
BRANCH  14  15
ATOM     15  C   UNL     1      36.630  13.221  73.793  0.00  0.00    +0.037 A 
ATOM     16  C   UNL     1      35.614  12.494  73.027  0.00  0.00    +0.013 A 
ATOM     17  C   UNL     1      34.315  13.081  72.811  0.00  0.00    +0.005 A 
ATOM     18  C   UNL     1      34.024  14.401  73.364  0.00  0.00    -0.033 A 
ATOM     28  C   UNL     1      35.049  15.098  74.125  0.00  0.00    +0.005 A 
ATOM     29  C   UNL     1      36.323  14.527  74.337  0.00  0.00    +0.013 A 
BRANCH  18  19
ATOM     19  C   UNL     1      32.672  15.112  73.165  0.00  0.00    +0.119 C 
BRANCH  19  20
ATOM     20  N   UNL     1      31.441  14.270  73.229  0.00  0.00    -0.302 NA
ATOM     21  C   UNL     1      31.323  13.332  72.024  0.00  0.00    +0.066 C 
ATOM     22  C   UNL     1      30.041  12.442  72.119  0.00  0.00    -0.064 C 
ATOM     23  N   UNL     1      28.808  13.340  72.228  0.00  0.00    +0.379 N 
ATOM     24  C   UNL     1      27.596  12.508  72.258  0.00  0.00    -0.096 C 
ATOM     25  H   UNL     1      28.764  13.968  71.308  0.00  0.00    -0.082 HD
ATOM     26  C   UNL     1      28.917  14.278  73.422  0.00  0.00    -0.064 C 
ATOM     27  C   UNL     1      30.210  15.136  73.333  0.00  0.00    +0.066 C 
ENDBRANCH  19  20
ENDBRANCH  18  19
ENDBRANCH  14  15
ENDBRANCH  12  13
TORSDOF 6
ENDMDL
MODEL 2
REMARK VINA RESULT:     -10.6      1.425      1.934
REMARK  Name = C:\Users\Docking\Desktop\test protocol\1iep_ligandH.pdb
REMARK  8 active torsions:
REMARK  status: ('A' for Active; 'I' for Inactive)
REMARK    1  A    between atoms: _5  and  _11
REMARK    2  A    between atoms: _19  and  _21
REMARK    3  A    between atoms: _22  and  _66
REMARK    4  A    between atoms: _27  and  _30
REMARK    5  A    between atoms: _32  and  _33
REMARK    6  A    between atoms: _38  and  _43
REMARK    7  A    between atoms: _43  and  _46
REMARK    8  A    between atoms: _53  and  _55
REMARK                            x       y       z     vdW  Elec       q    Type
REMARK                         _______ _______ _______ _____ _____    ______ ____
ROOT
ATOM     10  C   UNL     1      43.634  12.573  77.095  0.00  0.00    +0.038 A 
ATOM     11  C   UNL     1      42.538  13.126  76.384  0.00  0.00    +0.047 A 
ATOM     12  C   UNL     1      41.222  12.508  76.429  0.00  0.00    +0.035 A 
ATOM     32  C   UNL     1      41.057  11.328  77.212  0.00  0.00    +0.024 A 
ATOM     33  C   UNL     1      42.159  10.752  77.940  0.00  0.00    +0.007 A 
ATOM     34  C   UNL     1      43.460  11.355  77.897  0.00  0.00    -0.029 A 
ATOM     35  C   UNL     1      44.608  10.690  78.692  0.00  0.00    +0.045 C 
ENDROOT
BRANCH  10   9
ATOM      4  C   UNL     1      46.956  15.597  78.784  0.00  0.00    +0.077 A 
ATOM      5  C   UNL     1      46.139  15.963  79.904  0.00  0.00    +0.048 A 
ATOM      6  C   UNL     1      44.867  15.356  80.005  0.00  0.00    +0.116 A 
ATOM      7  N   UNL     1      44.454  14.451  79.052  0.00  0.00    -0.223 NA
ATOM      8  C   UNL     1      45.267  14.121  77.983  0.00  0.00    +0.220 A 
ATOM      9  N   UNL     1      44.875  13.208  77.016  0.00  0.00    -0.283 N 
ATOM     36  H   UNL     1      45.501  12.996  76.239  0.00  0.00    +0.155 HD
ATOM     37  N   UNL     1      46.485  14.688  77.863  0.00  0.00    -0.214 NA
BRANCH   4   3
ATOM      1  C   UNL     1      50.668  16.728  79.280  0.00  0.00    +0.020 A 
ATOM      2  C   UNL     1      49.361  16.183  79.567  0.00  0.00    +0.013 A 
ATOM      3  C   UNL     1      48.326  16.150  78.541  0.00  0.00    +0.019 A 
ATOM     38  C   UNL     1      48.650  16.678  77.224  0.00  0.00    +0.120 A 
ATOM     39  N   UNL     1      49.917  17.198  76.978  0.00  0.00    -0.263 NA
ATOM     40  C   UNL     1      50.920  17.237  77.958  0.00  0.00    +0.111 A 
ENDBRANCH   4   3
ENDBRANCH  10   9
BRANCH  12  13
ATOM     13  N   UNL     1      40.075  13.020  75.722  0.00  0.00    -0.281 N 
ATOM     14  C   UNL     1      39.153  12.312  74.969  0.00  0.00    +0.248 C 
ATOM     30  O   UNL     1      39.297  11.152  74.612  0.00  0.00    -0.270 OA
ATOM     31  H   UNL     1      39.924  14.027  75.784  0.00  0.00    +0.155 HD
BRANCH  14  15
ATOM     15  C   UNL     1      37.895  12.995  74.538  0.00  0.00    +0.037 A 
ATOM     16  C   UNL     1      37.778  13.606  73.212  0.00  0.00    +0.013 A 
ATOM     17  C   UNL     1      36.560  14.274  72.828  0.00  0.00    +0.005 A 
ATOM     18  C   UNL     1      35.447  14.332  73.772  0.00  0.00    -0.033 A 
ATOM     28  C   UNL     1      35.588  13.713  75.080  0.00  0.00    +0.005 A 
ATOM     29  C   UNL     1      36.781  13.058  75.460  0.00  0.00    +0.013 A 
BRANCH  18  19
ATOM     19  C   UNL     1      34.117  15.042  73.456  0.00  0.00    +0.119 C 
BRANCH  19  20
ATOM     20  N   UNL     1      32.882  14.202  73.433  0.00  0.00    -0.302 NA
ATOM     21  C   UNL     1      33.072  12.924  72.611  0.00  0.00    +0.066 C 
ATOM     22  C   UNL     1      31.777  12.047  72.617  0.00  0.00    -0.064 C 
ATOM     23  N   UNL     1      30.605  12.868  72.078  0.00  0.00    +0.379 N 
ATOM     24  C   UNL     1      29.399  12.029  72.028  0.00  0.00    -0.096 C 
ATOM     25  H   UNL     1      30.853  13.167  71.033  0.00  0.00    -0.082 HD
ATOM     26  C   UNL     1      30.412  14.142  72.888  0.00  0.00    -0.064 C 
ATOM     27  C   UNL     1      31.713  14.993  72.901  0.00  0.00    +0.066 C 
ENDBRANCH  19  20
ENDBRANCH  18  19
ENDBRANCH  14  15
ENDBRANCH  12  13
TORSDOF 6
ENDMDL
MODEL 3
REMARK VINA RESULT:     -10.5      1.367      1.742
REMARK  Name = C:\Users\Docking\Desktop\test protocol\1iep_ligandH.pdb
REMARK  8 active torsions:
REMARK  status: ('A' for Active; 'I' for Inactive)
REMARK    1  A    between atoms: _5  and  _11
REMARK    2  A    between atoms: _19  and  _21
REMARK    3  A    between atoms: _22  and  _66
REMARK    4  A    between atoms: _27  and  _30
REMARK    5  A    between atoms: _32  and  _33
REMARK    6  A    between atoms: _38  and  _43
REMARK    7  A    between atoms: _43  and  _46
REMARK    8  A    between atoms: _53  and  _55
REMARK                            x       y       z     vdW  Elec       q    Type
REMARK                         _______ _______ _______ _____ _____    ______ ____
ROOT
ATOM     10  C   UNL     1      43.207  11.442  77.782  0.00  0.00    +0.038 A 
ATOM     11  C   UNL     1      42.225  12.155  77.049  0.00  0.00    +0.047 A 
ATOM     12  C   UNL     1      40.873  11.639  76.901  0.00  0.00    +0.035 A 
ATOM     32  C   UNL     1      40.555  10.393  77.515  0.00  0.00    +0.024 A 
ATOM     33  C   UNL     1      41.541   9.654  78.264  0.00  0.00    +0.007 A 
ATOM     34  C   UNL     1      42.877  10.157  78.411  0.00  0.00    -0.029 A 
ATOM     35  C   UNL     1      43.895   9.319  79.219  0.00  0.00    +0.045 C 
ENDROOT
BRANCH  10   9
ATOM      4  C   UNL     1      46.418  14.320  79.890  0.00  0.00    +0.077 A 
ATOM      5  C   UNL     1      45.453  14.804  80.834  0.00  0.00    +0.048 A 
ATOM      6  C   UNL     1      44.139  14.292  80.739  0.00  0.00    +0.116 A 
ATOM      7  N   UNL     1      43.826  13.366  79.768  0.00  0.00    -0.223 NA
ATOM      8  C   UNL     1      44.780  12.921  78.872  0.00  0.00    +0.220 A 
ATOM      9  N   UNL     1      44.489  11.984  77.893  0.00  0.00    -0.283 N 
ATOM     36  H   UNL     1      45.220  11.688  77.246  0.00  0.00    +0.155 HD
ATOM     37  N   UNL     1      46.042  13.396  78.941  0.00  0.00    -0.214 NA
BRANCH   4   3
ATOM      1  C   UNL     1      50.275  14.525  80.512  0.00  0.00    +0.020 A 
ATOM      2  C   UNL     1      48.909  14.056  80.570  0.00  0.00    +0.013 A 
ATOM      3  C   UNL     1      47.848  14.763  79.864  0.00  0.00    +0.019 A 
ATOM     38  C   UNL     1      48.205  15.951  79.103  0.00  0.00    +0.120 A 
ATOM     39  N   UNL     1      49.528  16.380  79.067  0.00  0.00    -0.263 NA
ATOM     40  C   UNL     1      50.557  15.709  79.743  0.00  0.00    +0.111 A 
ENDBRANCH   4   3
ENDBRANCH  10   9
BRANCH  12  13
ATOM     13  N   UNL     1      39.837  12.315  76.161  0.00  0.00    -0.281 N 
ATOM     14  C   UNL     1      39.166  11.870  75.034  0.00  0.00    +0.248 C 
ATOM     30  O   UNL     1      39.507  10.908  74.362  0.00  0.00    -0.270 OA
ATOM     31  H   UNL     1      39.565  13.234  76.511  0.00  0.00    +0.155 HD
BRANCH  14  15
ATOM     15  C   UNL     1      37.948  12.608  74.579  0.00  0.00    +0.037 A 
ATOM     16  C   UNL     1      37.801  13.048  73.190  0.00  0.00    +0.013 A 
ATOM     17  C   UNL     1      36.624  13.774  72.782  0.00  0.00    +0.005 A 
ATOM     18  C   UNL     1      35.584  14.062  73.766  0.00  0.00    -0.033 A 
ATOM     28  C   UNL     1      35.753  13.609  75.136  0.00  0.00    +0.005 A 
ATOM     29  C   UNL     1      36.906  12.899  75.540  0.00  0.00    +0.013 A 
BRANCH  18  19
ATOM     19  C   UNL     1      34.304  14.849  73.424  0.00  0.00    +0.119 C 
BRANCH  19  20
ATOM     20  N   UNL     1      33.018  14.091  73.415  0.00  0.00    -0.302 NA
ATOM     21  C   UNL     1      33.124  12.787  72.619  0.00  0.00    +0.066 C 
ATOM     22  C   UNL     1      31.776  11.996  72.639  0.00  0.00    -0.064 C 
ATOM     23  N   UNL     1      30.660  12.881  72.081  0.00  0.00    +0.379 N 
ATOM     24  C   UNL     1      29.403  12.120  72.045  0.00  0.00    -0.096 C 
ATOM     25  H   UNL     1      30.929  13.141  71.031  0.00  0.00    -0.082 HD
ATOM     26  C   UNL     1      30.549  14.181  72.865  0.00  0.00    -0.064 C 
ATOM     27  C   UNL     1      31.903  14.945  72.864  0.00  0.00    +0.066 C 
ENDBRANCH  19  20
ENDBRANCH  18  19
ENDBRANCH  14  15
ENDBRANCH  12  13
TORSDOF 6
ENDMDL
MODEL 4
REMARK VINA RESULT:     -10.2      3.052     13.584
REMARK  Name = C:\Users\Docking\Desktop\test protocol\1iep_ligandH.pdb
REMARK  8 active torsions:
REMARK  status: ('A' for Active; 'I' for Inactive)
REMARK    1  A    between atoms: _5  and  _11
REMARK    2  A    between atoms: _19  and  _21
REMARK    3  A    between atoms: _22  and  _66
REMARK    4  A    between atoms: _27  and  _30
REMARK    5  A    between atoms: _32  and  _33
REMARK    6  A    between atoms: _38  and  _43
REMARK    7  A    between atoms: _43  and  _46
REMARK    8  A    between atoms: _53  and  _55
REMARK                            x       y       z     vdW  Elec       q    Type
REMARK                         _______ _______ _______ _____ _____    ______ ____
ROOT
ATOM     10  C   UNL     1      41.299  11.939  76.592  0.00  0.00    +0.038 A 
ATOM     11  C   UNL     1      42.203  13.023  76.734  0.00  0.00    +0.047 A 
ATOM     12  C   UNL     1      43.617  12.795  76.986  0.00  0.00    +0.035 A 
ATOM     32  C   UNL     1      44.078  11.450  77.085  0.00  0.00    +0.024 A 
ATOM     33  C   UNL     1      43.173  10.336  76.945  0.00  0.00    +0.007 A 
ATOM     34  C   UNL     1      41.776  10.555  76.699  0.00  0.00    -0.029 A 
ATOM     35  C   UNL     1      40.851   9.323  76.563  0.00  0.00    +0.045 C 
ENDROOT
BRANCH  10   9
ATOM      4  C   UNL     1      37.687  13.181  73.686  0.00  0.00    +0.077 A 
ATOM      5  C   UNL     1      38.563  13.318  72.558  0.00  0.00    +0.048 A 
ATOM      6  C   UNL     1      39.937  13.067  72.770  0.00  0.00    +0.116 A 
ATOM      7  N   UNL     1      40.390  12.706  74.020  0.00  0.00    -0.223 NA
ATOM      8  C   UNL     1      39.519  12.584  75.087  0.00  0.00    +0.220 A 
ATOM      9  N   UNL     1      39.951  12.215  76.351  0.00  0.00    -0.283 N 
ATOM     36  H   UNL     1      39.278  12.144  77.114  0.00  0.00    +0.155 HD
ATOM     37  N   UNL     1      38.202  12.820  74.911  0.00  0.00    -0.214 NA
BRANCH   4   3
ATOM      1  C   UNL     1      34.161  14.869  73.827  0.00  0.00    +0.020 A 
ATOM      2  C   UNL     1      35.593  14.701  73.905  0.00  0.00    +0.013 A 
ATOM      3  C   UNL     1      36.209  13.410  73.621  0.00  0.00    +0.019 A 
ATOM     38  C   UNL     1      35.339  12.301  73.258  0.00  0.00    +0.120 A 
ATOM     39  N   UNL     1      33.962  12.492  73.193  0.00  0.00    -0.263 NA
ATOM     40  C   UNL     1      33.359  13.729  73.465  0.00  0.00    +0.111 A 
ENDBRANCH   4   3
ENDBRANCH  10   9
BRANCH  12  13
ATOM     13  N   UNL     1      44.580  13.856  77.147  0.00  0.00    -0.281 N 
ATOM     14  C   UNL     1      45.217  14.259  78.309  0.00  0.00    +0.248 C 
ATOM     30  O   UNL     1      44.893  13.906  79.433  0.00  0.00    -0.270 OA
ATOM     31  H   UNL     1      44.822  14.372  76.301  0.00  0.00    +0.155 HD
BRANCH  14  15
ATOM     15  C   UNL     1      46.371  15.203  78.209  0.00  0.00    +0.037 A 
ATOM     16  C   UNL     1      46.657  15.926  76.967  0.00  0.00    +0.013 A 
ATOM     17  C   UNL     1      47.787  16.818  76.893  0.00  0.00    +0.005 A 
ATOM     18  C   UNL     1      48.640  16.993  78.067  0.00  0.00    -0.033 A 
ATOM     28  C   UNL     1      48.330  16.268  79.288  0.00  0.00    +0.005 A 
ATOM     29  C   UNL     1      47.224  15.392  79.364  0.00  0.00    +0.013 A 
BRANCH  18  19
ATOM     19  C   UNL     1      49.879  17.908  78.072  0.00  0.00    +0.119 C 
BRANCH  19  20
ATOM     20  N   UNL     1      49.900  19.035  77.092  0.00  0.00    -0.302 NA
ATOM     21  C   UNL     1      51.267  19.185  76.418  0.00  0.00    +0.066 C 
ATOM     22  C   UNL     1      51.265  20.355  75.381  0.00  0.00    -0.064 C 
ATOM     23  N   UNL     1      50.861  21.653  76.081  0.00  0.00    +0.379 N 
ATOM     24  C   UNL     1      50.914  22.765  75.121  0.00  0.00    -0.096 C 
ATOM     25  H   UNL     1      51.615  21.856  76.877  0.00  0.00    -0.082 HD
ATOM     26  C   UNL     1      49.504  21.512  76.757  0.00  0.00    -0.064 C 
ATOM     27  C   UNL     1      49.509  20.329  77.764  0.00  0.00    +0.066 C 
ENDBRANCH  19  20
ENDBRANCH  18  19
ENDBRANCH  14  15
ENDBRANCH  12  13
TORSDOF 6
ENDMDL
MODEL 5
REMARK VINA RESULT:     -10.1      1.654      2.264
REMARK  Name = C:\Users\Docking\Desktop\test protocol\1iep_ligandH.pdb
REMARK  8 active torsions:
REMARK  status: ('A' for Active; 'I' for Inactive)
REMARK    1  A    between atoms: _5  and  _11
REMARK    2  A    between atoms: _19  and  _21
REMARK    3  A    between atoms: _22  and  _66
REMARK    4  A    between atoms: _27  and  _30
REMARK    5  A    between atoms: _32  and  _33
REMARK    6  A    between atoms: _38  and  _43
REMARK    7  A    between atoms: _43  and  _46
REMARK    8  A    between atoms: _53  and  _55
REMARK                            x       y       z     vdW  Elec       q    Type
REMARK                         _______ _______ _______ _____ _____    ______ ____
ROOT
ATOM     10  C   UNL     1      42.327  11.044  78.494  0.00  0.00    +0.038 A 
ATOM     11  C   UNL     1      41.311  11.701  77.753  0.00  0.00    +0.047 A 
ATOM     12  C   UNL     1      40.372  10.951  76.934  0.00  0.00    +0.035 A 
ATOM     32  C   UNL     1      40.494   9.531  76.895  0.00  0.00    +0.024 A 
ATOM     33  C   UNL     1      41.521   8.847  77.642  0.00  0.00    +0.007 A 
ATOM     34  C   UNL     1      42.452   9.582  78.449  0.00  0.00    -0.029 A 
ATOM     35  C   UNL     1      43.536   8.797  79.223  0.00  0.00    +0.045 C 
ENDROOT
BRANCH  10   9
ATOM      4  C   UNL     1      46.187  13.856  78.975  0.00  0.00    +0.077 A 
ATOM      5  C   UNL     1      46.503  13.761  77.578  0.00  0.00    +0.048 A 
ATOM      6  C   UNL     1      45.651  12.973  76.772  0.00  0.00    +0.116 A 
ATOM      7  N   UNL     1      44.566  12.333  77.331  0.00  0.00    -0.223 NA
ATOM      8  C   UNL     1      44.291  12.444  78.682  0.00  0.00    +0.220 A 
ATOM      9  N   UNL     1      43.201  11.814  79.264  0.00  0.00    -0.283 N 
ATOM     36  H   UNL     1      43.037  11.915  80.265  0.00  0.00    +0.155 HD
ATOM     37  N   UNL     1      45.090  13.189  79.473  0.00  0.00    -0.214 NA
BRANCH   4   3
ATOM      1  C   UNL     1      49.067  15.081  81.321  0.00  0.00    +0.020 A 
ATOM      2  C   UNL     1      48.334  14.275  80.371  0.00  0.00    +0.013 A 
ATOM      3  C   UNL     1      46.990  14.654  79.955  0.00  0.00    +0.019 A 
ATOM     38  C   UNL     1      46.411  15.863  80.522  0.00  0.00    +0.120 A 
ATOM     39  N   UNL     1      47.140  16.618  81.435  0.00  0.00    -0.263 NA
ATOM     40  C   UNL     1      48.434  16.262  81.845  0.00  0.00    +0.111 A 
ENDBRANCH   4   3
ENDBRANCH  10   9
BRANCH  12  13
ATOM     13  N   UNL     1      39.326  11.564  76.154  0.00  0.00    -0.281 N 
ATOM     14  C   UNL     1      39.459  12.469  75.113  0.00  0.00    +0.248 C 
ATOM     30  O   UNL     1      40.495  13.054  74.835  0.00  0.00    -0.270 OA
ATOM     31  H   UNL     1      38.372  11.298  76.398  0.00  0.00    +0.155 HD
BRANCH  14  15
ATOM     15  C   UNL     1      38.265  12.778  74.269  0.00  0.00    +0.037 A 
ATOM     16  C   UNL     1      38.412  13.292  72.905  0.00  0.00    +0.013 A 
ATOM     17  C   UNL     1      37.244  13.599  72.118  0.00  0.00    +0.005 A 
ATOM     18  C   UNL     1      35.917  13.390  72.694  0.00  0.00    -0.033 A 
ATOM     28  C   UNL     1      35.801  12.874  74.047  0.00  0.00    +0.005 A 
ATOM     29  C   UNL     1      36.943  12.573  74.822  0.00  0.00    +0.013 A 
BRANCH  18  19
ATOM     19  C   UNL     1      34.616  13.710  71.934  0.00  0.00    +0.119 C 
BRANCH  19  20
ATOM     20  N   UNL     1      33.328  13.419  72.632  0.00  0.00    -0.302 NA
ATOM     21  C   UNL     1      32.674  12.134  72.118  0.00  0.00    +0.066 C 
ATOM     22  C   UNL     1      31.339  11.833  72.874  0.00  0.00    -0.064 C 
ATOM     23  N   UNL     1      30.390  13.023  72.721  0.00  0.00    +0.379 N 
ATOM     24  C   UNL     1      29.112  12.719  73.382  0.00  0.00    -0.096 C 
ATOM     25  H   UNL     1      30.185  13.154  71.633  0.00  0.00    -0.082 HD
ATOM     26  C   UNL     1      31.034  14.306  73.227  0.00  0.00    -0.064 C 
ATOM     27  C   UNL     1      32.374  14.580  72.490  0.00  0.00    +0.066 C 
ENDBRANCH  19  20
ENDBRANCH  18  19
ENDBRANCH  14  15
ENDBRANCH  12  13
TORSDOF 6
ENDMDL
