MODEL 1
REMARK VINA RESULT:     -10.6      0.000      0.000
REMARK  Name = C:\Users\Docking\Desktop\test protocol\1iep_ligandH.pdb
REMARK  8 active torsions:
REMARK  status: ('A' for Active; 'I' for Inactive)
REMARK    1  A    between atoms: _5  and  _11
REMARK    2  A    between atoms: _19  and  _21
REMARK    3  A    between atoms: _22  and  _66
REMARK    4  A    between atoms: _27  and  _30
REMARK    5  A    between atoms: _32  and  _33
REMARK    6  A    between atoms: _38  and  _43
REMARK    7  A    between atoms: _43  and  _46
REMARK    8  A    between atoms: _53  and  _55
REMARK                            x       y       z     vdW  Elec       q    Type
REMARK                         _______ _______ _______ _____ _____    ______ ____
ROOT
ATOM     10  C   UNL     1      68.803 128.212 112.943  0.00  0.00    +0.038 A 
ATOM     11  C   UNL     1      67.972 128.632 114.013  0.00  0.00    +0.047 A 
ATOM     12  C   UNL     1      68.374 129.714 114.897  0.00  0.00    +0.035 A 
ATOM     32  C   UNL     1      69.628 130.349 114.662  0.00  0.00    +0.024 A 
ATOM     33  C   UNL     1      70.486 129.934 113.580  0.00  0.00    +0.007 A 
ATOM     34  C   UNL     1      70.096 128.865 112.705  0.00  0.00    -0.029 A 
ATOM     35  C   UNL     1      71.058 128.458 111.566  0.00  0.00    +0.045 C 
ENDROOT
BRANCH  10   9
ATOM      4  C   UNL     1      66.922 123.844 112.295  0.00  0.00    +0.077 A 
ATOM      5  C   UNL     1      66.823 123.613 113.707  0.00  0.00    +0.048 A 
ATOM      6  C   UNL     1      67.273 124.640 114.566  0.00  0.00    +0.116 A 
ATOM      7  N   UNL     1      67.783 125.808 114.041  0.00  0.00    -0.223 NA
ATOM      8  C   UNL     1      67.866 125.998 112.674  0.00  0.00    +0.220 A 
ATOM      9  N   UNL     1      68.368 127.168 112.124  0.00  0.00    -0.283 N 
ATOM     36  H   UNL     1      68.419 127.267 111.111  0.00  0.00    +0.155 HD
ATOM     37  N   UNL     1      67.444 125.032 111.833  0.00  0.00    -0.214 NA
BRANCH   4   3
ATOM      1  C   UNL     1      64.911 121.093 110.374  0.00  0.00    +0.020 A 
ATOM      2  C   UNL     1      65.290 122.032 111.405  0.00  0.00    +0.013 A 
ATOM      3  C   UNL     1      66.484 122.856 111.259  0.00  0.00    +0.019 A 
ATOM     38  C   UNL     1      67.278 122.704 110.049  0.00  0.00    +0.120 A 
ATOM     39  N   UNL     1      66.889 121.790 109.075  0.00  0.00    -0.263 NA
ATOM     40  C   UNL     1      65.744 120.991 109.205  0.00  0.00    +0.111 A 
ENDBRANCH   4   3
ENDBRANCH  10   9
BRANCH  12  13
ATOM     13  N   UNL     1      67.575 130.179 116.005  0.00  0.00    -0.281 N 
ATOM     14  C   UNL     1      67.087 129.441 117.071  0.00  0.00    +0.248 C 
ATOM     30  O   UNL     1      67.083 128.220 117.122  0.00  0.00    -0.270 OA
ATOM     31  H   UNL     1      67.342 131.172 116.002  0.00  0.00    +0.155 HD
BRANCH  14  15
ATOM     15  C   UNL     1      66.505 130.164 118.243  0.00  0.00    +0.037 A 
ATOM     16  C   UNL     1      66.258 129.477 119.513  0.00  0.00    +0.013 A 
ATOM     17  C   UNL     1      65.680 130.193 120.622  0.00  0.00    +0.005 A 
ATOM     18  C   UNL     1      65.347 131.607 120.466  0.00  0.00    -0.033 A 
ATOM     28  C   UNL     1      65.608 132.265 119.197  0.00  0.00    +0.005 A 
ATOM     29  C   UNL     1      66.173 131.566 118.107  0.00  0.00    +0.013 A 
BRANCH  18  19
ATOM     19  C   UNL     1      64.708 132.445 121.589  0.00  0.00    +0.119 C 
BRANCH  19  20
ATOM     20  N   UNL     1      64.580 133.915 121.358  0.00  0.00    -0.302 NA
ATOM     21  C   UNL     1      65.779 134.690 121.912  0.00  0.00    +0.066 C 
ATOM     22  C   UNL     1      65.640 136.223 121.641  0.00  0.00    -0.064 C 
ATOM     23  N   UNL     1      64.335 136.731 122.258  0.00  0.00    +0.379 N 
ATOM     24  C   UNL     1      64.229 138.183 122.056  0.00  0.00    -0.096 C 
ATOM     25  H   UNL     1      64.386 136.545 123.356  0.00  0.00    -0.082 HD
ATOM     26  C   UNL     1      63.138 135.963 121.715  0.00  0.00    -0.064 C 
ATOM     27  C   UNL     1      63.300 134.438 121.963  0.00  0.00    +0.066 C 
ENDBRANCH  19  20
ENDBRANCH  18  19
ENDBRANCH  14  15
ENDBRANCH  12  13
TORSDOF 6
ENDMDL
MODEL 2
REMARK VINA RESULT:     -10.5      8.333     15.388
REMARK  Name = C:\Users\Docking\Desktop\test protocol\1iep_ligandH.pdb
REMARK  8 active torsions:
REMARK  status: ('A' for Active; 'I' for Inactive)
REMARK    1  A    between atoms: _5  and  _11
REMARK    2  A    between atoms: _19  and  _21
REMARK    3  A    between atoms: _22  and  _66
REMARK    4  A    between atoms: _27  and  _30
REMARK    5  A    between atoms: _32  and  _33
REMARK    6  A    between atoms: _38  and  _43
REMARK    7  A    between atoms: _43  and  _46
REMARK    8  A    between atoms: _53  and  _55
REMARK                            x       y       z     vdW  Elec       q    Type
REMARK                         _______ _______ _______ _____ _____    ______ ____
ROOT
ATOM     10  C   UNL     1      72.007 138.204 125.651  0.00  0.00    +0.038 A 
ATOM     11  C   UNL     1      71.111 137.432 124.868  0.00  0.00    +0.047 A 
ATOM     12  C   UNL     1      69.704 137.325 125.220  0.00  0.00    +0.035 A 
ATOM     32  C   UNL     1      69.242 138.019 126.377  0.00  0.00    +0.024 A 
ATOM     33  C   UNL     1      70.139 138.807 127.184  0.00  0.00    +0.007 A 
ATOM     34  C   UNL     1      71.529 138.915 126.843  0.00  0.00    -0.029 A 
ATOM     35  C   UNL     1      72.447 139.769 127.749  0.00  0.00    +0.045 C 
ENDROOT
BRANCH  10   9
ATOM      4  C   UNL     1      76.452 136.405 125.459  0.00  0.00    +0.077 A 
ATOM      5  C   UNL     1      76.078 135.243 126.213  0.00  0.00    +0.048 A 
ATOM      6  C   UNL     1      74.734 135.150 126.637  0.00  0.00    +0.116 A 
ATOM      7  N   UNL     1      73.839 136.150 126.325  0.00  0.00    -0.223 NA
ATOM      8  C   UNL     1      74.233 137.258 125.598  0.00  0.00    +0.220 A 
ATOM      9  N   UNL     1      73.348 138.272 125.266  0.00  0.00    -0.283 N 
ATOM     36  H   UNL     1      73.679 139.077 124.734  0.00  0.00    +0.155 HD
ATOM     37  N   UNL     1      75.512 137.371 125.182  0.00  0.00    -0.214 NA
BRANCH   4   3
ATOM      1  C   UNL     1      79.457 137.611 123.263  0.00  0.00    +0.020 A 
ATOM      2  C   UNL     1      78.102 137.407 123.724  0.00  0.00    +0.013 A 
ATOM      3  C   UNL     1      77.835 136.646 124.938  0.00  0.00    +0.019 A 
ATOM     38  C   UNL     1      78.969 136.101 125.669  0.00  0.00    +0.120 A 
ATOM     39  N   UNL     1      80.262 136.312 125.200  0.00  0.00    -0.263 NA
ATOM     40  C   UNL     1      80.532 137.042 124.033  0.00  0.00    +0.111 A 
ENDBRANCH   4   3
ENDBRANCH  10   9
BRANCH  12  13
ATOM     13  N   UNL     1      68.749 136.550 124.468  0.00  0.00    -0.281 N 
ATOM     14  C   UNL     1      68.027 136.938 123.351  0.00  0.00    +0.248 C 
ATOM     30  O   UNL     1      67.935 138.090 122.954  0.00  0.00    -0.270 OA
ATOM     31  H   UNL     1      68.585 135.599 124.799  0.00  0.00    +0.155 HD
BRANCH  14  15
ATOM     15  C   UNL     1      67.290 135.899 122.570  0.00  0.00    +0.037 A 
ATOM     16  C   UNL     1      66.414 136.266 121.455  0.00  0.00    +0.013 A 
ATOM     17  C   UNL     1      65.701 135.245 120.729  0.00  0.00    +0.005 A 
ATOM     18  C   UNL     1      65.863 133.845 121.116  0.00  0.00    -0.033 A 
ATOM     28  C   UNL     1      66.743 133.509 122.223  0.00  0.00    +0.005 A 
ATOM     29  C   UNL     1      67.442 134.507 122.938  0.00  0.00    +0.013 A 
BRANCH  18  19
ATOM     19  C   UNL     1      65.125 132.692 120.412  0.00  0.00    +0.119 C 
BRANCH  19  20
ATOM     20  N   UNL     1      65.960 131.680 119.699  0.00  0.00    -0.302 NA
ATOM     21  C   UNL     1      66.126 132.014 118.214  0.00  0.00    +0.066 C 
ATOM     22  C   UNL     1      67.021 130.957 117.489  0.00  0.00    -0.064 C 
ATOM     23  N   UNL     1      66.409 129.567 117.665  0.00  0.00    +0.379 N 
ATOM     24  C   UNL     1      67.217 128.579 116.936  0.00  0.00    -0.096 C 
ATOM     25  H   UNL     1      65.395 129.583 117.203  0.00  0.00    -0.082 HD
ATOM     26  C   UNL     1      66.238 129.227 119.139  0.00  0.00    -0.064 C 
ATOM     27  C   UNL     1      65.371 130.299 119.857  0.00  0.00    +0.066 C 
ENDBRANCH  19  20
ENDBRANCH  18  19
ENDBRANCH  14  15
ENDBRANCH  12  13
TORSDOF 6
ENDMDL
MODEL 3
REMARK VINA RESULT:     -10.4     13.372     19.181
REMARK  Name = C:\Users\Docking\Desktop\test protocol\1iep_ligandH.pdb
REMARK  8 active torsions:
REMARK  status: ('A' for Active; 'I' for Inactive)
REMARK    1  A    between atoms: _5  and  _11
REMARK    2  A    between atoms: _19  and  _21
REMARK    3  A    between atoms: _22  and  _66
REMARK    4  A    between atoms: _27  and  _30
REMARK    5  A    between atoms: _32  and  _33
REMARK    6  A    between atoms: _38  and  _43
REMARK    7  A    between atoms: _43  and  _46
REMARK    8  A    between atoms: _53  and  _55
REMARK                            x       y       z     vdW  Elec       q    Type
REMARK                         _______ _______ _______ _____ _____    ______ ____
ROOT
ATOM     10  C   UNL     1      78.313 137.101 124.869  0.00  0.00    +0.038 A 
ATOM     11  C   UNL     1      79.048 136.426 123.861  0.00  0.00    +0.047 A 
ATOM     12  C   UNL     1      80.445 136.073 124.056  0.00  0.00    +0.035 A 
ATOM     32  C   UNL     1      81.064 136.422 125.292  0.00  0.00    +0.024 A 
ATOM     33  C   UNL     1      80.333 137.109 126.328  0.00  0.00    +0.007 A 
ATOM     34  C   UNL     1      78.954 137.462 126.140  0.00  0.00    -0.029 A 
ATOM     35  C   UNL     1      78.221 138.204 127.281  0.00  0.00    +0.045 C 
ENDROOT
BRANCH  10   9
ATOM      4  C   UNL     1      73.632 136.046 124.984  0.00  0.00    +0.077 A 
ATOM      5  C   UNL     1      73.878 134.749 125.546  0.00  0.00    +0.048 A 
ATOM      6  C   UNL     1      75.224 134.389 125.784  0.00  0.00    +0.116 A 
ATOM      7  N   UNL     1      76.240 135.269 125.479  0.00  0.00    -0.223 NA
ATOM      8  C   UNL     1      75.968 136.511 124.936  0.00  0.00    +0.220 A 
ATOM      9  N   UNL     1      76.974 137.415 124.629  0.00  0.00    -0.283 N 
ATOM     36  H   UNL     1      76.733 138.318 124.222  0.00  0.00    +0.155 HD
ATOM     37  N   UNL     1      74.692 136.878 124.698  0.00  0.00    -0.214 NA
BRANCH   4   3
ATOM      1  C   UNL     1      69.791 136.274 124.285  0.00  0.00    +0.020 A 
ATOM      2  C   UNL     1      71.089 135.716 124.582  0.00  0.00    +0.013 A 
ATOM      3  C   UNL     1      72.265 136.572 124.678  0.00  0.00    +0.019 A 
ATOM     38  C   UNL     1      72.090 138.001 124.467  0.00  0.00    +0.120 A 
ATOM     39  N   UNL     1      70.827 138.511 124.181  0.00  0.00    -0.263 NA
ATOM     40  C   UNL     1      69.689 137.696 124.084  0.00  0.00    +0.111 A 
ENDBRANCH   4   3
ENDBRANCH  10   9
BRANCH  12  13
ATOM     13  N   UNL     1      81.244 135.395 123.065  0.00  0.00    -0.281 N 
ATOM     14  C   UNL     1      82.118 135.954 122.148  0.00  0.00    +0.248 C 
ATOM     30  O   UNL     1      82.186 137.148 121.896  0.00  0.00    -0.270 OA
ATOM     31  H   UNL     1      81.153 134.379 123.037  0.00  0.00    +0.155 HD
BRANCH  14  15
ATOM     15  C   UNL     1      83.041 135.055 121.389  0.00  0.00    +0.037 A 
ATOM     16  C   UNL     1      84.171 135.594 120.629  0.00  0.00    +0.013 A 
ATOM     17  C   UNL     1      85.036 134.706 119.892  0.00  0.00    +0.005 A 
ATOM     18  C   UNL     1      84.773 133.270 119.914  0.00  0.00    -0.033 A 
ATOM     28  C   UNL     1      83.648 132.762 120.681  0.00  0.00    +0.005 A 
ATOM     29  C   UNL     1      82.797 133.629 121.403  0.00  0.00    +0.013 A 
BRANCH  18  19
ATOM     19  C   UNL     1      85.631 132.251 119.140  0.00  0.00    +0.119 C 
BRANCH  19  20
ATOM     20  N   UNL     1      85.159 131.852 117.781  0.00  0.00    -0.302 NA
ATOM     21  C   UNL     1      84.597 133.041 116.996  0.00  0.00    +0.066 C 
ATOM     22  C   UNL     1      84.128 132.609 115.568  0.00  0.00    -0.064 C 
ATOM     23  N   UNL     1      83.083 131.499 115.691  0.00  0.00    +0.379 N 
ATOM     24  C   UNL     1      82.598 131.132 114.353  0.00  0.00    -0.096 C 
ATOM     25  H   UNL     1      82.219 131.911 116.263  0.00  0.00    -0.082 HD
ATOM     26  C   UNL     1      83.632 130.314 116.473  0.00  0.00    -0.064 C 
ATOM     27  C   UNL     1      84.122 130.759 117.879  0.00  0.00    +0.066 C 
ENDBRANCH  19  20
ENDBRANCH  18  19
ENDBRANCH  14  15
ENDBRANCH  12  13
TORSDOF 6
ENDMDL
MODEL 4
REMARK VINA RESULT:     -10.2      3.427      6.515
REMARK  Name = C:\Users\Docking\Desktop\test protocol\1iep_ligandH.pdb
REMARK  8 active torsions:
REMARK  status: ('A' for Active; 'I' for Inactive)
REMARK    1  A    between atoms: _5  and  _11
REMARK    2  A    between atoms: _19  and  _21
REMARK    3  A    between atoms: _22  and  _66
REMARK    4  A    between atoms: _27  and  _30
REMARK    5  A    between atoms: _32  and  _33
REMARK    6  A    between atoms: _38  and  _43
REMARK    7  A    between atoms: _43  and  _46
REMARK    8  A    between atoms: _53  and  _55
REMARK                            x       y       z     vdW  Elec       q    Type
REMARK                         _______ _______ _______ _____ _____    ______ ____
ROOT
ATOM     10  C   UNL     1      67.469 122.425 110.873  0.00  0.00    +0.038 A 
ATOM     11  C   UNL     1      67.783 123.554 111.672  0.00  0.00    +0.047 A 
ATOM     12  C   UNL     1      66.858 124.041 112.683  0.00  0.00    +0.035 A 
ATOM     32  C   UNL     1      65.622 123.352 112.856  0.00  0.00    +0.024 A 
ATOM     33  C   UNL     1      65.287 122.204 112.052  0.00  0.00    +0.007 A 
ATOM     34  C   UNL     1      66.194 121.720 111.051  0.00  0.00    -0.029 A 
ATOM     35  C   UNL     1      65.779 120.488 110.214  0.00  0.00    +0.045 C 
ENDROOT
BRANCH  10   9
ATOM      4  C   UNL     1      69.900 123.023 106.778  0.00  0.00    +0.077 A 
ATOM      5  C   UNL     1      69.253 124.274 106.507  0.00  0.00    +0.048 A 
ATOM      6  C   UNL     1      68.295 124.725 107.443  0.00  0.00    +0.116 A 
ATOM      7  N   UNL     1      68.014 123.973 108.563  0.00  0.00    -0.223 NA
ATOM      8  C   UNL     1      68.656 122.770 108.793  0.00  0.00    +0.220 A 
ATOM      9  N   UNL     1      68.395 122.001 109.917  0.00  0.00    -0.283 N 
ATOM     36  H   UNL     1      68.884 121.115 110.047  0.00  0.00    +0.155 HD
ATOM     37  N   UNL     1      69.573 122.316 107.914  0.00  0.00    -0.214 NA
BRANCH   4   3
ATOM      1  C   UNL     1      71.656 121.227 103.779  0.00  0.00    +0.020 A 
ATOM      2  C   UNL     1      70.617 121.800 104.603  0.00  0.00    +0.013 A 
ATOM      3  C   UNL     1      70.937 122.415 105.885  0.00  0.00    +0.019 A 
ATOM     38  C   UNL     1      72.330 122.435 106.307  0.00  0.00    +0.120 A 
ATOM     39  N   UNL     1      73.309 121.875 105.493  0.00  0.00    -0.263 NA
ATOM     40  C   UNL     1      73.013 121.279 104.258  0.00  0.00    +0.111 A 
ENDBRANCH   4   3
ENDBRANCH  10   9
BRANCH  12  13
ATOM     13  N   UNL     1      67.119 125.187 113.518  0.00  0.00    -0.281 N 
ATOM     14  C   UNL     1      67.289 126.505 113.127  0.00  0.00    +0.248 C 
ATOM     30  O   UNL     1      67.455 126.867 111.972  0.00  0.00    -0.270 OA
ATOM     31  H   UNL     1      67.187 125.005 114.520  0.00  0.00    +0.155 HD
BRANCH  14  15
ATOM     15  C   UNL     1      67.289 127.574 114.172  0.00  0.00    +0.037 A 
ATOM     16  C   UNL     1      67.037 127.260 115.580  0.00  0.00    +0.013 A 
ATOM     17  C   UNL     1      67.025 128.313 116.565  0.00  0.00    +0.005 A 
ATOM     18  C   UNL     1      67.268 129.690 116.144  0.00  0.00    -0.033 A 
ATOM     28  C   UNL     1      67.521 129.973 114.741  0.00  0.00    +0.005 A 
ATOM     29  C   UNL     1      67.532 128.944 113.772  0.00  0.00    +0.013 A 
BRANCH  18  19
ATOM     19  C   UNL     1      67.254 130.879 117.123  0.00  0.00    +0.119 C 
BRANCH  19  20
ATOM     20  N   UNL     1      66.268 130.831 118.243  0.00  0.00    -0.302 NA
ATOM     21  C   UNL     1      66.025 132.213 118.856  0.00  0.00    +0.066 C 
ATOM     22  C   UNL     1      64.974 132.147 120.011  0.00  0.00    -0.064 C 
ATOM     23  N   UNL     1      65.453 131.159 121.076  0.00  0.00    +0.379 N 
ATOM     24  C   UNL     1      64.495 131.138 122.192  0.00  0.00    -0.096 C 
ATOM     25  H   UNL     1      66.425 131.534 121.472  0.00  0.00    -0.082 HD
ATOM     26  C   UNL     1      65.699 129.783 120.476  0.00  0.00    -0.064 C 
ATOM     27  C   UNL     1      66.723 129.864 119.309  0.00  0.00    +0.066 C 
ENDBRANCH  19  20
ENDBRANCH  18  19
ENDBRANCH  14  15
ENDBRANCH  12  13
TORSDOF 6
ENDMDL
MODEL 5
REMARK VINA RESULT:     -10.0     14.794     20.085
REMARK  Name = C:\Users\Docking\Desktop\test protocol\1iep_ligandH.pdb
REMARK  8 active torsions:
REMARK  status: ('A' for Active; 'I' for Inactive)
REMARK    1  A    between atoms: _5  and  _11
REMARK    2  A    between atoms: _19  and  _21
REMARK    3  A    between atoms: _22  and  _66
REMARK    4  A    between atoms: _27  and  _30
REMARK    5  A    between atoms: _32  and  _33
REMARK    6  A    between atoms: _38  and  _43
REMARK    7  A    between atoms: _43  and  _46
REMARK    8  A    between atoms: _53  and  _55
REMARK                            x       y       z     vdW  Elec       q    Type
REMARK                         _______ _______ _______ _____ _____    ______ ____
ROOT
ATOM     10  C   UNL     1      78.924 137.244 125.080  0.00  0.00    +0.038 A 
ATOM     11  C   UNL     1      79.217 136.414 123.968  0.00  0.00    +0.047 A 
ATOM     12  C   UNL     1      80.494 135.726 123.859  0.00  0.00    +0.035 A 
ATOM     32  C   UNL     1      81.449 135.904 124.902  0.00  0.00    +0.024 A 
ATOM     33  C   UNL     1      81.168 136.746 126.039  0.00  0.00    +0.007 A 
ATOM     34  C   UNL     1      79.911 137.429 126.150  0.00  0.00    -0.029 A 
ATOM     35  C   UNL     1      79.666 138.323 127.388  0.00  0.00    +0.045 C 
ENDROOT
BRANCH  10   9
ATOM      4  C   UNL     1      74.244 137.309 126.143  0.00  0.00    +0.077 A 
ATOM      5  C   UNL     1      74.270 135.951 126.606  0.00  0.00    +0.048 A 
ATOM      6  C   UNL     1      75.506 135.269 126.547  0.00  0.00    +0.116 A 
ATOM      7  N   UNL     1      76.626 135.907 126.060  0.00  0.00    -0.223 NA
ATOM      8  C   UNL     1      76.566 137.216 125.620  0.00  0.00    +0.220 A 
ATOM      9  N   UNL     1      77.682 137.880 125.133  0.00  0.00    -0.283 N 
ATOM     36  H   UNL     1      77.594 138.844 124.811  0.00  0.00    +0.155 HD
ATOM     37  N   UNL     1      75.397 137.889 125.664  0.00  0.00    -0.214 NA
BRANCH   4   3
ATOM      1  C   UNL     1      70.661 138.696 125.407  0.00  0.00    +0.020 A 
ATOM      2  C   UNL     1      71.823 137.838 125.370  0.00  0.00    +0.013 A 
ATOM      3  C   UNL     1      73.014 138.162 126.145  0.00  0.00    +0.019 A 
ATOM     38  C   UNL     1      72.996 139.372 126.954  0.00  0.00    +0.120 A 
ATOM     39  N   UNL     1      71.864 140.180 126.969  0.00  0.00    -0.263 NA
ATOM     40  C   UNL     1      70.713 139.878 126.226  0.00  0.00    +0.111 A 
ENDBRANCH   4   3
ENDBRANCH  10   9
BRANCH  12  13
ATOM     13  N   UNL     1      80.852 134.876 122.750  0.00  0.00    -0.281 N 
ATOM     14  C   UNL     1      82.002 134.920 121.980  0.00  0.00    +0.248 C 
ATOM     30  O   UNL     1      82.808 135.839 121.992  0.00  0.00    -0.270 OA
ATOM     31  H   UNL     1      80.174 134.155 122.502  0.00  0.00    +0.155 HD
BRANCH  14  15
ATOM     15  C   UNL     1      82.293 133.786 121.051  0.00  0.00    +0.037 A 
ATOM     16  C   UNL     1      83.622 133.173 120.993  0.00  0.00    +0.013 A 
ATOM     17  C   UNL     1      83.881 132.091 120.075  0.00  0.00    +0.005 A 
ATOM     18  C   UNL     1      82.805 131.615 119.209  0.00  0.00    -0.033 A 
ATOM     28  C   UNL     1      81.494 132.238 119.291  0.00  0.00    +0.005 A 
ATOM     29  C   UNL     1      81.238 133.299 120.188  0.00  0.00    +0.013 A 
BRANCH  18  19
ATOM     19  C   UNL     1      82.996 130.480 118.185  0.00  0.00    +0.119 C 
BRANCH  19  20
ATOM     20  N   UNL     1      84.374 130.267 117.650  0.00  0.00    -0.302 NA
ATOM     21  C   UNL     1      84.853 131.452 116.807  0.00  0.00    +0.066 C 
ATOM     22  C   UNL     1      86.304 131.223 116.274  0.00  0.00    -0.064 C 
ATOM     23  N   UNL     1      86.347 129.927 115.461  0.00  0.00    +0.379 N 
ATOM     24  C   UNL     1      87.697 129.738 114.910  0.00  0.00    -0.096 C 
ATOM     25  H   UNL     1      85.644 130.043 114.603  0.00  0.00    -0.082 HD
ATOM     26  C   UNL     1      85.870 128.744 116.291  0.00  0.00    -0.064 C 
ATOM     27  C   UNL     1      84.438 128.995 116.840  0.00  0.00    +0.066 C 
ENDBRANCH  19  20
ENDBRANCH  18  19
ENDBRANCH  14  15
ENDBRANCH  12  13
TORSDOF 6
ENDMDL
