MODEL 1
REMARK VINA RESULT:     -10.4      0.000      0.000
REMARK  Name = C:\Users\Docking\Desktop\test protocol\1iep_ligandH.pdb
REMARK  8 active torsions:
REMARK  status: ('A' for Active; 'I' for Inactive)
REMARK    1  A    between atoms: _5  and  _11
REMARK    2  A    between atoms: _19  and  _21
REMARK    3  A    between atoms: _22  and  _66
REMARK    4  A    between atoms: _27  and  _30
REMARK    5  A    between atoms: _32  and  _33
REMARK    6  A    between atoms: _38  and  _43
REMARK    7  A    between atoms: _43  and  _46
REMARK    8  A    between atoms: _53  and  _55
REMARK                            x       y       z     vdW  Elec       q    Type
REMARK                         _______ _______ _______ _____ _____    ______ ____
ROOT
ATOM     10  C   UNL     1      68.524 128.210 113.073  0.00  0.00    +0.038 A 
ATOM     11  C   UNL     1      67.716 128.652 114.152  0.00  0.00    +0.047 A 
ATOM     12  C   UNL     1      68.172 129.698 115.054  0.00  0.00    +0.035 A 
ATOM     32  C   UNL     1      69.456 130.274 114.826  0.00  0.00    +0.024 A 
ATOM     33  C   UNL     1      70.291 129.836 113.736  0.00  0.00    +0.007 A 
ATOM     34  C   UNL     1      69.848 128.802 112.844  0.00  0.00    -0.029 A 
ATOM     35  C   UNL     1      70.787 128.368 111.695  0.00  0.00    +0.045 C 
ENDROOT
BRANCH  10   9
ATOM      4  C   UNL     1      66.656 123.849 112.347  0.00  0.00    +0.077 A 
ATOM      5  C   UNL     1      66.677 123.541 113.748  0.00  0.00    +0.048 A 
ATOM      6  C   UNL     1      67.184 124.530 114.622  0.00  0.00    +0.116 A 
ATOM      7  N   UNL     1      67.632 125.732 114.120  0.00  0.00    -0.223 NA
ATOM      8  C   UNL     1      67.599 125.996 112.763  0.00  0.00    +0.220 A 
ATOM      9  N   UNL     1      68.037 127.202 112.238  0.00  0.00    -0.283 N 
ATOM     36  H   UNL     1      68.003 127.355 111.230  0.00  0.00    +0.155 HD
ATOM     37  N   UNL     1      67.121 125.068 111.908  0.00  0.00    -0.214 NA
BRANCH   4   3
ATOM      1  C   UNL     1      64.375 121.409 110.310  0.00  0.00    +0.020 A 
ATOM      2  C   UNL     1      64.818 122.311 111.348  0.00  0.00    +0.013 A 
ATOM      3  C   UNL     1      66.147 122.908 111.299  0.00  0.00    +0.019 A 
ATOM     38  C   UNL     1      67.009 122.570 110.177  0.00  0.00    +0.120 A 
ATOM     39  N   UNL     1      66.556 121.697 109.193  0.00  0.00    -0.263 NA
ATOM     40  C   UNL     1      65.280 121.115 109.230  0.00  0.00    +0.111 A 
ENDBRANCH   4   3
ENDBRANCH  10   9
BRANCH  12  13
ATOM     13  N   UNL     1      67.399 130.182 116.171  0.00  0.00    -0.281 N 
ATOM     14  C   UNL     1      67.031 129.493 117.314  0.00  0.00    +0.248 C 
ATOM     30  O   UNL     1      67.131 128.283 117.454  0.00  0.00    -0.270 OA
ATOM     31  H   UNL     1      67.085 131.151 116.111  0.00  0.00    +0.155 HD
BRANCH  14  15
ATOM     15  C   UNL     1      66.456 130.256 118.464  0.00  0.00    +0.037 A 
ATOM     16  C   UNL     1      66.155 129.598 119.738  0.00  0.00    +0.013 A 
ATOM     17  C   UNL     1      65.585 130.354 120.825  0.00  0.00    +0.005 A 
ATOM     18  C   UNL     1      65.313 131.777 120.642  0.00  0.00    -0.033 A 
ATOM     28  C   UNL     1      65.627 132.406 119.370  0.00  0.00    +0.005 A 
ATOM     29  C   UNL     1      66.185 131.668 118.302  0.00  0.00    +0.013 A 
BRANCH  18  19
ATOM     19  C   UNL     1      64.687 132.657 121.740  0.00  0.00    +0.119 C 
BRANCH  19  20
ATOM     20  N   UNL     1      64.614 134.126 121.482  0.00  0.00    -0.302 NA
ATOM     21  C   UNL     1      65.798 134.877 122.098  0.00  0.00    +0.066 C 
ATOM     22  C   UNL     1      65.719 136.409 121.798  0.00  0.00    -0.064 C 
ATOM     23  N   UNL     1      64.393 136.961 122.326  0.00  0.00    +0.379 N 
ATOM     24  C   UNL     1      64.340 138.412 122.098  0.00  0.00    -0.096 C 
ATOM     25  H   UNL     1      64.371 136.790 123.428  0.00  0.00    -0.082 HD
ATOM     26  C   UNL     1      63.211 136.218 121.721  0.00  0.00    -0.064 C 
ATOM     27  C   UNL     1      63.315 134.692 121.999  0.00  0.00    +0.066 C 
ENDBRANCH  19  20
ENDBRANCH  18  19
ENDBRANCH  14  15
ENDBRANCH  12  13
TORSDOF 6
ENDMDL
MODEL 2
REMARK VINA RESULT:     -10.3      8.323     15.383
REMARK  Name = C:\Users\Docking\Desktop\test protocol\1iep_ligandH.pdb
REMARK  8 active torsions:
REMARK  status: ('A' for Active; 'I' for Inactive)
REMARK    1  A    between atoms: _5  and  _11
REMARK    2  A    between atoms: _19  and  _21
REMARK    3  A    between atoms: _22  and  _66
REMARK    4  A    between atoms: _27  and  _30
REMARK    5  A    between atoms: _32  and  _33
REMARK    6  A    between atoms: _38  and  _43
REMARK    7  A    between atoms: _43  and  _46
REMARK    8  A    between atoms: _53  and  _55
REMARK                            x       y       z     vdW  Elec       q    Type
REMARK                         _______ _______ _______ _____ _____    ______ ____
ROOT
ATOM     10  C   UNL     1      72.174 138.060 125.693  0.00  0.00    +0.038 A 
ATOM     11  C   UNL     1      71.274 137.307 124.896  0.00  0.00    +0.047 A 
ATOM     12  C   UNL     1      69.858 137.241 125.219  0.00  0.00    +0.035 A 
ATOM     32  C   UNL     1      69.391 137.956 126.361  0.00  0.00    +0.024 A 
ATOM     33  C   UNL     1      70.292 138.725 127.183  0.00  0.00    +0.007 A 
ATOM     34  C   UNL     1      71.691 138.792 126.870  0.00  0.00    -0.029 A 
ATOM     35  C   UNL     1      72.612 139.627 127.790  0.00  0.00    +0.045 C 
ENDROOT
BRANCH  10   9
ATOM      4  C   UNL     1      76.551 136.097 125.528  0.00  0.00    +0.077 A 
ATOM      5  C   UNL     1      76.118 134.927 126.235  0.00  0.00    +0.048 A 
ATOM      6  C   UNL     1      74.762 134.872 126.630  0.00  0.00    +0.116 A 
ATOM      7  N   UNL     1      73.913 135.916 126.334  0.00  0.00    -0.223 NA
ATOM      8  C   UNL     1      74.363 137.031 125.652  0.00  0.00    +0.220 A 
ATOM      9  N   UNL     1      73.524 138.089 125.337  0.00  0.00    -0.283 N 
ATOM     36  H   UNL     1      73.897 138.897 124.839  0.00  0.00    +0.155 HD
ATOM     37  N   UNL     1      75.654 137.108 125.266  0.00  0.00    -0.214 NA
BRANCH   4   3
ATOM      1  C   UNL     1      79.635 136.951 123.278  0.00  0.00    +0.020 A 
ATOM      2  C   UNL     1      78.264 136.770 123.698  0.00  0.00    +0.013 A 
ATOM      3  C   UNL     1      77.953 136.301 125.042  0.00  0.00    +0.019 A 
ATOM     38  C   UNL     1      79.060 136.023 125.945  0.00  0.00    +0.120 A 
ATOM     39  N   UNL     1      80.369 136.205 125.512  0.00  0.00    -0.263 NA
ATOM     40  C   UNL     1      80.681 136.654 124.220  0.00  0.00    +0.111 A 
ENDBRANCH   4   3
ENDBRANCH  10   9
BRANCH  12  13
ATOM     13  N   UNL     1      68.898 136.487 124.451  0.00  0.00    -0.281 N 
ATOM     14  C   UNL     1      68.210 136.888 123.318  0.00  0.00    +0.248 C 
ATOM     30  O   UNL     1      68.157 138.040 122.913  0.00  0.00    -0.270 OA
ATOM     31  H   UNL     1      68.702 135.543 124.784  0.00  0.00    +0.155 HD
BRANCH  14  15
ATOM     15  C   UNL     1      67.462 135.864 122.527  0.00  0.00    +0.037 A 
ATOM     16  C   UNL     1      66.750 136.224 121.299  0.00  0.00    +0.013 A 
ATOM     17  C   UNL     1      66.021 135.220 120.564  0.00  0.00    +0.005 A 
ATOM     18  C   UNL     1      66.003 133.844 121.057  0.00  0.00    -0.033 A 
ATOM     28  C   UNL     1      66.722 133.514 122.276  0.00  0.00    +0.005 A 
ATOM     29  C   UNL     1      67.436 134.496 122.999  0.00  0.00    +0.013 A 
BRANCH  18  19
ATOM     19  C   UNL     1      65.234 132.713 120.350  0.00  0.00    +0.119 C 
BRANCH  19  20
ATOM     20  N   UNL     1      66.043 131.663 119.661  0.00  0.00    -0.302 NA
ATOM     21  C   UNL     1      66.221 131.960 118.170  0.00  0.00    +0.066 C 
ATOM     22  C   UNL     1      67.089 130.864 117.470  0.00  0.00    -0.064 C 
ATOM     23  N   UNL     1      66.438 129.495 117.676  0.00  0.00    +0.379 N 
ATOM     24  C   UNL     1      67.221 128.469 116.970  0.00  0.00    -0.096 C 
ATOM     25  H   UNL     1      65.426 129.528 117.210  0.00  0.00    -0.082 HD
ATOM     26  C   UNL     1      66.256 129.192 119.156  0.00  0.00    -0.064 C 
ATOM     27  C   UNL     1      65.417 130.303 119.848  0.00  0.00    +0.066 C 
ENDBRANCH  19  20
ENDBRANCH  18  19
ENDBRANCH  14  15
ENDBRANCH  12  13
TORSDOF 6
ENDMDL
MODEL 3
REMARK VINA RESULT:     -10.3     13.389     19.224
REMARK  Name = C:\Users\Docking\Desktop\test protocol\1iep_ligandH.pdb
REMARK  8 active torsions:
REMARK  status: ('A' for Active; 'I' for Inactive)
REMARK    1  A    between atoms: _5  and  _11
REMARK    2  A    between atoms: _19  and  _21
REMARK    3  A    between atoms: _22  and  _66
REMARK    4  A    between atoms: _27  and  _30
REMARK    5  A    between atoms: _32  and  _33
REMARK    6  A    between atoms: _38  and  _43
REMARK    7  A    between atoms: _43  and  _46
REMARK    8  A    between atoms: _53  and  _55
REMARK                            x       y       z     vdW  Elec       q    Type
REMARK                         _______ _______ _______ _____ _____    ______ ____
ROOT
ATOM     10  C   UNL     1      78.262 137.120 124.825  0.00  0.00    +0.038 A 
ATOM     11  C   UNL     1      78.993 136.413 123.836  0.00  0.00    +0.047 A 
ATOM     12  C   UNL     1      80.399 136.092 124.026  0.00  0.00    +0.035 A 
ATOM     32  C   UNL     1      81.029 136.503 125.237  0.00  0.00    +0.024 A 
ATOM     33  C   UNL     1      80.301 137.223 126.252  0.00  0.00    +0.007 A 
ATOM     34  C   UNL     1      78.914 137.545 126.070  0.00  0.00    -0.029 A 
ATOM     35  C   UNL     1      78.185 138.324 127.189  0.00  0.00    +0.045 C 
ENDROOT
BRANCH  10   9
ATOM      4  C   UNL     1      73.592 136.077 125.200  0.00  0.00    +0.077 A 
ATOM      5  C   UNL     1      73.861 134.853 125.899  0.00  0.00    +0.048 A 
ATOM      6  C   UNL     1      75.215 134.525 126.135  0.00  0.00    +0.116 A 
ATOM      7  N   UNL     1      76.217 135.366 125.702  0.00  0.00    -0.223 NA
ATOM      8  C   UNL     1      75.923 136.537 125.029  0.00  0.00    +0.220 A 
ATOM      9  N   UNL     1      76.914 137.402 124.590  0.00  0.00    -0.283 N 
ATOM     36  H   UNL     1      76.657 138.253 124.091  0.00  0.00    +0.155 HD
ATOM     37  N   UNL     1      74.638 136.872 124.789  0.00  0.00    -0.214 NA
BRANCH   4   3
ATOM      1  C   UNL     1      69.792 136.183 124.279  0.00  0.00    +0.020 A 
ATOM      2  C   UNL     1      71.105 135.662 124.584  0.00  0.00    +0.013 A 
ATOM      3  C   UNL     1      72.213 136.562 124.877  0.00  0.00    +0.019 A 
ATOM     38  C   UNL     1      71.957 137.995 124.854  0.00  0.00    +0.120 A 
ATOM     39  N   UNL     1      70.683 138.467 124.556  0.00  0.00    -0.263 NA
ATOM     40  C   UNL     1      69.609 137.610 124.270  0.00  0.00    +0.111 A 
ENDBRANCH   4   3
ENDBRANCH  10   9
BRANCH  12  13
ATOM     13  N   UNL     1      81.195 135.384 123.054  0.00  0.00    -0.281 N 
ATOM     14  C   UNL     1      82.101 135.912 122.148  0.00  0.00    +0.248 C 
ATOM     30  O   UNL     1      82.208 137.102 121.891  0.00  0.00    -0.270 OA
ATOM     31  H   UNL     1      81.076 134.372 123.030  0.00  0.00    +0.155 HD
BRANCH  14  15
ATOM     15  C   UNL     1      83.011 134.982 121.412  0.00  0.00    +0.037 A 
ATOM     16  C   UNL     1      84.114 135.489 120.592  0.00  0.00    +0.013 A 
ATOM     17  C   UNL     1      84.965 134.571 119.878  0.00  0.00    +0.005 A 
ATOM     18  C   UNL     1      84.718 133.135 119.983  0.00  0.00    -0.033 A 
ATOM     28  C   UNL     1      83.620 132.659 120.809  0.00  0.00    +0.005 A 
ATOM     29  C   UNL     1      82.782 133.556 121.509  0.00  0.00    +0.013 A 
BRANCH  18  19
ATOM     19  C   UNL     1      85.563 132.084 119.240  0.00  0.00    +0.119 C 
BRANCH  19  20
ATOM     20  N   UNL     1      85.109 131.681 117.876  0.00  0.00    -0.302 NA
ATOM     21  C   UNL     1      84.639 132.881 117.049  0.00  0.00    +0.066 C 
ATOM     22  C   UNL     1      84.188 132.445 115.617  0.00  0.00    -0.064 C 
ATOM     23  N   UNL     1      83.078 131.399 115.732  0.00  0.00    +0.379 N 
ATOM     24  C   UNL     1      82.612 131.029 114.387  0.00  0.00    -0.096 C 
ATOM     25  H   UNL     1      82.223 131.872 116.268  0.00  0.00    -0.082 HD
ATOM     26  C   UNL     1      83.535 130.203 116.555  0.00  0.00    -0.064 C 
ATOM     27  C   UNL     1      84.009 130.652 117.965  0.00  0.00    +0.066 C 
ENDBRANCH  19  20
ENDBRANCH  18  19
ENDBRANCH  14  15
ENDBRANCH  12  13
TORSDOF 6
ENDMDL
MODEL 4
REMARK VINA RESULT:     -10.2     14.695     19.942
REMARK  Name = C:\Users\Docking\Desktop\test protocol\1iep_ligandH.pdb
REMARK  8 active torsions:
REMARK  status: ('A' for Active; 'I' for Inactive)
REMARK    1  A    between atoms: _5  and  _11
REMARK    2  A    between atoms: _19  and  _21
REMARK    3  A    between atoms: _22  and  _66
REMARK    4  A    between atoms: _27  and  _30
REMARK    5  A    between atoms: _32  and  _33
REMARK    6  A    between atoms: _38  and  _43
REMARK    7  A    between atoms: _43  and  _46
REMARK    8  A    between atoms: _53  and  _55
REMARK                            x       y       z     vdW  Elec       q    Type
REMARK                         _______ _______ _______ _____ _____    ______ ____
ROOT
ATOM     10  C   UNL     1      78.787 137.176 124.686  0.00  0.00    +0.038 A 
ATOM     11  C   UNL     1      79.130 136.306 123.619  0.00  0.00    +0.047 A 
ATOM     12  C   UNL     1      80.459 135.722 123.522  0.00  0.00    +0.035 A 
ATOM     32  C   UNL     1      81.413 136.042 124.531  0.00  0.00    +0.024 A 
ATOM     33  C   UNL     1      81.081 136.925 125.622  0.00  0.00    +0.007 A 
ATOM     34  C   UNL     1      79.773 137.506 125.721  0.00  0.00    -0.029 A 
ATOM     35  C   UNL     1      79.475 138.451 126.909  0.00  0.00    +0.045 C 
ENDROOT
BRANCH  10   9
ATOM      4  C   UNL     1      74.172 136.988 125.991  0.00  0.00    +0.077 A 
ATOM      5  C   UNL     1      74.339 135.707 126.616  0.00  0.00    +0.048 A 
ATOM      6  C   UNL     1      75.627 135.128 126.573  0.00  0.00    +0.116 A 
ATOM      7  N   UNL     1      76.663 135.789 125.949  0.00  0.00    -0.223 NA
ATOM      8  C   UNL     1      76.467 137.022 125.355  0.00  0.00    +0.220 A 
ATOM      9  N   UNL     1      77.496 137.708 124.729  0.00  0.00    -0.283 N 
ATOM     36  H   UNL     1      77.309 138.612 124.296  0.00  0.00    +0.155 HD
ATOM     37  N   UNL     1      75.246 137.596 125.381  0.00  0.00    -0.214 NA
BRANCH   4   3
ATOM      1  C   UNL     1      71.048 139.097 127.036  0.00  0.00    +0.020 A 
ATOM      2  C   UNL     1      72.306 138.393 127.124  0.00  0.00    +0.013 A 
ATOM      3  C   UNL     1      72.872 137.730 125.956  0.00  0.00    +0.019 A 
ATOM     38  C   UNL     1      72.134 137.799 124.704  0.00  0.00    +0.120 A 
ATOM     39  N   UNL     1      70.923 138.483 124.650  0.00  0.00    -0.263 NA
ATOM     40  C   UNL     1      70.368 139.124 125.768  0.00  0.00    +0.111 A 
ENDBRANCH   4   3
ENDBRANCH  10   9
BRANCH  12  13
ATOM     13  N   UNL     1      80.867 134.840 122.457  0.00  0.00    -0.281 N 
ATOM     14  C   UNL     1      82.048 134.868 121.733  0.00  0.00    +0.248 C 
ATOM     30  O   UNL     1      82.845 135.794 121.748  0.00  0.00    -0.270 OA
ATOM     31  H   UNL     1      80.205 134.105 122.207  0.00  0.00    +0.155 HD
BRANCH  14  15
ATOM     15  C   UNL     1      82.385 133.706 120.855  0.00  0.00    +0.037 A 
ATOM     16  C   UNL     1      83.625 132.949 121.040  0.00  0.00    +0.013 A 
ATOM     17  C   UNL     1      83.934 131.843 120.168  0.00  0.00    +0.005 A 
ATOM     18  C   UNL     1      82.998 131.487 119.104  0.00  0.00    -0.033 A 
ATOM     28  C   UNL     1      81.772 132.252 118.947  0.00  0.00    +0.005 A 
ATOM     29  C   UNL     1      81.467 133.337 119.799  0.00  0.00    +0.013 A 
BRANCH  18  19
ATOM     19  C   UNL     1      83.256 130.336 118.114  0.00  0.00    +0.119 C 
BRANCH  19  20
ATOM     20  N   UNL     1      84.611 130.261 117.491  0.00  0.00    -0.302 NA
ATOM     21  C   UNL     1      84.921 131.494 116.638  0.00  0.00    +0.066 C 
ATOM     22  C   UNL     1      86.351 131.409 116.012  0.00  0.00    -0.064 C 
ATOM     23  N   UNL     1      86.464 130.132 115.178  0.00  0.00    +0.379 N 
ATOM     24  C   UNL     1      87.788 130.078 114.541  0.00  0.00    -0.096 C 
ATOM     25  H   UNL     1      85.701 130.188 114.368  0.00  0.00    -0.082 HD
ATOM     26  C   UNL     1      86.156 128.900 116.018  0.00  0.00    -0.064 C 
ATOM     27  C   UNL     1      84.744 129.008 116.659  0.00  0.00    +0.066 C 
ENDBRANCH  19  20
ENDBRANCH  18  19
ENDBRANCH  14  15
ENDBRANCH  12  13
TORSDOF 6
ENDMDL
MODEL 5
REMARK VINA RESULT:     -10.2      9.199     15.879
REMARK  Name = C:\Users\Docking\Desktop\test protocol\1iep_ligandH.pdb
REMARK  8 active torsions:
REMARK  status: ('A' for Active; 'I' for Inactive)
REMARK    1  A    between atoms: _5  and  _11
REMARK    2  A    between atoms: _19  and  _21
REMARK    3  A    between atoms: _22  and  _66
REMARK    4  A    between atoms: _27  and  _30
REMARK    5  A    between atoms: _32  and  _33
REMARK    6  A    between atoms: _38  and  _43
REMARK    7  A    between atoms: _43  and  _46
REMARK    8  A    between atoms: _53  and  _55
REMARK                            x       y       z     vdW  Elec       q    Type
REMARK                         _______ _______ _______ _____ _____    ______ ____
ROOT
ATOM     10  C   UNL     1      73.465 138.741 126.099  0.00  0.00    +0.038 A 
ATOM     11  C   UNL     1      72.458 138.043 125.384  0.00  0.00    +0.047 A 
ATOM     12  C   UNL     1      71.059 138.134 125.772  0.00  0.00    +0.035 A 
ATOM     32  C   UNL     1      70.720 138.948 126.892  0.00  0.00    +0.024 A 
ATOM     33  C   UNL     1      71.731 139.663 127.631  0.00  0.00    +0.007 A 
ATOM     34  C   UNL     1      73.113 139.575 127.255  0.00  0.00    -0.029 A 
ATOM     35  C   UNL     1      74.154 140.358 128.087  0.00  0.00    +0.045 C 
ENDROOT
BRANCH  10   9
ATOM      4  C   UNL     1      77.521 136.228 125.577  0.00  0.00    +0.077 A 
ATOM      5  C   UNL     1      76.956 135.072 126.211  0.00  0.00    +0.048 A 
ATOM      6  C   UNL     1      75.621 135.167 126.664  0.00  0.00    +0.116 A 
ATOM      7  N   UNL     1      74.913 136.337 126.490  0.00  0.00    -0.223 NA
ATOM      8  C   UNL     1      75.488 137.434 125.876  0.00  0.00    +0.220 A 
ATOM      9  N   UNL     1      74.792 138.617 125.683  0.00  0.00    -0.283 N 
ATOM     36  H   UNL     1      75.255 139.407 125.232  0.00  0.00    +0.155 HD
ATOM     37  N   UNL     1      76.762 137.369 125.436  0.00  0.00    -0.214 NA
BRANCH   4   3
ATOM      1  C   UNL     1      80.614 136.046 123.190  0.00  0.00    +0.020 A 
ATOM      2  C   UNL     1      79.248 135.980 123.656  0.00  0.00    +0.013 A 
ATOM      3  C   UNL     1      78.918 136.281 125.043  0.00  0.00    +0.019 A 
ATOM     38  C   UNL     1      80.002 136.652 125.940  0.00  0.00    +0.120 A 
ATOM     39  N   UNL     1      81.308 136.706 125.464  0.00  0.00    -0.263 NA
ATOM     40  C   UNL     1      81.638 136.416 124.132  0.00  0.00    +0.111 A 
ENDBRANCH   4   3
ENDBRANCH  10   9
BRANCH  12  13
ATOM     13  N   UNL     1      69.994 137.442 125.089  0.00  0.00    -0.281 N 
ATOM     14  C   UNL     1      68.983 137.988 124.315  0.00  0.00    +0.248 C 
ATOM     30  O   UNL     1      68.715 139.179 124.268  0.00  0.00    -0.270 OA
ATOM     31  H   UNL     1      69.985 136.427 125.187  0.00  0.00    +0.155 HD
BRANCH  14  15
ATOM     15  C   UNL     1      68.138 137.077 123.485  0.00  0.00    +0.037 A 
ATOM     16  C   UNL     1      68.421 135.641 123.403  0.00  0.00    +0.013 A 
ATOM     17  C   UNL     1      67.600 134.788 122.581  0.00  0.00    +0.005 A 
ATOM     18  C   UNL     1      66.487 135.368 121.835  0.00  0.00    -0.033 A 
ATOM     28  C   UNL     1      66.225 136.794 121.938  0.00  0.00    +0.005 A 
ATOM     29  C   UNL     1      67.028 137.634 122.742  0.00  0.00    +0.013 A 
BRANCH  18  19
ATOM     19  C   UNL     1      65.572 134.536 120.917  0.00  0.00    +0.119 C 
BRANCH  19  20
ATOM     20  N   UNL     1      65.641 133.050 121.047  0.00  0.00    -0.302 NA
ATOM     21  C   UNL     1      65.155 132.339 119.781  0.00  0.00    +0.066 C 
ATOM     22  C   UNL     1      65.255 130.785 119.927  0.00  0.00    -0.064 C 
ATOM     23  N   UNL     1      64.445 130.337 121.145  0.00  0.00    +0.379 N 
ATOM     24  C   UNL     1      64.489 128.871 121.251  0.00  0.00    -0.096 C 
ATOM     25  H   UNL     1      63.384 130.632 120.972  0.00  0.00    -0.082 HD
ATOM     26  C   UNL     1      64.920 131.042 122.408  0.00  0.00    -0.064 C 
ATOM     27  C   UNL     1      64.844 132.585 122.242  0.00  0.00    +0.066 C 
ENDBRANCH  19  20
ENDBRANCH  18  19
ENDBRANCH  14  15
ENDBRANCH  12  13
TORSDOF 6
ENDMDL
