MODEL 1
REMARK VINA RESULT:     -10.8      0.000      0.000
REMARK  Name = C:\Users\Docking\Desktop\test protocol\1iep_ligandH.pdb
REMARK  8 active torsions:
REMARK  status: ('A' for Active; 'I' for Inactive)
REMARK    1  A    between atoms: _5  and  _11
REMARK    2  A    between atoms: _19  and  _21
REMARK    3  A    between atoms: _22  and  _66
REMARK    4  A    between atoms: _27  and  _30
REMARK    5  A    between atoms: _32  and  _33
REMARK    6  A    between atoms: _38  and  _43
REMARK    7  A    between atoms: _43  and  _46
REMARK    8  A    between atoms: _53  and  _55
REMARK                            x       y       z     vdW  Elec       q    Type
REMARK                         _______ _______ _______ _____ _____    ______ ____
ROOT
ATOM     10  C   UNL     1      69.140 127.789 112.642  0.00  0.00    +0.038 A 
ATOM     11  C   UNL     1      68.264 128.182 113.685  0.00  0.00    +0.047 A 
ATOM     12  C   UNL     1      68.533 129.363 114.490  0.00  0.00    +0.035 A 
ATOM     32  C   UNL     1      69.704 130.124 114.202  0.00  0.00    +0.024 A 
ATOM     33  C   UNL     1      70.607 129.738 113.145  0.00  0.00    +0.007 A 
ATOM     34  C   UNL     1      70.347 128.572 112.350  0.00  0.00    -0.029 A 
ATOM     35  C   UNL     1      71.352 128.202 111.235  0.00  0.00    +0.045 C 
ENDROOT
BRANCH  10   9
ATOM      4  C   UNL     1      67.160 123.439 112.198  0.00  0.00    +0.077 A 
ATOM      5  C   UNL     1      66.724 123.433 113.565  0.00  0.00    +0.048 A 
ATOM      6  C   UNL     1      67.036 124.565 114.350  0.00  0.00    +0.116 A 
ATOM      7  N   UNL     1      67.732 125.619 113.799  0.00  0.00    -0.223 NA
ATOM      8  C   UNL     1      68.139 125.593 112.478  0.00  0.00    +0.220 A 
ATOM      9  N   UNL     1      68.833 126.645 111.901  0.00  0.00    -0.283 N 
ATOM     36  H   UNL     1      69.122 126.584 110.925  0.00  0.00    +0.155 HD
ATOM     37  N   UNL     1      67.854 124.522 111.707  0.00  0.00    -0.214 NA
BRANCH   4   3
ATOM      1  C   UNL     1      65.499 120.427 110.335  0.00  0.00    +0.020 A 
ATOM      2  C   UNL     1      65.698 121.499 111.283  0.00  0.00    +0.013 A 
ATOM      3  C   UNL     1      66.903 122.317 111.240  0.00  0.00    +0.019 A 
ATOM     38  C   UNL     1      67.895 122.024 110.216  0.00  0.00    +0.120 A 
ATOM     39  N   UNL     1      67.676 120.985 109.317  0.00  0.00    -0.263 NA
ATOM     40  C   UNL     1      66.521 120.189 109.350  0.00  0.00    +0.111 A 
ENDBRANCH   4   3
ENDBRANCH  10   9
BRANCH  12  13
ATOM     13  N   UNL     1      67.684 129.807 115.567  0.00  0.00    -0.281 N 
ATOM     14  C   UNL     1      67.203 129.064 116.633  0.00  0.00    +0.248 C 
ATOM     30  O   UNL     1      67.256 127.845 116.706  0.00  0.00    -0.270 OA
ATOM     31  H   UNL     1      67.404 130.787 115.542  0.00  0.00    +0.155 HD
BRANCH  14  15
ATOM     15  C   UNL     1      66.556 129.777 117.776  0.00  0.00    +0.037 A 
ATOM     16  C   UNL     1      66.138 129.057 118.982  0.00  0.00    +0.013 A 
ATOM     17  C   UNL     1      65.501 129.766 120.063  0.00  0.00    +0.005 A 
ATOM     18  C   UNL     1      65.279 131.205 119.944  0.00  0.00    -0.033 A 
ATOM     28  C   UNL     1      65.708 131.895 118.738  0.00  0.00    +0.005 A 
ATOM     29  C   UNL     1      66.332 131.203 117.676  0.00  0.00    +0.013 A 
BRANCH  18  19
ATOM     19  C   UNL     1      64.587 132.038 121.039  0.00  0.00    +0.119 C 
BRANCH  19  20
ATOM     20  N   UNL     1      64.592 133.523 120.874  0.00  0.00    -0.302 NA
ATOM     21  C   UNL     1      65.884 134.155 121.399  0.00  0.00    +0.066 C 
ATOM     22  C   UNL     1      65.882 135.705 121.198  0.00  0.00    -0.064 C 
ATOM     23  N   UNL     1      64.662 136.306 121.898  0.00  0.00    +0.379 N 
ATOM     24  C   UNL     1      64.687 137.769 121.760  0.00  0.00    -0.096 C 
ATOM     25  H   UNL     1      64.743 136.067 122.984  0.00  0.00    -0.082 HD
ATOM     26  C   UNL     1      63.373 135.681 121.384  0.00  0.00    -0.064 C 
ATOM     27  C   UNL     1      63.398 134.137 121.561  0.00  0.00    +0.066 C 
ENDBRANCH  19  20
ENDBRANCH  18  19
ENDBRANCH  14  15
ENDBRANCH  12  13
TORSDOF 6
ENDMDL
MODEL 2
REMARK VINA RESULT:     -10.8     13.131     19.009
REMARK  Name = C:\Users\Docking\Desktop\test protocol\1iep_ligandH.pdb
REMARK  8 active torsions:
REMARK  status: ('A' for Active; 'I' for Inactive)
REMARK    1  A    between atoms: _5  and  _11
REMARK    2  A    between atoms: _19  and  _21
REMARK    3  A    between atoms: _22  and  _66
REMARK    4  A    between atoms: _27  and  _30
REMARK    5  A    between atoms: _32  and  _33
REMARK    6  A    between atoms: _38  and  _43
REMARK    7  A    between atoms: _43  and  _46
REMARK    8  A    between atoms: _53  and  _55
REMARK                            x       y       z     vdW  Elec       q    Type
REMARK                         _______ _______ _______ _____ _____    ______ ____
ROOT
ATOM     10  C   UNL     1      78.071 136.923 124.585  0.00  0.00    +0.038 A 
ATOM     11  C   UNL     1      78.811 136.217 123.603  0.00  0.00    +0.047 A 
ATOM     12  C   UNL     1      80.219 135.906 123.801  0.00  0.00    +0.035 A 
ATOM     32  C   UNL     1      80.840 136.329 125.012  0.00  0.00    +0.024 A 
ATOM     33  C   UNL     1      80.103 137.049 126.020  0.00  0.00    +0.007 A 
ATOM     34  C   UNL     1      78.715 137.360 125.830  0.00  0.00    -0.029 A 
ATOM     35  C   UNL     1      77.976 138.141 126.941  0.00  0.00    +0.045 C 
ENDROOT
BRANCH  10   9
ATOM      4  C   UNL     1      73.417 135.771 124.803  0.00  0.00    +0.077 A 
ATOM      5  C   UNL     1      73.697 134.510 125.428  0.00  0.00    +0.048 A 
ATOM      6  C   UNL     1      75.053 134.193 125.669  0.00  0.00    +0.116 A 
ATOM      7  N   UNL     1      76.046 135.079 125.309  0.00  0.00    -0.223 NA
ATOM      8  C   UNL     1      75.741 136.285 124.707  0.00  0.00    +0.220 A 
ATOM      9  N   UNL     1      76.722 137.194 124.343  0.00  0.00    -0.283 N 
ATOM     36  H   UNL     1      76.457 138.071 123.895  0.00  0.00    +0.155 HD
ATOM     37  N   UNL     1      74.454 136.611 124.464  0.00  0.00    -0.214 NA
BRANCH   4   3
ATOM      1  C   UNL     1      69.625 135.862 123.848  0.00  0.00    +0.020 A 
ATOM      2  C   UNL     1      70.942 135.348 124.145  0.00  0.00    +0.013 A 
ATOM      3  C   UNL     1      72.034 136.250 124.486  0.00  0.00    +0.019 A 
ATOM     38  C   UNL     1      71.759 137.679 124.518  0.00  0.00    +0.120 A 
ATOM     39  N   UNL     1      70.481 138.145 124.226  0.00  0.00    -0.263 NA
ATOM     40  C   UNL     1      69.422 137.286 123.895  0.00  0.00    +0.111 A 
ENDBRANCH   4   3
ENDBRANCH  10   9
BRANCH  12  13
ATOM     13  N   UNL     1      81.023 135.198 122.836  0.00  0.00    -0.281 N 
ATOM     14  C   UNL     1      81.860 135.732 121.870  0.00  0.00    +0.248 C 
ATOM     30  O   UNL     1      81.879 136.911 121.547  0.00  0.00    -0.270 OA
ATOM     31  H   UNL     1      80.970 134.180 122.870  0.00  0.00    +0.155 HD
BRANCH  14  15
ATOM     15  C   UNL     1      82.801 134.823 121.147  0.00  0.00    +0.037 A 
ATOM     16  C   UNL     1      83.899 135.355 120.336  0.00  0.00    +0.013 A 
ATOM     17  C   UNL     1      84.782 134.456 119.636  0.00  0.00    +0.005 A 
ATOM     18  C   UNL     1      84.571 133.015 119.746  0.00  0.00    -0.033 A 
ATOM     28  C   UNL     1      83.477 132.514 120.561  0.00  0.00    +0.005 A 
ATOM     29  C   UNL     1      82.609 133.392 121.248  0.00  0.00    +0.013 A 
BRANCH  18  19
ATOM     19  C   UNL     1      85.451 131.982 119.016  0.00  0.00    +0.119 C 
BRANCH  19  20
ATOM     20  N   UNL     1      85.017 131.556 117.652  0.00  0.00    -0.302 NA
ATOM     21  C   UNL     1      84.501 132.733 116.820  0.00  0.00    +0.066 C 
ATOM     22  C   UNL     1      84.072 132.272 115.388  0.00  0.00    -0.064 C 
ATOM     23  N   UNL     1      83.006 131.181 115.504  0.00  0.00    +0.379 N 
ATOM     24  C   UNL     1      82.559 130.787 114.160  0.00  0.00    -0.096 C 
ATOM     25  H   UNL     1      82.131 131.620 116.037  0.00  0.00    -0.082 HD
ATOM     26  C   UNL     1      83.510 130.009 116.333  0.00  0.00    -0.064 C 
ATOM     27  C   UNL     1      83.961 130.482 117.743  0.00  0.00    +0.066 C 
ENDBRANCH  19  20
ENDBRANCH  18  19
ENDBRANCH  14  15
ENDBRANCH  12  13
TORSDOF 6
ENDMDL
MODEL 3
REMARK VINA RESULT:     -10.7      8.449     15.322
REMARK  Name = C:\Users\Docking\Desktop\test protocol\1iep_ligandH.pdb
REMARK  8 active torsions:
REMARK  status: ('A' for Active; 'I' for Inactive)
REMARK    1  A    between atoms: _5  and  _11
REMARK    2  A    between atoms: _19  and  _21
REMARK    3  A    between atoms: _22  and  _66
REMARK    4  A    between atoms: _27  and  _30
REMARK    5  A    between atoms: _32  and  _33
REMARK    6  A    between atoms: _38  and  _43
REMARK    7  A    between atoms: _43  and  _46
REMARK    8  A    between atoms: _53  and  _55
REMARK                            x       y       z     vdW  Elec       q    Type
REMARK                         _______ _______ _______ _____ _____    ______ ____
ROOT
ATOM     10  C   UNL     1      72.330 137.753 125.636  0.00  0.00    +0.038 A 
ATOM     11  C   UNL     1      71.419 137.068 124.792  0.00  0.00    +0.047 A 
ATOM     12  C   UNL     1      69.991 137.067 125.071  0.00  0.00    +0.035 A 
ATOM     32  C   UNL     1      69.526 137.775 126.217  0.00  0.00    +0.024 A 
ATOM     33  C   UNL     1      70.439 138.475 127.086  0.00  0.00    +0.007 A 
ATOM     34  C   UNL     1      71.848 138.478 126.818  0.00  0.00    -0.029 A 
ATOM     35  C   UNL     1      72.782 139.240 127.787  0.00  0.00    +0.045 C 
ENDROOT
BRANCH  10   9
ATOM      4  C   UNL     1      76.594 135.553 125.502  0.00  0.00    +0.077 A 
ATOM      5  C   UNL     1      76.074 134.377 126.138  0.00  0.00    +0.048 A 
ATOM      6  C   UNL     1      74.706 134.381 126.490  0.00  0.00    +0.116 A 
ATOM      7  N   UNL     1      73.925 135.485 126.221  0.00  0.00    -0.223 NA
ATOM      8  C   UNL     1      74.459 136.603 125.608  0.00  0.00    +0.220 A 
ATOM      9  N   UNL     1      73.691 137.721 125.321  0.00  0.00    -0.283 N 
ATOM     36  H   UNL     1      74.123 138.529 124.874  0.00  0.00    +0.155 HD
ATOM     37  N   UNL     1      75.763 136.625 125.263  0.00  0.00    -0.214 NA
BRANCH   4   3
ATOM      1  C   UNL     1      79.794 136.098 123.318  0.00  0.00    +0.020 A 
ATOM      2  C   UNL     1      78.403 135.965 123.686  0.00  0.00    +0.013 A 
ATOM      3  C   UNL     1      78.020 135.700 125.067  0.00  0.00    +0.019 A 
ATOM     38  C   UNL     1      79.076 135.575 126.059  0.00  0.00    +0.120 A 
ATOM     39  N   UNL     1      80.407 135.706 125.676  0.00  0.00    -0.263 NA
ATOM     40  C   UNL     1      80.788 135.960 124.350  0.00  0.00    +0.111 A 
ENDBRANCH   4   3
ENDBRANCH  10   9
BRANCH  12  13
ATOM     13  N   UNL     1      69.019 136.383 124.255  0.00  0.00    -0.281 N 
ATOM     14  C   UNL     1      68.533 136.760 123.013  0.00  0.00    +0.248 C 
ATOM     30  O   UNL     1      68.704 137.860 122.509  0.00  0.00    -0.270 OA
ATOM     31  H   UNL     1      68.643 135.516 124.639  0.00  0.00    +0.155 HD
BRANCH  14  15
ATOM     15  C   UNL     1      67.728 135.778 122.224  0.00  0.00    +0.037 A 
ATOM     16  C   UNL     1      67.176 136.128 120.913  0.00  0.00    +0.013 A 
ATOM     17  C   UNL     1      66.389 135.168 120.180  0.00  0.00    +0.005 A 
ATOM     18  C   UNL     1      66.152 133.847 120.758  0.00  0.00    -0.033 A 
ATOM     28  C   UNL     1      66.716 133.525 122.058  0.00  0.00    +0.005 A 
ATOM     29  C   UNL     1      67.487 134.463 122.779  0.00  0.00    +0.013 A 
BRANCH  18  19
ATOM     19  C   UNL     1      65.307 132.767 120.056  0.00  0.00    +0.119 C 
BRANCH  19  20
ATOM     20  N   UNL     1      66.039 131.630 119.423  0.00  0.00    -0.302 NA
ATOM     21  C   UNL     1      66.244 131.845 117.920  0.00  0.00    +0.066 C 
ATOM     22  C   UNL     1      67.031 130.656 117.278  0.00  0.00    -0.064 C 
ATOM     23  N   UNL     1      66.281 129.350 117.541  0.00  0.00    +0.379 N 
ATOM     24  C   UNL     1      66.988 128.238 116.889  0.00  0.00    -0.096 C 
ATOM     25  H   UNL     1      65.276 129.436 117.067  0.00  0.00    -0.082 HD
ATOM     26  C   UNL     1      66.070 129.130 119.032  0.00  0.00    -0.064 C 
ATOM     27  C   UNL     1      65.313 130.330 119.666  0.00  0.00    +0.066 C 
ENDBRANCH  19  20
ENDBRANCH  18  19
ENDBRANCH  14  15
ENDBRANCH  12  13
TORSDOF 6
ENDMDL
MODEL 4
REMARK VINA RESULT:     -10.6      9.039     15.681
REMARK  Name = C:\Users\Docking\Desktop\test protocol\1iep_ligandH.pdb
REMARK  8 active torsions:
REMARK  status: ('A' for Active; 'I' for Inactive)
REMARK    1  A    between atoms: _5  and  _11
REMARK    2  A    between atoms: _19  and  _21
REMARK    3  A    between atoms: _22  and  _66
REMARK    4  A    between atoms: _27  and  _30
REMARK    5  A    between atoms: _32  and  _33
REMARK    6  A    between atoms: _38  and  _43
REMARK    7  A    between atoms: _43  and  _46
REMARK    8  A    between atoms: _53  and  _55
REMARK                            x       y       z     vdW  Elec       q    Type
REMARK                         _______ _______ _______ _____ _____    ______ ____
ROOT
ATOM     10  C   UNL     1      73.203 138.452 125.849  0.00  0.00    +0.038 A 
ATOM     11  C   UNL     1      72.201 137.748 125.133  0.00  0.00    +0.047 A 
ATOM     12  C   UNL     1      70.797 137.856 125.501  0.00  0.00    +0.035 A 
ATOM     32  C   UNL     1      70.450 138.692 126.603  0.00  0.00    +0.024 A 
ATOM     33  C   UNL     1      71.456 139.413 127.342  0.00  0.00    +0.007 A 
ATOM     34  C   UNL     1      72.842 139.309 126.985  0.00  0.00    -0.029 A 
ATOM     35  C   UNL     1      73.879 140.099 127.816  0.00  0.00    +0.045 C 
ENDROOT
BRANCH  10   9
ATOM      4  C   UNL     1      77.223 135.877 125.352  0.00  0.00    +0.077 A 
ATOM      5  C   UNL     1      76.629 134.722 125.959  0.00  0.00    +0.048 A 
ATOM      6  C   UNL     1      75.288 134.833 126.392  0.00  0.00    +0.116 A 
ATOM      7  N   UNL     1      74.603 136.017 126.225  0.00  0.00    -0.223 NA
ATOM      8  C   UNL     1      75.207 137.114 125.637  0.00  0.00    +0.220 A 
ATOM      9  N   UNL     1      74.535 138.312 125.452  0.00  0.00    -0.283 N 
ATOM     36  H   UNL     1      75.018 139.100 125.021  0.00  0.00    +0.155 HD
ATOM     37  N   UNL     1      76.487 137.033 125.217  0.00  0.00    -0.214 NA
BRANCH   4   3
ATOM      1  C   UNL     1      80.335 136.223 123.008  0.00  0.00    +0.020 A 
ATOM      2  C   UNL     1      78.960 136.198 123.450  0.00  0.00    +0.013 A 
ATOM      3  C   UNL     1      78.630 135.915 124.841  0.00  0.00    +0.019 A 
ATOM     38  C   UNL     1      79.724 135.660 125.767  0.00  0.00    +0.120 A 
ATOM     39  N   UNL     1      81.038 135.689 125.312  0.00  0.00    -0.263 NA
ATOM     40  C   UNL     1      81.368 135.959 123.975  0.00  0.00    +0.111 A 
ENDBRANCH   4   3
ENDBRANCH  10   9
BRANCH  12  13
ATOM     13  N   UNL     1      69.737 137.159 124.817  0.00  0.00    -0.281 N 
ATOM     14  C   UNL     1      68.783 137.688 123.963  0.00  0.00    +0.248 C 
ATOM     30  O   UNL     1      68.566 138.883 123.824  0.00  0.00    -0.270 OA
ATOM     31  H   UNL     1      69.682 136.154 124.983  0.00  0.00    +0.155 HD
BRANCH  14  15
ATOM     15  C   UNL     1      67.939 136.755 123.156  0.00  0.00    +0.037 A 
ATOM     16  C   UNL     1      68.147 135.305 123.207  0.00  0.00    +0.013 A 
ATOM     17  C   UNL     1      67.330 134.429 122.407  0.00  0.00    +0.005 A 
ATOM     18  C   UNL     1      66.295 135.000 121.548  0.00  0.00    -0.033 A 
ATOM     28  C   UNL     1      66.107 136.441 121.520  0.00  0.00    +0.005 A 
ATOM     29  C   UNL     1      66.906 137.303 122.303  0.00  0.00    +0.013 A 
BRANCH  18  19
ATOM     19  C   UNL     1      65.391 134.142 120.643  0.00  0.00    +0.119 C 
BRANCH  19  20
ATOM     20  N   UNL     1      65.526 132.658 120.752  0.00  0.00    -0.302 NA
ATOM     21  C   UNL     1      65.094 131.947 119.467  0.00  0.00    +0.066 C 
ATOM     22  C   UNL     1      65.263 130.397 119.590  0.00  0.00    -0.064 C 
ATOM     23  N   UNL     1      64.455 129.892 120.787  0.00  0.00    +0.379 N 
ATOM     24  C   UNL     1      64.565 128.428 120.870  0.00  0.00    -0.096 C 
ATOM     25  H   UNL     1      63.384 130.141 120.601  0.00  0.00    -0.082 HD
ATOM     26  C   UNL     1      64.877 130.597 122.068  0.00  0.00    -0.064 C 
ATOM     27  C   UNL     1      64.733 132.137 121.925  0.00  0.00    +0.066 C 
ENDBRANCH  19  20
ENDBRANCH  18  19
ENDBRANCH  14  15
ENDBRANCH  12  13
TORSDOF 6
ENDMDL
MODEL 5
REMARK VINA RESULT:     -10.3     10.823     15.911
REMARK  Name = C:\Users\Docking\Desktop\test protocol\1iep_ligandH.pdb
REMARK  8 active torsions:
REMARK  status: ('A' for Active; 'I' for Inactive)
REMARK    1  A    between atoms: _5  and  _11
REMARK    2  A    between atoms: _19  and  _21
REMARK    3  A    between atoms: _22  and  _66
REMARK    4  A    between atoms: _27  and  _30
REMARK    5  A    between atoms: _32  and  _33
REMARK    6  A    between atoms: _38  and  _43
REMARK    7  A    between atoms: _43  and  _46
REMARK    8  A    between atoms: _53  and  _55
REMARK                            x       y       z     vdW  Elec       q    Type
REMARK                         _______ _______ _______ _____ _____    ______ ____
ROOT
ATOM     10  C   UNL     1      70.426 136.873 124.966  0.00  0.00    +0.038 A 
ATOM     11  C   UNL     1      71.751 136.383 125.094  0.00  0.00    +0.047 A 
ATOM     12  C   UNL     1      72.843 137.261 125.485  0.00  0.00    +0.035 A 
ATOM     32  C   UNL     1      72.548 138.632 125.741  0.00  0.00    +0.024 A 
ATOM     33  C   UNL     1      71.208 139.147 125.615  0.00  0.00    +0.007 A 
ATOM     34  C   UNL     1      70.127 138.286 125.226  0.00  0.00    -0.029 A 
ATOM     35  C   UNL     1      68.710 138.893 125.100  0.00  0.00    +0.045 C 
ENDROOT
BRANCH  10   9
ATOM      4  C   UNL     1      67.700 134.729 121.647  0.00  0.00    +0.077 A 
ATOM      5  C   UNL     1      68.322 135.458 120.580  0.00  0.00    +0.048 A 
ATOM      6  C   UNL     1      69.334 136.380 120.928  0.00  0.00    +0.116 A 
ATOM      7  N   UNL     1      69.690 136.552 122.248  0.00  0.00    -0.223 NA
ATOM      8  C   UNL     1      69.069 135.834 123.253  0.00  0.00    +0.220 A 
ATOM      9  N   UNL     1      69.416 135.985 124.587  0.00  0.00    -0.283 N 
ATOM     36  H   UNL     1      68.929 135.442 125.300  0.00  0.00    +0.155 HD
ATOM     37  N   UNL     1      68.098 134.948 122.947  0.00  0.00    -0.214 NA
BRANCH   4   3
ATOM      1  C   UNL     1      65.048 131.920 122.261  0.00  0.00    +0.020 A 
ATOM      2  C   UNL     1      66.095 132.882 122.515  0.00  0.00    +0.013 A 
ATOM      3  C   UNL     1      66.617 133.716 121.439  0.00  0.00    +0.019 A 
ATOM     38  C   UNL     1      66.053 133.551 120.108  0.00  0.00    +0.120 A 
ATOM     39  N   UNL     1      65.046 132.615 119.893  0.00  0.00    -0.263 NA
ATOM     40  C   UNL     1      64.537 131.806 120.920  0.00  0.00    +0.111 A 
ENDBRANCH   4   3
ENDBRANCH  10   9
BRANCH  12  13
ATOM     13  N   UNL     1      74.209 136.823 125.623  0.00  0.00    -0.281 N 
ATOM     14  C   UNL     1      74.918 135.969 124.794  0.00  0.00    +0.248 C 
ATOM     30  O   UNL     1      74.415 135.281 123.919  0.00  0.00    -0.270 OA
ATOM     31  H   UNL     1      74.716 137.186 126.431  0.00  0.00    +0.155 HD
BRANCH  14  15
ATOM     15  C   UNL     1      76.398 135.853 124.972  0.00  0.00    +0.037 A 
ATOM     16  C   UNL     1      77.325 136.261 123.913  0.00  0.00    +0.013 A 
ATOM     17  C   UNL     1      78.747 136.122 124.104  0.00  0.00    +0.005 A 
ATOM     18  C   UNL     1      79.250 135.574 125.361  0.00  0.00    -0.033 A 
ATOM     28  C   UNL     1      78.309 135.183 126.397  0.00  0.00    +0.005 A 
ATOM     29  C   UNL     1      76.914 135.316 126.213  0.00  0.00    +0.013 A 
BRANCH  18  19
ATOM     19  C   UNL     1      80.751 135.371 125.643  0.00  0.00    +0.119 C 
BRANCH  19  20
ATOM     20  N   UNL     1      81.129 134.854 126.992  0.00  0.00    -0.302 NA
ATOM     21  C   UNL     1      82.377 135.548 127.545  0.00  0.00    +0.066 C 
ATOM     22  C   UNL     1      82.745 135.011 128.966  0.00  0.00    -0.064 C 
ATOM     23  N   UNL     1      82.953 133.497 128.898  0.00  0.00    +0.379 N 
ATOM     24  C   UNL     1      83.356 132.998 130.221  0.00  0.00    -0.096 C 
ATOM     25  H   UNL     1      83.794 133.303 128.192  0.00  0.00    -0.082 HD
ATOM     26  C   UNL     1      81.718 132.799 128.347  0.00  0.00    -0.064 C 
ATOM     27  C   UNL     1      81.343 133.361 126.947  0.00  0.00    +0.066 C 
ENDBRANCH  19  20
ENDBRANCH  18  19
ENDBRANCH  14  15
ENDBRANCH  12  13
TORSDOF 6
ENDMDL
