MODEL 1
REMARK VINA RESULT:     -10.3      0.000      0.000
REMARK  Name = C:\Users\Docking\Desktop\test protocol\1iep_ligandH.pdb
REMARK  8 active torsions:
REMARK  status: ('A' for Active; 'I' for Inactive)
REMARK    1  A    between atoms: _5  and  _11
REMARK    2  A    between atoms: _19  and  _21
REMARK    3  A    between atoms: _22  and  _66
REMARK    4  A    between atoms: _27  and  _30
REMARK    5  A    between atoms: _32  and  _33
REMARK    6  A    between atoms: _38  and  _43
REMARK    7  A    between atoms: _43  and  _46
REMARK    8  A    between atoms: _53  and  _55
REMARK                            x       y       z     vdW  Elec       q    Type
REMARK                         _______ _______ _______ _____ _____    ______ ____
ROOT
ATOM     10  C   UNL     1      68.276 127.803 112.964  0.00  0.00    +0.038 A 
ATOM     11  C   UNL     1      67.480 128.270 114.041  0.00  0.00    +0.047 A 
ATOM     12  C   UNL     1      67.952 129.325 114.924  0.00  0.00    +0.035 A 
ATOM     32  C   UNL     1      69.240 129.885 114.679  0.00  0.00    +0.024 A 
ATOM     33  C   UNL     1      70.063 129.422 113.589  0.00  0.00    +0.007 A 
ATOM     34  C   UNL     1      69.603 128.379 112.716  0.00  0.00    -0.029 A 
ATOM     35  C   UNL     1      70.530 127.918 111.568  0.00  0.00    +0.045 C 
ENDROOT
BRANCH  10   9
ATOM      4  C   UNL     1      66.487 123.399 112.303  0.00  0.00    +0.077 A 
ATOM      5  C   UNL     1      66.588 123.084 113.699  0.00  0.00    +0.048 A 
ATOM      6  C   UNL     1      67.113 124.080 114.552  0.00  0.00    +0.116 A 
ATOM      7  N   UNL     1      67.503 125.298 114.037  0.00  0.00    -0.223 NA
ATOM      8  C   UNL     1      67.393 125.568 112.686  0.00  0.00    +0.220 A 
ATOM      9  N   UNL     1      67.772 126.788 112.147  0.00  0.00    -0.283 N 
ATOM     36  H   UNL     1      67.683 126.946 111.144  0.00  0.00    +0.155 HD
ATOM     37  N   UNL     1      66.897 124.633 111.850  0.00  0.00    -0.214 NA
BRANCH   4   3
ATOM      1  C   UNL     1      66.111 121.188 109.098  0.00  0.00    +0.020 A 
ATOM      2  C   UNL     1      66.674 122.109 110.058  0.00  0.00    +0.013 A 
ATOM      3  C   UNL     1      65.950 122.451 111.276  0.00  0.00    +0.019 A 
ATOM     38  C   UNL     1      64.648 121.838 111.494  0.00  0.00    +0.120 A 
ATOM     39  N   UNL     1      64.130 120.956 110.551  0.00  0.00    -0.263 NA
ATOM     40  C   UNL     1      64.817 120.620 109.375  0.00  0.00    +0.111 A 
ENDBRANCH   4   3
ENDBRANCH  10   9
BRANCH  12  13
ATOM     13  N   UNL     1      67.192 129.834 116.038  0.00  0.00    -0.281 N 
ATOM     14  C   UNL     1      66.787 129.153 117.175  0.00  0.00    +0.248 C 
ATOM     30  O   UNL     1      66.835 127.939 117.307  0.00  0.00    -0.270 OA
ATOM     31  H   UNL     1      66.919 130.815 115.983  0.00  0.00    +0.155 HD
BRANCH  14  15
ATOM     15  C   UNL     1      66.236 129.931 118.325  0.00  0.00    +0.037 A 
ATOM     16  C   UNL     1      66.010 129.303 119.629  0.00  0.00    +0.013 A 
ATOM     17  C   UNL     1      65.462 130.073 120.718  0.00  0.00    +0.005 A 
ATOM     18  C   UNL     1      65.136 131.481 120.506  0.00  0.00    -0.033 A 
ATOM     28  C   UNL     1      65.375 132.081 119.203  0.00  0.00    +0.005 A 
ATOM     29  C   UNL     1      65.912 131.329 118.134  0.00  0.00    +0.013 A 
BRANCH  18  19
ATOM     19  C   UNL     1      64.527 132.373 121.604  0.00  0.00    +0.119 C 
BRANCH  19  20
ATOM     20  N   UNL     1      64.412 133.833 121.313  0.00  0.00    -0.302 NA
ATOM     21  C   UNL     1      65.562 134.635 121.931  0.00  0.00    +0.066 C 
ATOM     22  C   UNL     1      65.438 136.157 121.598  0.00  0.00    -0.064 C 
ATOM     23  N   UNL     1      64.088 136.677 122.095  0.00  0.00    +0.379 N 
ATOM     24  C   UNL     1      63.992 138.121 121.835  0.00  0.00    -0.096 C 
ATOM     25  H   UNL     1      64.055 136.529 123.199  0.00  0.00    -0.082 HD
ATOM     26  C   UNL     1      62.939 135.884 121.488  0.00  0.00    -0.064 C 
ATOM     27  C   UNL     1      63.088 134.368 121.800  0.00  0.00    +0.066 C 
ENDBRANCH  19  20
ENDBRANCH  18  19
ENDBRANCH  14  15
ENDBRANCH  12  13
TORSDOF 6
ENDMDL
MODEL 2
REMARK VINA RESULT:     -10.2      8.495     15.401
REMARK  Name = C:\Users\Docking\Desktop\test protocol\1iep_ligandH.pdb
REMARK  8 active torsions:
REMARK  status: ('A' for Active; 'I' for Inactive)
REMARK    1  A    between atoms: _5  and  _11
REMARK    2  A    between atoms: _19  and  _21
REMARK    3  A    between atoms: _22  and  _66
REMARK    4  A    between atoms: _27  and  _30
REMARK    5  A    between atoms: _32  and  _33
REMARK    6  A    between atoms: _38  and  _43
REMARK    7  A    between atoms: _43  and  _46
REMARK    8  A    between atoms: _53  and  _55
REMARK                            x       y       z     vdW  Elec       q    Type
REMARK                         _______ _______ _______ _____ _____    ______ ____
ROOT
ATOM     10  C   UNL     1      72.171 137.512 125.513  0.00  0.00    +0.038 A 
ATOM     11  C   UNL     1      71.296 136.752 124.696  0.00  0.00    +0.047 A 
ATOM     12  C   UNL     1      69.861 136.740 124.936  0.00  0.00    +0.035 A 
ATOM     32  C   UNL     1      69.351 137.517 126.017  0.00  0.00    +0.024 A 
ATOM     33  C   UNL     1      70.226 138.294 126.859  0.00  0.00    +0.007 A 
ATOM     34  C   UNL     1      71.643 138.307 126.628  0.00  0.00    -0.029 A 
ATOM     35  C   UNL     1      72.534 139.154 127.566  0.00  0.00    +0.045 C 
ENDROOT
BRANCH  10   9
ATOM      4  C   UNL     1      76.485 135.415 125.684  0.00  0.00    +0.077 A 
ATOM      5  C   UNL     1      75.974 134.287 126.409  0.00  0.00    +0.048 A 
ATOM      6  C   UNL     1      74.596 134.289 126.724  0.00  0.00    +0.116 A 
ATOM      7  N   UNL     1      73.799 135.344 126.338  0.00  0.00    -0.223 NA
ATOM      8  C   UNL     1      74.324 136.417 125.642  0.00  0.00    +0.220 A 
ATOM      9  N   UNL     1      73.540 137.486 125.237  0.00  0.00    -0.283 N 
ATOM     36  H   UNL     1      73.966 138.262 124.732  0.00  0.00    +0.155 HD
ATOM     37  N   UNL     1      75.637 136.441 125.330  0.00  0.00    -0.214 NA
BRANCH   4   3
ATOM      1  C   UNL     1      79.724 135.952 123.559  0.00  0.00    +0.020 A 
ATOM      2  C   UNL     1      78.327 135.822 123.901  0.00  0.00    +0.013 A 
ATOM      3  C   UNL     1      77.918 135.558 125.275  0.00  0.00    +0.019 A 
ATOM     38  C   UNL     1      78.956 135.430 126.287  0.00  0.00    +0.120 A 
ATOM     39  N   UNL     1      80.294 135.558 125.927  0.00  0.00    -0.263 NA
ATOM     40  C   UNL     1      80.700 135.811 124.608  0.00  0.00    +0.111 A 
ENDBRANCH   4   3
ENDBRANCH  10   9
BRANCH  12  13
ATOM     13  N   UNL     1      68.925 135.982 124.144  0.00  0.00    -0.281 N 
ATOM     14  C   UNL     1      68.177 136.416 123.063  0.00  0.00    +0.248 C 
ATOM     30  O   UNL     1      68.039 137.587 122.743  0.00  0.00    -0.270 OA
ATOM     31  H   UNL     1      68.798 135.006 124.414  0.00  0.00    +0.155 HD
BRANCH  14  15
ATOM     15  C   UNL     1      67.467 135.404 122.223  0.00  0.00    +0.037 A 
ATOM     16  C   UNL     1      67.502 135.470 120.760  0.00  0.00    +0.013 A 
ATOM     17  C   UNL     1      66.795 134.491 119.973  0.00  0.00    +0.005 A 
ATOM     18  C   UNL     1      66.046 133.435 120.650  0.00  0.00    -0.033 A 
ATOM     28  C   UNL     1      66.032 133.389 122.103  0.00  0.00    +0.005 A 
ATOM     29  C   UNL     1      66.723 134.348 122.877  0.00  0.00    +0.013 A 
BRANCH  18  19
ATOM     19  C   UNL     1      65.244 132.360 119.892  0.00  0.00    +0.119 C 
BRANCH  19  20
ATOM     20  N   UNL     1      66.016 131.245 119.267  0.00  0.00    -0.302 NA
ATOM     21  C   UNL     1      66.248 131.474 117.771  0.00  0.00    +0.066 C 
ATOM     22  C   UNL     1      67.076 130.308 117.138  0.00  0.00    -0.064 C 
ATOM     23  N   UNL     1      66.352 128.983 117.378  0.00  0.00    +0.379 N 
ATOM     24  C   UNL     1      67.099 127.892 116.734  0.00  0.00    -0.096 C 
ATOM     25  H   UNL     1      65.355 129.048 116.883  0.00  0.00    -0.082 HD
ATOM     26  C   UNL     1      66.115 128.749 118.863  0.00  0.00    -0.064 C 
ATOM     27  C   UNL     1      65.317 129.926 119.488  0.00  0.00    +0.066 C 
ENDBRANCH  19  20
ENDBRANCH  18  19
ENDBRANCH  14  15
ENDBRANCH  12  13
TORSDOF 6
ENDMDL
MODEL 3
REMARK VINA RESULT:     -10.2     13.395     19.212
REMARK  Name = C:\Users\Docking\Desktop\test protocol\1iep_ligandH.pdb
REMARK  8 active torsions:
REMARK  status: ('A' for Active; 'I' for Inactive)
REMARK    1  A    between atoms: _5  and  _11
REMARK    2  A    between atoms: _19  and  _21
REMARK    3  A    between atoms: _22  and  _66
REMARK    4  A    between atoms: _27  and  _30
REMARK    5  A    between atoms: _32  and  _33
REMARK    6  A    between atoms: _38  and  _43
REMARK    7  A    between atoms: _43  and  _46
REMARK    8  A    between atoms: _53  and  _55
REMARK                            x       y       z     vdW  Elec       q    Type
REMARK                         _______ _______ _______ _____ _____    ______ ____
ROOT
ATOM     10  C   UNL     1      77.853 136.919 124.867  0.00  0.00    +0.038 A 
ATOM     11  C   UNL     1      78.628 136.279 123.867  0.00  0.00    +0.047 A 
ATOM     12  C   UNL     1      80.027 135.951 124.094  0.00  0.00    +0.035 A 
ATOM     32  C   UNL     1      80.604 136.289 125.352  0.00  0.00    +0.024 A 
ATOM     33  C   UNL     1      79.831 136.941 126.380  0.00  0.00    +0.007 A 
ATOM     34  C   UNL     1      78.451 137.269 126.161  0.00  0.00    -0.029 A 
ATOM     35  C   UNL     1      77.673 137.974 127.296  0.00  0.00    +0.045 C 
ENDROOT
BRANCH  10   9
ATOM      4  C   UNL     1      73.186 135.797 124.903  0.00  0.00    +0.077 A 
ATOM      5  C   UNL     1      73.439 134.511 125.487  0.00  0.00    +0.048 A 
ATOM      6  C   UNL     1      74.785 134.175 125.757  0.00  0.00    +0.116 A 
ATOM      7  N   UNL     1      75.794 135.065 125.460  0.00  0.00    -0.223 NA
ATOM      8  C   UNL     1      75.516 136.296 124.895  0.00  0.00    +0.220 A 
ATOM      9  N   UNL     1      76.514 137.210 124.596  0.00  0.00    -0.283 N 
ATOM     36  H   UNL     1      76.268 138.105 124.173  0.00  0.00    +0.155 HD
ATOM     37  N   UNL     1      74.239 136.641 124.627  0.00  0.00    -0.214 NA
BRANCH   4   3
ATOM      1  C   UNL     1      69.440 135.961 123.791  0.00  0.00    +0.020 A 
ATOM      2  C   UNL     1      70.744 135.425 124.105  0.00  0.00    +0.013 A 
ATOM      3  C   UNL     1      71.817 136.299 124.563  0.00  0.00    +0.019 A 
ATOM     38  C   UNL     1      71.535 137.720 124.694  0.00  0.00    +0.120 A 
ATOM     39  N   UNL     1      70.270 138.208 124.382  0.00  0.00    -0.263 NA
ATOM     40  C   UNL     1      69.230 137.377 123.939  0.00  0.00    +0.111 A 
ENDBRANCH   4   3
ENDBRANCH  10   9
BRANCH  12  13
ATOM     13  N   UNL     1      80.866 135.309 123.113  0.00  0.00    -0.281 N 
ATOM     14  C   UNL     1      81.677 135.907 122.162  0.00  0.00    +0.248 C 
ATOM     30  O   UNL     1      81.640 137.093 121.870  0.00  0.00    -0.270 OA
ATOM     31  H   UNL     1      80.861 134.289 123.120  0.00  0.00    +0.155 HD
BRANCH  14  15
ATOM     15  C   UNL     1      82.662 135.063 121.419  0.00  0.00    +0.037 A 
ATOM     16  C   UNL     1      83.760 135.667 120.661  0.00  0.00    +0.013 A 
ATOM     17  C   UNL     1      84.686 134.831 119.939  0.00  0.00    +0.005 A 
ATOM     18  C   UNL     1      84.517 133.380 119.973  0.00  0.00    -0.033 A 
ATOM     28  C   UNL     1      83.422 132.807 120.737  0.00  0.00    +0.005 A 
ATOM     29  C   UNL     1      82.512 133.624 121.445  0.00  0.00    +0.013 A 
BRANCH  18  19
ATOM     19  C   UNL     1      85.445 132.412 119.214  0.00  0.00    +0.119 C 
BRANCH  19  20
ATOM     20  N   UNL     1      84.996 131.948 117.868  0.00  0.00    -0.302 NA
ATOM     21  C   UNL     1      84.325 133.069 117.068  0.00  0.00    +0.066 C 
ATOM     22  C   UNL     1      83.881 132.572 115.654  0.00  0.00    -0.064 C 
ATOM     23  N   UNL     1      82.938 131.377 115.809  0.00  0.00    +0.379 N 
ATOM     24  C   UNL     1      82.473 130.944 114.483  0.00  0.00    -0.096 C 
ATOM     25  H   UNL     1      82.047 131.722 116.384  0.00  0.00    -0.082 HD
ATOM     26  C   UNL     1      83.596 130.259 116.605  0.00  0.00    -0.064 C 
ATOM     27  C   UNL     1      84.060 130.772 117.998  0.00  0.00    +0.066 C 
ENDBRANCH  19  20
ENDBRANCH  18  19
ENDBRANCH  14  15
ENDBRANCH  12  13
TORSDOF 6
ENDMDL
MODEL 4
REMARK VINA RESULT:     -10.0      9.167     15.826
REMARK  Name = C:\Users\Docking\Desktop\test protocol\1iep_ligandH.pdb
REMARK  8 active torsions:
REMARK  status: ('A' for Active; 'I' for Inactive)
REMARK    1  A    between atoms: _5  and  _11
REMARK    2  A    between atoms: _19  and  _21
REMARK    3  A    between atoms: _22  and  _66
REMARK    4  A    between atoms: _27  and  _30
REMARK    5  A    between atoms: _32  and  _33
REMARK    6  A    between atoms: _38  and  _43
REMARK    7  A    between atoms: _43  and  _46
REMARK    8  A    between atoms: _53  and  _55
REMARK                            x       y       z     vdW  Elec       q    Type
REMARK                         _______ _______ _______ _____ _____    ______ ____
ROOT
ATOM     10  C   UNL     1      73.193 138.464 125.900  0.00  0.00    +0.038 A 
ATOM     11  C   UNL     1      72.199 137.899 125.060  0.00  0.00    +0.047 A 
ATOM     12  C   UNL     1      70.785 138.036 125.370  0.00  0.00    +0.035 A 
ATOM     32  C   UNL     1      70.417 138.757 126.544  0.00  0.00    +0.024 A 
ATOM     33  C   UNL     1      71.414 139.337 127.409  0.00  0.00    +0.007 A 
ATOM     34  C   UNL     1      72.811 139.203 127.110  0.00  0.00    -0.029 A 
ATOM     35  C   UNL     1      73.835 139.840 128.077  0.00  0.00    +0.045 C 
ENDROOT
BRANCH  10   9
ATOM      4  C   UNL     1      77.185 135.823 125.551  0.00  0.00    +0.077 A 
ATOM      5  C   UNL     1      76.548 134.676 126.131  0.00  0.00    +0.048 A 
ATOM      6  C   UNL     1      75.194 134.809 126.512  0.00  0.00    +0.116 A 
ATOM      7  N   UNL     1      74.536 136.005 126.322  0.00  0.00    -0.223 NA
ATOM      8  C   UNL     1      75.181 137.092 125.762  0.00  0.00    +0.220 A 
ATOM      9  N   UNL     1      74.536 138.302 125.555  0.00  0.00    -0.283 N 
ATOM     36  H   UNL     1      75.049 139.083 125.145  0.00  0.00    +0.155 HD
ATOM     37  N   UNL     1      76.474 136.991 125.391  0.00  0.00    -0.214 NA
BRANCH   4   3
ATOM      1  C   UNL     1      80.388 135.712 123.308  0.00  0.00    +0.020 A 
ATOM      2  C   UNL     1      78.997 135.691 123.696  0.00  0.00    +0.013 A 
ATOM      3  C   UNL     1      78.611 135.838 125.094  0.00  0.00    +0.019 A 
ATOM     38  C   UNL     1      79.666 136.007 126.082  0.00  0.00    +0.120 A 
ATOM     39  N   UNL     1      80.997 136.022 125.679  0.00  0.00    -0.263 NA
ATOM     40  C   UNL     1      81.381 135.880 124.337  0.00  0.00    +0.111 A 
ENDBRANCH   4   3
ENDBRANCH  10   9
BRANCH  12  13
ATOM     13  N   UNL     1      69.732 137.477 124.559  0.00  0.00    -0.281 N 
ATOM     14  C   UNL     1      69.672 137.398 123.178  0.00  0.00    +0.248 C 
ATOM     30  O   UNL     1      70.422 137.992 122.418  0.00  0.00    -0.270 OA
ATOM     31  H   UNL     1      68.934 137.092 125.065  0.00  0.00    +0.155 HD
BRANCH  14  15
ATOM     15  C   UNL     1      68.616 136.548 122.548  0.00  0.00    +0.037 A 
ATOM     16  C   UNL     1      67.771 135.664 123.355  0.00  0.00    +0.013 A 
ATOM     17  C   UNL     1      66.772 134.841 122.720  0.00  0.00    +0.005 A 
ATOM     18  C   UNL     1      66.612 134.900 121.269  0.00  0.00    -0.033 A 
ATOM     28  C   UNL     1      67.460 135.789 120.493  0.00  0.00    +0.005 A 
ATOM     29  C   UNL     1      68.441 136.596 121.112  0.00  0.00    +0.013 A 
BRANCH  18  19
ATOM     19  C   UNL     1      65.585 134.042 120.506  0.00  0.00    +0.119 C 
BRANCH  19  20
ATOM     20  N   UNL     1      65.582 132.574 120.780  0.00  0.00    -0.302 NA
ATOM     21  C   UNL     1      65.206 131.759 119.539  0.00  0.00    +0.066 C 
ATOM     22  C   UNL     1      65.229 130.225 119.838  0.00  0.00    -0.064 C 
ATOM     23  N   UNL     1      64.279 129.919 120.997  0.00  0.00    +0.379 N 
ATOM     24  C   UNL     1      64.255 128.469 121.242  0.00  0.00    -0.096 C 
ATOM     25  H   UNL     1      63.254 130.226 120.683  0.00  0.00    -0.082 HD
ATOM     26  C   UNL     1      64.644 130.727 122.233  0.00  0.00    -0.064 C 
ATOM     27  C   UNL     1      64.647 132.249 121.918  0.00  0.00    +0.066 C 
ENDBRANCH  19  20
ENDBRANCH  18  19
ENDBRANCH  14  15
ENDBRANCH  12  13
TORSDOF 6
ENDMDL
MODEL 5
REMARK VINA RESULT:      -9.8      5.029      8.396
REMARK  Name = C:\Users\Docking\Desktop\test protocol\1iep_ligandH.pdb
REMARK  8 active torsions:
REMARK  status: ('A' for Active; 'I' for Inactive)
REMARK    1  A    between atoms: _5  and  _11
REMARK    2  A    between atoms: _19  and  _21
REMARK    3  A    between atoms: _22  and  _66
REMARK    4  A    between atoms: _27  and  _30
REMARK    5  A    between atoms: _32  and  _33
REMARK    6  A    between atoms: _38  and  _43
REMARK    7  A    between atoms: _43  and  _46
REMARK    8  A    between atoms: _53  and  _55
REMARK                            x       y       z     vdW  Elec       q    Type
REMARK                         _______ _______ _______ _____ _____    ______ ____
ROOT
ATOM     10  C   UNL     1      65.949 120.204 111.431  0.00  0.00    +0.038 A 
ATOM     11  C   UNL     1      65.816 121.517 111.949  0.00  0.00    +0.047 A 
ATOM     12  C   UNL     1      66.762 122.564 111.596  0.00  0.00    +0.035 A 
ATOM     32  C   UNL     1      67.831 122.239 110.711  0.00  0.00    +0.024 A 
ATOM     33  C   UNL     1      67.982 120.909 110.177  0.00  0.00    +0.007 A 
ATOM     34  C   UNL     1      67.053 119.871 110.523  0.00  0.00    -0.029 A 
ATOM     35  C   UNL     1      67.267 118.461 109.925  0.00  0.00    +0.045 C 
ENDROOT
BRANCH  10   9
ATOM      4  C   UNL     1      61.733 117.972 110.901  0.00  0.00    +0.077 A 
ATOM      5  C   UNL     1      61.354 118.820 109.808  0.00  0.00    +0.048 A 
ATOM      6  C   UNL     1      62.269 119.823 109.418  0.00  0.00    +0.116 A 
ATOM      7  N   UNL     1      63.471 119.958 110.079  0.00  0.00    -0.223 NA
ATOM      8  C   UNL     1      63.805 119.124 111.130  0.00  0.00    +0.220 A 
ATOM      9  N   UNL     1      65.012 119.237 111.803  0.00  0.00    -0.283 N 
ATOM     36  H   UNL     1      65.218 118.607 112.578  0.00  0.00    +0.155 HD
ATOM     37  N   UNL     1      62.948 118.160 111.522  0.00  0.00    -0.214 NA
BRANCH   4   3
ATOM      1  C   UNL     1      60.395 114.976 113.031  0.00  0.00    +0.020 A 
ATOM      2  C   UNL     1      61.261 116.033 112.561  0.00  0.00    +0.013 A 
ATOM      3  C   UNL     1      60.875 116.864 111.428  0.00  0.00    +0.019 A 
ATOM     38  C   UNL     1      59.595 116.598 110.787  0.00  0.00    +0.120 A 
ATOM     39  N   UNL     1      58.783 115.572 111.260  0.00  0.00    -0.263 NA
ATOM     40  C   UNL     1      59.145 114.765 112.349  0.00  0.00    +0.111 A 
ENDBRANCH   4   3
ENDBRANCH  10   9
BRANCH  12  13
ATOM     13  N   UNL     1      66.683 123.914 112.097  0.00  0.00    -0.281 N 
ATOM     14  C   UNL     1      66.806 124.345 113.408  0.00  0.00    +0.248 C 
ATOM     30  O   UNL     1      66.791 123.607 114.382  0.00  0.00    -0.270 OA
ATOM     31  H   UNL     1      66.515 124.641 111.401  0.00  0.00    +0.155 HD
BRANCH  14  15
ATOM     15  C   UNL     1      66.953 125.808 113.677  0.00  0.00    +0.037 A 
ATOM     16  C   UNL     1      67.021 126.779 112.581  0.00  0.00    +0.013 A 
ATOM     17  C   UNL     1      67.180 128.182 112.868  0.00  0.00    +0.005 A 
ATOM     18  C   UNL     1      67.270 128.624 114.257  0.00  0.00    -0.033 A 
ATOM     28  C   UNL     1      67.195 127.640 115.325  0.00  0.00    +0.005 A 
ATOM     29  C   UNL     1      67.040 126.263 115.048  0.00  0.00    +0.013 A 
BRANCH  18  19
ATOM     19  C   UNL     1      67.462 130.099 114.655  0.00  0.00    +0.119 C 
BRANCH  19  20
ATOM     20  N   UNL     1      68.783 130.725 114.347  0.00  0.00    -0.302 NA
ATOM     21  C   UNL     1      69.936 129.727 114.483  0.00  0.00    +0.066 C 
ATOM     22  C   UNL     1      71.308 130.392 114.135  0.00  0.00    -0.064 C 
ATOM     23  N   UNL     1      71.529 131.603 115.044  0.00  0.00    +0.379 N 
ATOM     24  C   UNL     1      72.844 132.196 114.759  0.00  0.00    -0.096 C 
ATOM     25  H   UNL     1      71.544 131.237 116.097  0.00  0.00    -0.082 HD
ATOM     26  C   UNL     1      70.385 132.599 114.917  0.00  0.00    -0.064 C 
ATOM     27  C   UNL     1      69.024 131.920 115.236  0.00  0.00    +0.066 C 
ENDBRANCH  19  20
ENDBRANCH  18  19
ENDBRANCH  14  15
ENDBRANCH  12  13
TORSDOF 6
ENDMDL
