MODEL 1
REMARK VINA RESULT:     -10.6      0.000      0.000
REMARK  Name = C:\Users\Docking\Desktop\test protocol\1iep_ligandH.pdb
REMARK  8 active torsions:
REMARK  status: ('A' for Active; 'I' for Inactive)
REMARK    1  A    between atoms: _5  and  _11
REMARK    2  A    between atoms: _19  and  _21
REMARK    3  A    between atoms: _22  and  _66
REMARK    4  A    between atoms: _27  and  _30
REMARK    5  A    between atoms: _32  and  _33
REMARK    6  A    between atoms: _38  and  _43
REMARK    7  A    between atoms: _43  and  _46
REMARK    8  A    between atoms: _53  and  _55
REMARK                            x       y       z     vdW  Elec       q    Type
REMARK                         _______ _______ _______ _____ _____    ______ ____
ROOT
ATOM     10  C   UNL     1     -38.230 -31.756  -6.131  0.00  0.00    +0.038 A 
ATOM     11  C   UNL     1     -39.327 -32.647  -6.258  0.00  0.00    +0.047 A 
ATOM     12  C   UNL     1     -40.555 -32.238  -6.923  0.00  0.00    +0.035 A 
ATOM     32  C   UNL     1     -40.630 -30.916  -7.449  0.00  0.00    +0.024 A 
ATOM     33  C   UNL     1     -39.526 -29.997  -7.328  0.00  0.00    +0.007 A 
ATOM     34  C   UNL     1     -38.313 -30.394  -6.671  0.00  0.00    -0.029 A 
ATOM     35  C   UNL     1     -37.163 -29.365  -6.564  0.00  0.00    +0.045 C 
ENDROOT
BRANCH  10   9
ATOM      4  C   UNL     1     -34.186 -34.336  -5.986  0.00  0.00    +0.077 A 
ATOM      5  C   UNL     1     -34.405 -34.864  -7.302  0.00  0.00    +0.048 A 
ATOM      6  C   UNL     1     -35.575 -34.452  -7.980  0.00  0.00    +0.116 A 
ATOM      7  N   UNL     1     -36.452 -33.577  -7.377  0.00  0.00    -0.223 NA
ATOM      8  C   UNL     1     -36.211 -33.088  -6.106  0.00  0.00    +0.220 A 
ATOM      9  N   UNL     1     -37.076 -32.201  -5.483  0.00  0.00    -0.283 N 
ATOM     36  H   UNL     1     -36.866 -31.869  -4.542  0.00  0.00    +0.155 HD
ATOM     37  N   UNL     1     -35.102 -33.467  -5.437  0.00  0.00    -0.214 NA
BRANCH   4   3
ATOM      1  C   UNL     1     -31.150 -34.069  -3.533  0.00  0.00    +0.020 A 
ATOM      2  C   UNL     1     -32.296 -33.690  -4.328  0.00  0.00    +0.013 A 
ATOM      3  C   UNL     1     -32.994 -34.675  -5.145  0.00  0.00    +0.019 A 
ATOM     38  C   UNL     1     -32.506 -36.045  -5.134  0.00  0.00    +0.120 A 
ATOM     39  N   UNL     1     -31.399 -36.380  -4.359  0.00  0.00    -0.263 NA
ATOM     40  C   UNL     1     -30.718 -35.441  -3.571  0.00  0.00    +0.111 A 
ENDBRANCH   4   3
ENDBRANCH  10   9
BRANCH  12  13
ATOM     13  N   UNL     1     -41.704 -33.096  -7.075  0.00  0.00    -0.281 N 
ATOM     14  C   UNL     1     -42.998 -32.734  -7.412  0.00  0.00    +0.248 C 
ATOM     30  O   UNL     1     -43.413 -31.585  -7.425  0.00  0.00    -0.270 OA
ATOM     31  H   UNL     1     -41.544 -34.091  -6.915  0.00  0.00    +0.155 HD
BRANCH  14  15
ATOM     15  C   UNL     1     -43.976 -33.805  -7.772  0.00  0.00    +0.037 A 
ATOM     16  C   UNL     1     -45.402 -33.667  -7.464  0.00  0.00    +0.013 A 
ATOM     17  C   UNL     1     -46.322 -34.722  -7.807  0.00  0.00    +0.005 A 
ATOM     18  C   UNL     1     -45.818 -35.926  -8.464  0.00  0.00    -0.033 A 
ATOM     28  C   UNL     1     -44.400 -36.035  -8.763  0.00  0.00    +0.005 A 
ATOM     29  C   UNL     1     -43.495 -35.003  -8.427  0.00  0.00    +0.013 A 
BRANCH  18  19
ATOM     19  C   UNL     1     -46.724 -37.111  -8.848  0.00  0.00    +0.119 C 
BRANCH  19  20
ATOM     20  N   UNL     1     -47.704 -37.581  -7.824  0.00  0.00    -0.302 NA
ATOM     21  C   UNL     1     -47.020 -37.978  -6.513  0.00  0.00    +0.066 C 
ATOM     22  C   UNL     1     -48.063 -38.446  -5.446  0.00  0.00    -0.064 C 
ATOM     23  N   UNL     1     -48.875 -39.614  -6.008  0.00  0.00    +0.379 N 
ATOM     24  C   UNL     1     -49.816 -40.094  -4.986  0.00  0.00    -0.096 C 
ATOM     25  H   UNL     1     -48.164 -40.444  -6.230  0.00  0.00    -0.082 HD
ATOM     26  C   UNL     1     -49.556 -39.229  -7.314  0.00  0.00    -0.064 C 
ATOM     27  C   UNL     1     -48.514 -38.738  -8.357  0.00  0.00    +0.066 C 
ENDBRANCH  19  20
ENDBRANCH  18  19
ENDBRANCH  14  15
ENDBRANCH  12  13
TORSDOF 6
ENDMDL
MODEL 2
REMARK VINA RESULT:     -10.6      1.395      1.715
REMARK  Name = C:\Users\Docking\Desktop\test protocol\1iep_ligandH.pdb
REMARK  8 active torsions:
REMARK  status: ('A' for Active; 'I' for Inactive)
REMARK    1  A    between atoms: _5  and  _11
REMARK    2  A    between atoms: _19  and  _21
REMARK    3  A    between atoms: _22  and  _66
REMARK    4  A    between atoms: _27  and  _30
REMARK    5  A    between atoms: _32  and  _33
REMARK    6  A    between atoms: _38  and  _43
REMARK    7  A    between atoms: _43  and  _46
REMARK    8  A    between atoms: _53  and  _55
REMARK                            x       y       z     vdW  Elec       q    Type
REMARK                         _______ _______ _______ _____ _____    ______ ____
ROOT
ATOM     10  C   UNL     1     -38.469 -31.705  -5.802  0.00  0.00    +0.038 A 
ATOM     11  C   UNL     1     -39.556 -32.522  -6.205  0.00  0.00    +0.047 A 
ATOM     12  C   UNL     1     -40.926 -32.173  -5.863  0.00  0.00    +0.035 A 
ATOM     32  C   UNL     1     -41.153 -30.984  -5.112  0.00  0.00    +0.024 A 
ATOM     33  C   UNL     1     -40.060 -30.142  -4.693  0.00  0.00    +0.007 A 
ATOM     34  C   UNL     1     -38.706 -30.482  -5.026  0.00  0.00    -0.029 A 
ATOM     35  C   UNL     1     -37.572 -29.546  -4.546  0.00  0.00    +0.045 C 
ENDROOT
BRANCH  10   9
ATOM      4  C   UNL     1     -34.441 -34.209  -5.064  0.00  0.00    +0.077 A 
ATOM      5  C   UNL     1     -34.950 -34.783  -3.852  0.00  0.00    +0.048 A 
ATOM      6  C   UNL     1     -36.250 -34.403  -3.450  0.00  0.00    +0.116 A 
ATOM      7  N   UNL     1     -36.977 -33.514  -4.211  0.00  0.00    -0.223 NA
ATOM      8  C   UNL     1     -36.456 -32.977  -5.374  0.00  0.00    +0.220 A 
ATOM      9  N   UNL     1     -37.173 -32.087  -6.159  0.00  0.00    -0.283 N 
ATOM     36  H   UNL     1     -36.751 -31.708  -7.005  0.00  0.00    +0.155 HD
ATOM     37  N   UNL     1     -35.217 -33.323  -5.779  0.00  0.00    -0.214 NA
BRANCH   4   3
ATOM      1  C   UNL     1     -30.724 -35.378  -5.414  0.00  0.00    +0.020 A 
ATOM      2  C   UNL     1     -32.015 -35.102  -4.826  0.00  0.00    +0.013 A 
ATOM      3  C   UNL     1     -33.086 -34.515  -5.622  0.00  0.00    +0.019 A 
ATOM     38  C   UNL     1     -32.815 -34.217  -7.021  0.00  0.00    +0.120 A 
ATOM     39  N   UNL     1     -31.562 -34.492  -7.559  0.00  0.00    -0.263 NA
ATOM     40  C   UNL     1     -30.524 -35.056  -6.802  0.00  0.00    +0.111 A 
ENDBRANCH   4   3
ENDBRANCH  10   9
BRANCH  12  13
ATOM     13  N   UNL     1     -42.069 -32.968  -6.237  0.00  0.00    -0.281 N 
ATOM     14  C   UNL     1     -43.073 -32.647  -7.136  0.00  0.00    +0.248 C 
ATOM     30  O   UNL     1     -43.254 -31.531  -7.599  0.00  0.00    -0.270 OA
ATOM     31  H   UNL     1     -42.149 -33.879  -5.783  0.00  0.00    +0.155 HD
BRANCH  14  15
ATOM     15  C   UNL     1     -44.020 -33.717  -7.574  0.00  0.00    +0.037 A 
ATOM     16  C   UNL     1     -45.439 -33.669  -7.212  0.00  0.00    +0.013 A 
ATOM     17  C   UNL     1     -46.328 -34.723  -7.633  0.00  0.00    +0.005 A 
ATOM     18  C   UNL     1     -45.800 -35.834  -8.422  0.00  0.00    -0.033 A 
ATOM     28  C   UNL     1     -44.389 -35.853  -8.771  0.00  0.00    +0.005 A 
ATOM     29  C   UNL     1     -43.515 -34.822  -8.359  0.00  0.00    +0.013 A 
BRANCH  18  19
ATOM     19  C   UNL     1     -46.672 -37.012  -8.896  0.00  0.00    +0.119 C 
BRANCH  19  20
ATOM     20  N   UNL     1     -47.694 -37.534  -7.940  0.00  0.00    -0.302 NA
ATOM     21  C   UNL     1     -47.053 -38.130  -6.683  0.00  0.00    +0.066 C 
ATOM     22  C   UNL     1     -48.138 -38.651  -5.684  0.00  0.00    -0.064 C 
ATOM     23  N   UNL     1     -49.018 -39.686  -6.387  0.00  0.00    +0.379 N 
ATOM     24  C   UNL     1     -50.002 -40.221  -5.434  0.00  0.00    -0.096 C 
ATOM     25  H   UNL     1     -48.361 -40.529  -6.703  0.00  0.00    -0.082 HD
ATOM     26  C   UNL     1     -49.656 -39.103  -7.639  0.00  0.00    -0.064 C 
ATOM     27  C   UNL     1     -48.572 -38.561  -8.612  0.00  0.00    +0.066 C 
ENDBRANCH  19  20
ENDBRANCH  18  19
ENDBRANCH  14  15
ENDBRANCH  12  13
TORSDOF 6
ENDMDL
MODEL 3
REMARK VINA RESULT:     -10.1      1.750      2.709
REMARK  Name = C:\Users\Docking\Desktop\test protocol\1iep_ligandH.pdb
REMARK  8 active torsions:
REMARK  status: ('A' for Active; 'I' for Inactive)
REMARK    1  A    between atoms: _5  and  _11
REMARK    2  A    between atoms: _19  and  _21
REMARK    3  A    between atoms: _22  and  _66
REMARK    4  A    between atoms: _27  and  _30
REMARK    5  A    between atoms: _32  and  _33
REMARK    6  A    between atoms: _38  and  _43
REMARK    7  A    between atoms: _43  and  _46
REMARK    8  A    between atoms: _53  and  _55
REMARK                            x       y       z     vdW  Elec       q    Type
REMARK                         _______ _______ _______ _____ _____    ______ ____
ROOT
ATOM     10  C   UNL     1     -39.958 -31.995  -7.323  0.00  0.00    +0.038 A 
ATOM     11  C   UNL     1     -40.957 -33.002  -7.325  0.00  0.00    +0.047 A 
ATOM     12  C   UNL     1     -42.367 -32.663  -7.219  0.00  0.00    +0.035 A 
ATOM     32  C   UNL     1     -42.725 -31.287  -7.115  0.00  0.00    +0.024 A 
ATOM     33  C   UNL     1     -41.723 -30.250  -7.110  0.00  0.00    +0.007 A 
ATOM     34  C   UNL     1     -40.330 -30.579  -7.212  0.00  0.00    -0.029 A 
ATOM     35  C   UNL     1     -39.298 -29.427  -7.195  0.00  0.00    +0.045 C 
ENDROOT
BRANCH  10   9
ATOM      4  C   UNL     1     -35.815 -33.469  -5.400  0.00  0.00    +0.077 A 
ATOM      5  C   UNL     1     -36.357 -33.451  -4.071  0.00  0.00    +0.048 A 
ATOM      6  C   UNL     1     -37.703 -33.049  -3.925  0.00  0.00    +0.116 A 
ATOM      7  N   UNL     1     -38.444 -32.695  -5.032  0.00  0.00    -0.223 NA
ATOM      8  C   UNL     1     -37.890 -32.722  -6.299  0.00  0.00    +0.220 A 
ATOM      9  N   UNL     1     -38.619 -32.377  -7.427  0.00  0.00    -0.283 N 
ATOM     36  H   UNL     1     -38.172 -32.403  -8.343  0.00  0.00    +0.155 HD
ATOM     37  N   UNL     1     -36.606 -33.100  -6.465  0.00  0.00    -0.214 NA
BRANCH   4   3
ATOM      1  C   UNL     1     -31.977 -34.171  -5.113  0.00  0.00    +0.020 A 
ATOM      2  C   UNL     1     -33.318 -33.766  -4.756  0.00  0.00    +0.013 A 
ATOM      3  C   UNL     1     -34.409 -33.874  -5.717  0.00  0.00    +0.019 A 
ATOM     38  C   UNL     1     -34.108 -34.400  -7.039  0.00  0.00    +0.120 A 
ATOM     39  N   UNL     1     -32.807 -34.781  -7.355  0.00  0.00    -0.263 NA
ATOM     40  C   UNL     1     -31.749 -34.680  -6.439  0.00  0.00    +0.111 A 
ENDBRANCH   4   3
ENDBRANCH  10   9
BRANCH  12  13
ATOM     13  N   UNL     1     -43.425 -33.642  -7.207  0.00  0.00    -0.281 N 
ATOM     14  C   UNL     1     -43.557 -34.763  -8.011  0.00  0.00    +0.248 C 
ATOM     30  O   UNL     1     -42.891 -34.977  -9.012  0.00  0.00    -0.270 OA
ATOM     31  H   UNL     1     -44.167 -33.491  -6.523  0.00  0.00    +0.155 HD
BRANCH  14  15
ATOM     15  C   UNL     1     -44.589 -35.786  -7.660  0.00  0.00    +0.037 A 
ATOM     16  C   UNL     1     -45.740 -35.447  -6.819  0.00  0.00    +0.013 A 
ATOM     17  C   UNL     1     -46.711 -36.457  -6.482  0.00  0.00    +0.005 A 
ATOM     18  C   UNL     1     -46.536 -37.817  -6.987  0.00  0.00    -0.033 A 
ATOM     28  C   UNL     1     -45.387 -38.124  -7.823  0.00  0.00    +0.005 A 
ATOM     29  C   UNL     1     -44.433 -37.137  -8.155  0.00  0.00    +0.013 A 
BRANCH  18  19
ATOM     19  C   UNL     1     -47.511 -38.963  -6.660  0.00  0.00    +0.119 C 
BRANCH  19  20
ATOM     20  N   UNL     1     -48.915 -38.827  -7.150  0.00  0.00    -0.302 NA
ATOM     21  C   UNL     1     -49.829 -39.919  -6.587  0.00  0.00    +0.066 C 
ATOM     22  C   UNL     1     -51.298 -39.748  -7.092  0.00  0.00    -0.064 C 
ATOM     23  N   UNL     1     -51.314 -39.765  -8.622  0.00  0.00    +0.379 N 
ATOM     24  C   UNL     1     -52.701 -39.662  -9.099  0.00  0.00    -0.096 C 
ATOM     25  H   UNL     1     -50.914 -40.751  -8.953  0.00  0.00    -0.082 HD
ATOM     26  C   UNL     1     -50.406 -38.683  -9.190  0.00  0.00    -0.064 C 
ATOM     27  C   UNL     1     -48.955 -38.844  -8.658  0.00  0.00    +0.066 C 
ENDBRANCH  19  20
ENDBRANCH  18  19
ENDBRANCH  14  15
ENDBRANCH  12  13
TORSDOF 6
ENDMDL
MODEL 4
REMARK VINA RESULT:      -9.8      1.626      2.440
REMARK  Name = C:\Users\Docking\Desktop\test protocol\1iep_ligandH.pdb
REMARK  8 active torsions:
REMARK  status: ('A' for Active; 'I' for Inactive)
REMARK    1  A    between atoms: _5  and  _11
REMARK    2  A    between atoms: _19  and  _21
REMARK    3  A    between atoms: _22  and  _66
REMARK    4  A    between atoms: _27  and  _30
REMARK    5  A    between atoms: _32  and  _33
REMARK    6  A    between atoms: _38  and  _43
REMARK    7  A    between atoms: _43  and  _46
REMARK    8  A    between atoms: _53  and  _55
REMARK                            x       y       z     vdW  Elec       q    Type
REMARK                         _______ _______ _______ _____ _____    ______ ____
ROOT
ATOM     10  C   UNL     1     -38.853 -30.933  -6.979  0.00  0.00    +0.038 A 
ATOM     11  C   UNL     1     -39.924 -31.850  -7.129  0.00  0.00    +0.047 A 
ATOM     12  C   UNL     1     -41.293 -31.388  -7.295  0.00  0.00    +0.035 A 
ATOM     32  C   UNL     1     -41.535 -29.983  -7.306  0.00  0.00    +0.024 A 
ATOM     33  C   UNL     1     -40.458 -29.036  -7.155  0.00  0.00    +0.007 A 
ATOM     34  C   UNL     1     -39.106 -29.487  -6.988  0.00  0.00    -0.029 A 
ATOM     35  C   UNL     1     -37.992 -28.427  -6.824  0.00  0.00    +0.045 C 
ENDROOT
BRANCH  10   9
ATOM      4  C   UNL     1     -35.561 -33.492  -4.603  0.00  0.00    +0.077 A 
ATOM      5  C   UNL     1     -36.493 -33.843  -3.571  0.00  0.00    +0.048 A 
ATOM      6  C   UNL     1     -37.807 -33.338  -3.685  0.00  0.00    +0.116 A 
ATOM      7  N   UNL     1     -38.153 -32.543  -4.756  0.00  0.00    -0.223 NA
ATOM      8  C   UNL     1     -37.229 -32.223  -5.734  0.00  0.00    +0.220 A 
ATOM      9  N   UNL     1     -37.558 -31.432  -6.824  0.00  0.00    -0.283 N 
ATOM     36  H   UNL     1     -36.845 -31.212  -7.520  0.00  0.00    +0.155 HD
ATOM     37  N   UNL     1     -35.967 -32.691  -5.647  0.00  0.00    -0.214 NA
BRANCH   4   3
ATOM      1  C   UNL     1     -31.660 -33.574  -4.317  0.00  0.00    +0.020 A 
ATOM      2  C   UNL     1     -33.018 -33.081  -4.280  0.00  0.00    +0.013 A 
ATOM      3  C   UNL     1     -34.135 -33.951  -4.625  0.00  0.00    +0.019 A 
ATOM     38  C   UNL     1     -33.843 -35.325  -5.006  0.00  0.00    +0.120 A 
ATOM     39  N   UNL     1     -32.525 -35.771  -5.034  0.00  0.00    -0.263 NA
ATOM     40  C   UNL     1     -31.441 -34.942  -4.705  0.00  0.00    +0.111 A 
ENDBRANCH   4   3
ENDBRANCH  10   9
BRANCH  12  13
ATOM     13  N   UNL     1     -42.422 -32.272  -7.443  0.00  0.00    -0.281 N 
ATOM     14  C   UNL     1     -42.463 -33.503  -8.078  0.00  0.00    +0.248 C 
ATOM     30  O   UNL     1     -41.580 -33.935  -8.804  0.00  0.00    -0.270 OA
ATOM     31  H   UNL     1     -43.298 -31.952  -7.029  0.00  0.00    +0.155 HD
BRANCH  14  15
ATOM     15  C   UNL     1     -43.663 -34.373  -7.890  0.00  0.00    +0.037 A 
ATOM     16  C   UNL     1     -44.989 -33.797  -7.648  0.00  0.00    +0.013 A 
ATOM     17  C   UNL     1     -46.127 -34.660  -7.453  0.00  0.00    +0.005 A 
ATOM     18  C   UNL     1     -45.944 -36.109  -7.502  0.00  0.00    -0.033 A 
ATOM     28  C   UNL     1     -44.619 -36.653  -7.749  0.00  0.00    +0.005 A 
ATOM     29  C   UNL     1     -43.501 -35.810  -7.939  0.00  0.00    +0.013 A 
BRANCH  18  19
ATOM     19  C   UNL     1     -47.099 -37.105  -7.284  0.00  0.00    +0.119 C 
BRANCH  19  20
ATOM     20  N   UNL     1     -47.404 -38.051  -8.398  0.00  0.00    -0.302 NA
ATOM     21  C   UNL     1     -47.523 -37.334  -9.746  0.00  0.00    +0.066 C 
ATOM     22  C   UNL     1     -47.821 -38.342 -10.903  0.00  0.00    -0.064 C 
ATOM     23  N   UNL     1     -49.102 -39.114 -10.586  0.00  0.00    +0.379 N 
ATOM     24  C   UNL     1     -49.416 -40.021 -11.700  0.00  0.00    -0.096 C 
ATOM     25  H   UNL     1     -49.932 -38.374 -10.508  0.00  0.00    -0.082 HD
ATOM     26  C   UNL     1     -48.994 -39.829  -9.247  0.00  0.00    -0.064 C 
ATOM     27  C   UNL     1     -48.669 -38.822  -8.108  0.00  0.00    +0.066 C 
ENDBRANCH  19  20
ENDBRANCH  18  19
ENDBRANCH  14  15
ENDBRANCH  12  13
TORSDOF 6
ENDMDL
MODEL 5
REMARK VINA RESULT:      -9.5      2.237      3.456
REMARK  Name = C:\Users\Docking\Desktop\test protocol\1iep_ligandH.pdb
REMARK  8 active torsions:
REMARK  status: ('A' for Active; 'I' for Inactive)
REMARK    1  A    between atoms: _5  and  _11
REMARK    2  A    between atoms: _19  and  _21
REMARK    3  A    between atoms: _22  and  _66
REMARK    4  A    between atoms: _27  and  _30
REMARK    5  A    between atoms: _32  and  _33
REMARK    6  A    between atoms: _38  and  _43
REMARK    7  A    between atoms: _43  and  _46
REMARK    8  A    between atoms: _53  and  _55
REMARK                            x       y       z     vdW  Elec       q    Type
REMARK                         _______ _______ _______ _____ _____    ______ ____
ROOT
ATOM     10  C   UNL     1     -41.145 -32.758  -6.340  0.00  0.00    +0.038 A 
ATOM     11  C   UNL     1     -41.962 -33.911  -6.465  0.00  0.00    +0.047 A 
ATOM     12  C   UNL     1     -43.328 -33.815  -6.955  0.00  0.00    +0.035 A 
ATOM     32  C   UNL     1     -43.829 -32.529  -7.312  0.00  0.00    +0.024 A 
ATOM     33  C   UNL     1     -43.013 -31.347  -7.190  0.00  0.00    +0.007 A 
ATOM     34  C   UNL     1     -41.666 -31.435  -6.704  0.00  0.00    -0.029 A 
ATOM     35  C   UNL     1     -40.838 -30.134  -6.588  0.00  0.00    +0.045 C 
ENDROOT
BRANCH  10   9
ATOM      4  C   UNL     1     -36.504 -33.806  -6.969  0.00  0.00    +0.077 A 
ATOM      5  C   UNL     1     -36.699 -34.106  -8.358  0.00  0.00    +0.048 A 
ATOM      6  C   UNL     1     -38.010 -33.986  -8.870  0.00  0.00    +0.116 A 
ATOM      7  N   UNL     1     -39.042 -33.593  -8.045  0.00  0.00    -0.223 NA
ATOM      8  C   UNL     1     -38.819 -33.312  -6.709  0.00  0.00    +0.220 A 
ATOM      9  N   UNL     1     -39.841 -32.908  -5.863  0.00  0.00    -0.283 N 
ATOM     36  H   UNL     1     -39.637 -32.718  -4.882  0.00  0.00    +0.155 HD
ATOM     37  N   UNL     1     -37.576 -33.422  -6.196  0.00  0.00    -0.214 NA
BRANCH   4   3
ATOM      1  C   UNL     1     -33.617 -33.376  -4.364  0.00  0.00    +0.020 A 
ATOM      2  C   UNL     1     -34.917 -33.271  -4.985  0.00  0.00    +0.013 A 
ATOM      3  C   UNL     1     -35.176 -33.884  -6.282  0.00  0.00    +0.019 A 
ATOM     38  C   UNL     1     -34.088 -34.603  -6.929  0.00  0.00    +0.120 A 
ATOM     39  N   UNL     1     -32.846 -34.686  -6.308  0.00  0.00    -0.263 NA
ATOM     40  C   UNL     1     -32.585 -34.098  -5.061  0.00  0.00    +0.111 A 
ENDBRANCH   4   3
ENDBRANCH  10   9
BRANCH  12  13
ATOM     13  N   UNL     1     -44.207 -34.949  -7.096  0.00  0.00    -0.281 N 
ATOM     14  C   UNL     1     -45.512 -35.076  -6.648  0.00  0.00    +0.248 C 
ATOM     30  O   UNL     1     -46.053 -34.307  -5.868  0.00  0.00    -0.270 OA
ATOM     31  H   UNL     1     -43.821 -35.757  -7.584  0.00  0.00    +0.155 HD
BRANCH  14  15
ATOM     15  C   UNL     1     -46.330 -36.232  -7.126  0.00  0.00    +0.037 A 
ATOM     16  C   UNL     1     -46.509 -36.497  -8.556  0.00  0.00    +0.013 A 
ATOM     17  C   UNL     1     -47.317 -37.609  -8.990  0.00  0.00    +0.005 A 
ATOM     18  C   UNL     1     -47.952 -38.466  -7.992  0.00  0.00    -0.033 A 
ATOM     28  C   UNL     1     -47.754 -38.183  -6.580  0.00  0.00    +0.005 A 
ATOM     29  C   UNL     1     -46.963 -37.094  -6.151  0.00  0.00    +0.013 A 
BRANCH  18  19
ATOM     19  C   UNL     1     -48.849 -39.661  -8.364  0.00  0.00    +0.119 C 
BRANCH  19  20
ATOM     20  N   UNL     1     -48.324 -41.028  -8.068  0.00  0.00    -0.302 NA
ATOM     21  C   UNL     1     -49.014 -41.657  -6.854  0.00  0.00    +0.066 C 
ATOM     22  C   UNL     1     -48.469 -43.095  -6.572  0.00  0.00    -0.064 C 
ATOM     23  N   UNL     1     -46.955 -43.031  -6.362  0.00  0.00    +0.379 N 
ATOM     24  C   UNL     1     -46.448 -44.373  -6.039  0.00  0.00    -0.096 C 
ATOM     25  H   UNL     1     -46.763 -42.376  -5.481  0.00  0.00    -0.082 HD
ATOM     26  C   UNL     1     -46.261 -42.404  -7.563  0.00  0.00    -0.064 C 
ATOM     27  C   UNL     1     -46.831 -40.988  -7.853  0.00  0.00    +0.066 C 
ENDBRANCH  19  20
ENDBRANCH  18  19
ENDBRANCH  14  15
ENDBRANCH  12  13
TORSDOF 6
ENDMDL
