MODEL 1
REMARK VINA RESULT:     -10.0      0.000      0.000
REMARK  Name = C:\Users\Docking\Desktop\test protocol\1iep_ligandH.pdb
REMARK  8 active torsions:
REMARK  status: ('A' for Active; 'I' for Inactive)
REMARK    1  A    between atoms: _5  and  _11
REMARK    2  A    between atoms: _19  and  _21
REMARK    3  A    between atoms: _22  and  _66
REMARK    4  A    between atoms: _27  and  _30
REMARK    5  A    between atoms: _32  and  _33
REMARK    6  A    between atoms: _38  and  _43
REMARK    7  A    between atoms: _43  and  _46
REMARK    8  A    between atoms: _53  and  _55
REMARK                            x       y       z     vdW  Elec       q    Type
REMARK                         _______ _______ _______ _____ _____    ______ ____
ROOT
ATOM     10  C   UNL     1      78.261 137.090 124.856  0.00  0.00    +0.038 A 
ATOM     11  C   UNL     1      78.987 136.390 123.859  0.00  0.00    +0.047 A 
ATOM     12  C   UNL     1      80.391 136.058 124.044  0.00  0.00    +0.035 A 
ATOM     32  C   UNL     1      81.024 136.453 125.259  0.00  0.00    +0.024 A 
ATOM     33  C   UNL     1      80.301 137.167 126.282  0.00  0.00    +0.007 A 
ATOM     34  C   UNL     1      78.917 137.499 126.104  0.00  0.00    -0.029 A 
ATOM     35  C   UNL     1      78.193 138.271 127.232  0.00  0.00    +0.045 C 
ENDROOT
BRANCH  10   9
ATOM      4  C   UNL     1      73.591 136.014 125.118  0.00  0.00    +0.077 A 
ATOM      5  C   UNL     1      73.857 134.750 125.743  0.00  0.00    +0.048 A 
ATOM      6  C   UNL     1      75.209 134.411 125.973  0.00  0.00    +0.116 A 
ATOM      7  N   UNL     1      76.212 135.280 125.602  0.00  0.00    -0.223 NA
ATOM      8  C   UNL     1      75.922 136.490 125.000  0.00  0.00    +0.220 A 
ATOM      9  N   UNL     1      76.914 137.383 124.626  0.00  0.00    -0.283 N 
ATOM     36  H   UNL     1      76.659 138.262 124.177  0.00  0.00    +0.155 HD
ATOM     37  N   UNL     1      74.638 136.836 124.768  0.00  0.00    -0.214 NA
BRANCH   4   3
ATOM      1  C   UNL     1      69.803 136.168 124.152  0.00  0.00    +0.020 A 
ATOM      2  C   UNL     1      71.115 135.633 124.437  0.00  0.00    +0.013 A 
ATOM      3  C   UNL     1      72.213 136.514 124.812  0.00  0.00    +0.019 A 
ATOM     38  C   UNL     1      71.949 137.943 124.892  0.00  0.00    +0.120 A 
ATOM     39  N   UNL     1      70.676 138.429 124.611  0.00  0.00    -0.263 NA
ATOM     40  C   UNL     1      69.612 137.591 124.247  0.00  0.00    +0.111 A 
ENDBRANCH   4   3
ENDBRANCH  10   9
BRANCH  12  13
ATOM     13  N   UNL     1      81.181 135.355 123.064  0.00  0.00    -0.281 N 
ATOM     14  C   UNL     1      82.048 135.892 122.126  0.00  0.00    +0.248 C 
ATOM     30  O   UNL     1      82.112 137.079 121.844  0.00  0.00    -0.270 OA
ATOM     31  H   UNL     1      81.091 134.339 123.062  0.00  0.00    +0.155 HD
BRANCH  14  15
ATOM     15  C   UNL     1      82.965 134.975 121.382  0.00  0.00    +0.037 A 
ATOM     16  C   UNL     1      84.104 135.493 120.621  0.00  0.00    +0.013 A 
ATOM     17  C   UNL     1      84.963 134.588 119.899  0.00  0.00    +0.005 A 
ATOM     18  C   UNL     1      84.686 133.154 119.937  0.00  0.00    -0.033 A 
ATOM     28  C   UNL     1      83.551 132.667 120.704  0.00  0.00    +0.005 A 
ATOM     29  C   UNL     1      82.707 133.551 121.412  0.00  0.00    +0.013 A 
BRANCH  18  19
ATOM     19  C   UNL     1      85.536 132.117 119.179  0.00  0.00    +0.119 C 
BRANCH  19  20
ATOM     20  N   UNL     1      85.078 131.723 117.813  0.00  0.00    -0.302 NA
ATOM     21  C   UNL     1      84.649 132.934 116.980  0.00  0.00    +0.066 C 
ATOM     22  C   UNL     1      84.194 132.506 115.547  0.00  0.00    -0.064 C 
ATOM     23  N   UNL     1      83.053 131.493 115.658  0.00  0.00    +0.379 N 
ATOM     24  C   UNL     1      82.584 131.132 114.312  0.00  0.00    -0.096 C 
ATOM     25  H   UNL     1      82.209 131.992 116.188  0.00  0.00    -0.082 HD
ATOM     26  C   UNL     1      83.471 130.287 116.488  0.00  0.00    -0.064 C 
ATOM     27  C   UNL     1      83.949 130.726 117.900  0.00  0.00    +0.066 C 
ENDBRANCH  19  20
ENDBRANCH  18  19
ENDBRANCH  14  15
ENDBRANCH  12  13
TORSDOF 6
ENDMDL
MODEL 2
REMARK VINA RESULT:     -10.0      5.706     12.661
REMARK  Name = C:\Users\Docking\Desktop\test protocol\1iep_ligandH.pdb
REMARK  8 active torsions:
REMARK  status: ('A' for Active; 'I' for Inactive)
REMARK    1  A    between atoms: _5  and  _11
REMARK    2  A    between atoms: _19  and  _21
REMARK    3  A    between atoms: _22  and  _66
REMARK    4  A    between atoms: _27  and  _30
REMARK    5  A    between atoms: _32  and  _33
REMARK    6  A    between atoms: _38  and  _43
REMARK    7  A    between atoms: _43  and  _46
REMARK    8  A    between atoms: _53  and  _55
REMARK                            x       y       z     vdW  Elec       q    Type
REMARK                         _______ _______ _______ _____ _____    ______ ____
ROOT
ATOM     10  C   UNL     1      72.271 137.893 125.645  0.00  0.00    +0.038 A 
ATOM     11  C   UNL     1      71.372 137.155 124.833  0.00  0.00    +0.047 A 
ATOM     12  C   UNL     1      69.947 137.128 125.121  0.00  0.00    +0.035 A 
ATOM     32  C   UNL     1      69.470 137.867 126.244  0.00  0.00    +0.024 A 
ATOM     33  C   UNL     1      70.370 138.621 127.080  0.00  0.00    +0.007 A 
ATOM     34  C   UNL     1      71.778 138.649 126.802  0.00  0.00    -0.029 A 
ATOM     35  C   UNL     1      72.697 139.470 127.737  0.00  0.00    +0.045 C 
ENDROOT
BRANCH  10   9
ATOM      4  C   UNL     1      76.601 135.821 125.614  0.00  0.00    +0.077 A 
ATOM      5  C   UNL     1      76.121 134.671 126.325  0.00  0.00    +0.048 A 
ATOM      6  C   UNL     1      74.755 134.655 126.686  0.00  0.00    +0.116 A 
ATOM      7  N   UNL     1      73.939 135.715 126.356  0.00  0.00    -0.223 NA
ATOM      8  C   UNL     1      74.434 136.810 125.672  0.00  0.00    +0.220 A 
ATOM      9  N   UNL     1      73.630 137.884 125.322  0.00  0.00    -0.283 N 
ATOM     36  H   UNL     1      74.035 138.676 124.824  0.00  0.00    +0.155 HD
ATOM     37  N   UNL     1      75.735 136.850 125.316  0.00  0.00    -0.214 NA
BRANCH   4   3
ATOM      1  C   UNL     1      79.763 136.434 123.395  0.00  0.00    +0.020 A 
ATOM      2  C   UNL     1      78.378 136.286 123.781  0.00  0.00    +0.013 A 
ATOM      3  C   UNL     1      78.018 135.984 125.160  0.00  0.00    +0.019 A 
ATOM     38  C   UNL     1      79.091 135.837 126.132  0.00  0.00    +0.120 A 
ATOM     39  N   UNL     1      80.415 135.983 125.731  0.00  0.00    -0.263 NA
ATOM     40  C   UNL     1      80.774 136.272 124.406  0.00  0.00    +0.111 A 
ENDBRANCH   4   3
ENDBRANCH  10   9
BRANCH  12  13
ATOM     13  N   UNL     1      68.987 136.391 124.337  0.00  0.00    -0.281 N 
ATOM     14  C   UNL     1      68.298 136.817 123.214  0.00  0.00    +0.248 C 
ATOM     30  O   UNL     1      68.242 137.978 122.836  0.00  0.00    -0.270 OA
ATOM     31  H   UNL     1      68.793 135.439 124.648  0.00  0.00    +0.155 HD
BRANCH  14  15
ATOM     15  C   UNL     1      67.550 135.811 122.401  0.00  0.00    +0.037 A 
ATOM     16  C   UNL     1      67.048 136.136 121.063  0.00  0.00    +0.013 A 
ATOM     17  C   UNL     1      66.314 135.152 120.307  0.00  0.00    +0.005 A 
ATOM     18  C   UNL     1      66.080 133.832 120.887  0.00  0.00    -0.033 A 
ATOM     28  C   UNL     1      66.593 133.535 122.214  0.00  0.00    +0.005 A 
ATOM     29  C   UNL     1      67.312 134.497 122.959  0.00  0.00    +0.013 A 
BRANCH  18  19
ATOM     19  C   UNL     1      65.289 132.728 120.161  0.00  0.00    +0.119 C 
BRANCH  19  20
ATOM     20  N   UNL     1      66.076 131.629 119.525  0.00  0.00    -0.302 NA
ATOM     21  C   UNL     1      66.362 131.908 118.047  0.00  0.00    +0.066 C 
ATOM     22  C   UNL     1      67.205 130.759 117.404  0.00  0.00    -0.064 C 
ATOM     23  N   UNL     1      66.464 129.431 117.571  0.00  0.00    +0.379 N 
ATOM     24  C   UNL     1      67.226 128.358 116.916  0.00  0.00    -0.096 C 
ATOM     25  H   UNL     1      65.486 129.522 117.044  0.00  0.00    -0.082 HD
ATOM     26  C   UNL     1      66.173 129.148 119.038  0.00  0.00    -0.064 C 
ATOM     27  C   UNL     1      65.360 130.309 119.675  0.00  0.00    +0.066 C 
ENDBRANCH  19  20
ENDBRANCH  18  19
ENDBRANCH  14  15
ENDBRANCH  12  13
TORSDOF 6
ENDMDL
MODEL 3
REMARK VINA RESULT:     -10.0     13.181     19.028
REMARK  Name = C:\Users\Docking\Desktop\test protocol\1iep_ligandH.pdb
REMARK  8 active torsions:
REMARK  status: ('A' for Active; 'I' for Inactive)
REMARK    1  A    between atoms: _5  and  _11
REMARK    2  A    between atoms: _19  and  _21
REMARK    3  A    between atoms: _22  and  _66
REMARK    4  A    between atoms: _27  and  _30
REMARK    5  A    between atoms: _32  and  _33
REMARK    6  A    between atoms: _38  and  _43
REMARK    7  A    between atoms: _43  and  _46
REMARK    8  A    between atoms: _53  and  _55
REMARK                            x       y       z     vdW  Elec       q    Type
REMARK                         _______ _______ _______ _____ _____    ______ ____
ROOT
ATOM     10  C   UNL     1      69.397 128.005 112.758  0.00  0.00    +0.038 A 
ATOM     11  C   UNL     1      68.505 128.454 113.766  0.00  0.00    +0.047 A 
ATOM     12  C   UNL     1      68.769 129.672 114.515  0.00  0.00    +0.035 A 
ATOM     32  C   UNL     1      69.949 130.411 114.211  0.00  0.00    +0.024 A 
ATOM     33  C   UNL     1      70.867 129.969 113.191  0.00  0.00    +0.007 A 
ATOM     34  C   UNL     1      70.614 128.766 112.450  0.00  0.00    -0.029 A 
ATOM     35  C   UNL     1      71.636 128.336 111.372  0.00  0.00    +0.045 C 
ENDROOT
BRANCH  10   9
ATOM      4  C   UNL     1      67.307 123.695 112.457  0.00  0.00    +0.077 A 
ATOM      5  C   UNL     1      66.796 123.783 113.795  0.00  0.00    +0.048 A 
ATOM      6  C   UNL     1      67.100 124.952 114.529  0.00  0.00    +0.116 A 
ATOM      7  N   UNL     1      67.858 125.951 113.959  0.00  0.00    -0.223 NA
ATOM      8  C   UNL     1      68.337 125.833 112.667  0.00  0.00    +0.220 A 
ATOM      9  N   UNL     1      69.095 126.828 112.070  0.00  0.00    -0.283 N 
ATOM     36  H   UNL     1      69.436 126.700 111.117  0.00  0.00    +0.155 HD
ATOM     37  N   UNL     1      68.062 124.726 111.945  0.00  0.00    -0.214 NA
BRANCH   4   3
ATOM      1  C   UNL     1      67.448 121.234 109.420  0.00  0.00    +0.020 A 
ATOM      2  C   UNL     1      67.712 122.384 110.254  0.00  0.00    +0.013 A 
ATOM      3  C   UNL     1      67.069 122.525 111.554  0.00  0.00    +0.019 A 
ATOM     38  C   UNL     1      66.157 121.476 111.985  0.00  0.00    +0.120 A 
ATOM     39  N   UNL     1      65.920 120.381 111.160  0.00  0.00    -0.263 NA
ATOM     40  C   UNL     1      66.532 120.235 109.906  0.00  0.00    +0.111 A 
ENDBRANCH   4   3
ENDBRANCH  10   9
BRANCH  12  13
ATOM     13  N   UNL     1      67.904 130.173 115.555  0.00  0.00    -0.281 N 
ATOM     14  C   UNL     1      67.426 129.496 116.665  0.00  0.00    +0.248 C 
ATOM     30  O   UNL     1      67.497 128.286 116.820  0.00  0.00    -0.270 OA
ATOM     31  H   UNL     1      67.608 131.145 115.461  0.00  0.00    +0.155 HD
BRANCH  14  15
ATOM     15  C   UNL     1      66.758 130.273 117.753  0.00  0.00    +0.037 A 
ATOM     16  C   UNL     1      66.566 131.722 117.644  0.00  0.00    +0.013 A 
ATOM     17  C   UNL     1      65.935 132.450 118.716  0.00  0.00    +0.005 A 
ATOM     18  C   UNL     1      65.489 131.730 119.906  0.00  0.00    -0.033 A 
ATOM     28  C   UNL     1      65.688 130.292 119.986  0.00  0.00    +0.005 A 
ATOM     29  C   UNL     1      66.307 129.575 118.938  0.00  0.00    +0.013 A 
BRANCH  18  19
ATOM     19  C   UNL     1      64.825 132.429 121.107  0.00  0.00    +0.119 C 
BRANCH  19  20
ATOM     20  N   UNL     1      64.668 133.912 121.034  0.00  0.00    -0.302 NA
ATOM     21  C   UNL     1      65.946 134.646 121.448  0.00  0.00    +0.066 C 
ATOM     22  C   UNL     1      65.772 136.196 121.344  0.00  0.00    -0.064 C 
ATOM     23  N   UNL     1      64.591 136.633 122.212  0.00  0.00    +0.379 N 
ATOM     24  C   UNL     1      64.460 138.097 122.162  0.00  0.00    -0.096 C 
ATOM     25  H   UNL     1      64.822 136.350 123.265  0.00  0.00    -0.082 HD
ATOM     26  C   UNL     1      63.316 135.906 121.809  0.00  0.00    -0.064 C 
ATOM     27  C   UNL     1      63.510 134.366 121.887  0.00  0.00    +0.066 C 
ENDBRANCH  19  20
ENDBRANCH  18  19
ENDBRANCH  14  15
ENDBRANCH  12  13
TORSDOF 6
ENDMDL
MODEL 4
REMARK VINA RESULT:      -9.9      5.492     13.152
REMARK  Name = C:\Users\Docking\Desktop\test protocol\1iep_ligandH.pdb
REMARK  8 active torsions:
REMARK  status: ('A' for Active; 'I' for Inactive)
REMARK    1  A    between atoms: _5  and  _11
REMARK    2  A    between atoms: _19  and  _21
REMARK    3  A    between atoms: _22  and  _66
REMARK    4  A    between atoms: _27  and  _30
REMARK    5  A    between atoms: _32  and  _33
REMARK    6  A    between atoms: _38  and  _43
REMARK    7  A    between atoms: _43  and  _46
REMARK    8  A    between atoms: _53  and  _55
REMARK                            x       y       z     vdW  Elec       q    Type
REMARK                         _______ _______ _______ _____ _____    ______ ____
ROOT
ATOM     10  C   UNL     1      72.915 138.298 125.920  0.00  0.00    +0.038 A 
ATOM     11  C   UNL     1      71.919 137.705 125.104  0.00  0.00    +0.047 A 
ATOM     12  C   UNL     1      70.516 137.731 125.490  0.00  0.00    +0.035 A 
ATOM     32  C   UNL     1      70.164 138.372 126.713  0.00  0.00    +0.024 A 
ATOM     33  C   UNL     1      71.165 138.979 127.555  0.00  0.00    +0.007 A 
ATOM     34  C   UNL     1      72.550 138.955 127.181  0.00  0.00    -0.029 A 
ATOM     35  C   UNL     1      73.580 139.616 128.125  0.00  0.00    +0.045 C 
ENDROOT
BRANCH  10   9
ATOM      4  C   UNL     1      77.130 136.042 125.494  0.00  0.00    +0.077 A 
ATOM      5  C   UNL     1      76.647 134.883 126.189  0.00  0.00    +0.048 A 
ATOM      6  C   UNL     1      75.311 134.911 126.646  0.00  0.00    +0.116 A 
ATOM      7  N   UNL     1      74.525 136.020 126.419  0.00  0.00    -0.223 NA
ATOM      8  C   UNL     1      75.022 137.121 125.747  0.00  0.00    +0.220 A 
ATOM      9  N   UNL     1      74.247 138.244 125.501  0.00  0.00    -0.283 N 
ATOM     36  H   UNL     1      74.653 139.039 125.008  0.00  0.00    +0.155 HD
ATOM     37  N   UNL     1      76.295 137.120 125.301  0.00  0.00    -0.214 NA
BRANCH   4   3
ATOM      1  C   UNL     1      80.159 136.724 123.114  0.00  0.00    +0.020 A 
ATOM      2  C   UNL     1      78.800 136.625 123.594  0.00  0.00    +0.013 A 
ATOM      3  C   UNL     1      78.519 136.162 124.947  0.00  0.00    +0.019 A 
ATOM     38  C   UNL     1      79.645 135.806 125.797  0.00  0.00    +0.120 A 
ATOM     39  N   UNL     1      80.943 135.910 125.308  0.00  0.00    -0.263 NA
ATOM     40  C   UNL     1      81.226 136.352 124.007  0.00  0.00    +0.111 A 
ENDBRANCH   4   3
ENDBRANCH  10   9
BRANCH  12  13
ATOM     13  N   UNL     1      69.461 137.138 124.706  0.00  0.00    -0.281 N 
ATOM     14  C   UNL     1      68.714 137.728 123.700  0.00  0.00    +0.248 C 
ATOM     30  O   UNL     1      68.695 138.927 123.465  0.00  0.00    -0.270 OA
ATOM     31  H   UNL     1      69.238 136.166 124.919  0.00  0.00    +0.155 HD
BRANCH  14  15
ATOM     15  C   UNL     1      67.852 136.862 122.839  0.00  0.00    +0.037 A 
ATOM     16  C   UNL     1      66.587 137.356 122.289  0.00  0.00    +0.013 A 
ATOM     17  C   UNL     1      65.766 136.494 121.476  0.00  0.00    +0.005 A 
ATOM     18  C   UNL     1      66.210 135.129 121.205  0.00  0.00    -0.033 A 
ATOM     28  C   UNL     1      67.472 134.666 121.759  0.00  0.00    +0.005 A 
ATOM     29  C   UNL     1      68.278 135.507 122.558  0.00  0.00    +0.013 A 
BRANCH  18  19
ATOM     19  C   UNL     1      65.388 134.133 120.365  0.00  0.00    +0.119 C 
BRANCH  19  20
ATOM     20  N   UNL     1      65.512 132.685 120.707  0.00  0.00    -0.302 NA
ATOM     21  C   UNL     1      65.081 131.782 119.547  0.00  0.00    +0.066 C 
ATOM     22  C   UNL     1      65.238 130.271 119.914  0.00  0.00    -0.064 C 
ATOM     23  N   UNL     1      64.421 129.966 121.170  0.00  0.00    +0.379 N 
ATOM     24  C   UNL     1      64.520 128.533 121.484  0.00  0.00    -0.096 C 
ATOM     25  H   UNL     1      63.353 130.189 120.942  0.00  0.00    -0.082 HD
ATOM     26  C   UNL     1      64.842 130.861 122.328  0.00  0.00    -0.064 C 
ATOM     27  C   UNL     1      64.709 132.361 121.943  0.00  0.00    +0.066 C 
ENDBRANCH  19  20
ENDBRANCH  18  19
ENDBRANCH  14  15
ENDBRANCH  12  13
TORSDOF 6
ENDMDL
MODEL 5
REMARK VINA RESULT:      -9.4      1.775      2.513
REMARK  Name = C:\Users\Docking\Desktop\test protocol\1iep_ligandH.pdb
REMARK  8 active torsions:
REMARK  status: ('A' for Active; 'I' for Inactive)
REMARK    1  A    between atoms: _5  and  _11
REMARK    2  A    between atoms: _19  and  _21
REMARK    3  A    between atoms: _22  and  _66
REMARK    4  A    between atoms: _27  and  _30
REMARK    5  A    between atoms: _32  and  _33
REMARK    6  A    between atoms: _38  and  _43
REMARK    7  A    between atoms: _43  and  _46
REMARK    8  A    between atoms: _53  and  _55
REMARK                            x       y       z     vdW  Elec       q    Type
REMARK                         _______ _______ _______ _____ _____    ______ ____
ROOT
ATOM     10  C   UNL     1      78.730 137.010 124.345  0.00  0.00    +0.038 A 
ATOM     11  C   UNL     1      79.234 136.180 123.311  0.00  0.00    +0.047 A 
ATOM     12  C   UNL     1      80.619 135.736 123.311  0.00  0.00    +0.035 A 
ATOM     32  C   UNL     1      81.462 136.153 124.382  0.00  0.00    +0.024 A 
ATOM     33  C   UNL     1      80.966 136.997 125.441  0.00  0.00    +0.007 A 
ATOM     34  C   UNL     1      79.601 137.440 125.444  0.00  0.00    -0.029 A 
ATOM     35  C   UNL     1      79.125 138.349 126.602  0.00  0.00    +0.045 C 
ENDROOT
BRANCH  10   9
ATOM      4  C   UNL     1      74.078 136.346 125.323  0.00  0.00    +0.077 A 
ATOM      5  C   UNL     1      74.331 135.088 125.965  0.00  0.00    +0.048 A 
ATOM      6  C   UNL     1      75.672 134.644 126.016  0.00  0.00    +0.116 A 
ATOM      7  N   UNL     1      76.676 135.410 125.463  0.00  0.00    -0.223 NA
ATOM      8  C   UNL     1      76.397 136.617 124.850  0.00  0.00    +0.220 A 
ATOM      9  N   UNL     1      77.391 137.407 124.294  0.00  0.00    -0.283 N 
ATOM     36  H   UNL     1      77.144 138.288 123.844  0.00  0.00    +0.155 HD
ATOM     37  N   UNL     1      75.124 137.062 124.787  0.00  0.00    -0.214 NA
BRANCH   4   3
ATOM      1  C   UNL     1      70.363 136.988 124.278  0.00  0.00    +0.020 A 
ATOM      2  C   UNL     1      71.663 136.364 124.370  0.00  0.00    +0.013 A 
ATOM      3  C   UNL     1      72.714 136.950 125.192  0.00  0.00    +0.019 A 
ATOM     38  C   UNL     1      72.415 138.177 125.914  0.00  0.00    +0.120 A 
ATOM     39  N   UNL     1      71.154 138.756 125.806  0.00  0.00    -0.263 NA
ATOM     40  C   UNL     1      70.135 138.202 125.016  0.00  0.00    +0.111 A 
ENDBRANCH   4   3
ENDBRANCH  10   9
BRANCH  12  13
ATOM     13  N   UNL     1      81.190 134.900 122.284  0.00  0.00    -0.281 N 
ATOM     14  C   UNL     1      82.256 135.187 121.447  0.00  0.00    +0.248 C 
ATOM     30  O   UNL     1      82.747 136.297 121.310  0.00  0.00    -0.270 OA
ATOM     31  H   UNL     1      80.755 133.986 122.159  0.00  0.00    +0.155 HD
BRANCH  14  15
ATOM     15  C   UNL     1      82.853 134.084 120.634  0.00  0.00    +0.037 A 
ATOM     16  C   UNL     1      83.368 132.867 121.267  0.00  0.00    +0.013 A 
ATOM     17  C   UNL     1      83.955 131.826 120.461  0.00  0.00    +0.005 A 
ATOM     18  C   UNL     1      84.028 131.997 119.012  0.00  0.00    -0.033 A 
ATOM     28  C   UNL     1      83.504 133.212 118.410  0.00  0.00    +0.005 A 
ATOM     29  C   UNL     1      82.929 134.235 119.197  0.00  0.00    +0.013 A 
BRANCH  18  19
ATOM     19  C   UNL     1      84.656 130.947 118.076  0.00  0.00    +0.119 C 
BRANCH  19  20
ATOM     20  N   UNL     1      86.074 131.163 117.661  0.00  0.00    -0.302 NA
ATOM     21  C   UNL     1      86.555 130.089 116.681  0.00  0.00    +0.066 C 
ATOM     22  C   UNL     1      88.033 130.342 116.240  0.00  0.00    -0.064 C 
ATOM     23  N   UNL     1      88.932 130.389 117.477  0.00  0.00    +0.379 N 
ATOM     24  C   UNL     1      90.330 130.570 117.061  0.00  0.00    -0.096 C 
ATOM     25  H   UNL     1      88.855 129.401 117.987  0.00  0.00    -0.082 HD
ATOM     26  C   UNL     1      88.458 131.453 118.457  0.00  0.00    -0.064 C 
ATOM     27  C   UNL     1      86.979 131.208 118.867  0.00  0.00    +0.066 C 
ENDBRANCH  19  20
ENDBRANCH  18  19
ENDBRANCH  14  15
ENDBRANCH  12  13
TORSDOF 6
ENDMDL
