MODEL 1
REMARK VINA RESULT:      -8.3      0.000      0.000
REMARK  Name = C:\Users\Docking\Desktop\test protocol\1iep_ligandH.pdb
REMARK  8 active torsions:
REMARK  status: ('A' for Active; 'I' for Inactive)
REMARK    1  A    between atoms: _5  and  _11
REMARK    2  A    between atoms: _19  and  _21
REMARK    3  A    between atoms: _22  and  _66
REMARK    4  A    between atoms: _27  and  _30
REMARK    5  A    between atoms: _32  and  _33
REMARK    6  A    between atoms: _38  and  _43
REMARK    7  A    between atoms: _43  and  _46
REMARK    8  A    between atoms: _53  and  _55
REMARK                            x       y       z     vdW  Elec       q    Type
REMARK                         _______ _______ _______ _____ _____    ______ ____
ROOT
ATOM     10  C   UNL     1      15.249  19.920  -2.195  0.00  0.00    +0.038 A 
ATOM     11  C   UNL     1      14.293  19.255  -1.385  0.00  0.00    +0.047 A 
ATOM     12  C   UNL     1      13.469  18.182  -1.920  0.00  0.00    +0.035 A 
ATOM     32  C   UNL     1      13.648  17.809  -3.284  0.00  0.00    +0.024 A 
ATOM     33  C   UNL     1      14.614  18.474  -4.122  0.00  0.00    +0.007 A 
ATOM     34  C   UNL     1      15.427  19.535  -3.601  0.00  0.00    -0.029 A 
ATOM     35  C   UNL     1      16.443  20.217  -4.547  0.00  0.00    +0.045 C 
ENDROOT
BRANCH  10   9
ATOM      4  C   UNL     1      16.110  24.555  -1.295  0.00  0.00    +0.077 A 
ATOM      5  C   UNL     1      14.955  24.974  -2.036  0.00  0.00    +0.048 A 
ATOM      6  C   UNL     1      14.170  23.966  -2.639  0.00  0.00    +0.116 A 
ATOM      7  N   UNL     1      14.522  22.641  -2.505  0.00  0.00    -0.223 NA
ATOM      8  C   UNL     1      15.644  22.271  -1.785  0.00  0.00    +0.220 A 
ATOM      9  N   UNL     1      16.013  20.943  -1.631  0.00  0.00    -0.283 N 
ATOM     36  H   UNL     1      16.851  20.712  -1.098  0.00  0.00    +0.155 HD
ATOM     37  N   UNL     1      16.411  23.214  -1.201  0.00  0.00    -0.214 NA
BRANCH   4   3
ATOM      1  C   UNL     1      18.402  27.620  -0.487  0.00  0.00    +0.020 A 
ATOM      2  C   UNL     1      17.507  26.740  -1.204  0.00  0.00    +0.013 A 
ATOM      3  C   UNL     1      17.037  25.501  -0.598  0.00  0.00    +0.019 A 
ATOM     38  C   UNL     1      17.494  25.179   0.746  0.00  0.00    +0.120 A 
ATOM     39  N   UNL     1      18.356  26.045   1.411  0.00  0.00    -0.263 NA
ATOM     40  C   UNL     1      18.817  27.239   0.837  0.00  0.00    +0.111 A 
ENDBRANCH   4   3
ENDBRANCH  10   9
BRANCH  12  13
ATOM     13  N   UNL     1      12.477  17.477  -1.147  0.00  0.00    -0.281 N 
ATOM     14  C   UNL     1      12.478  16.143  -0.774  0.00  0.00    +0.248 C 
ATOM     30  O   UNL     1      13.233  15.298  -1.232  0.00  0.00    -0.270 OA
ATOM     31  H   UNL     1      11.676  18.028  -0.838  0.00  0.00    +0.155 HD
BRANCH  14  15
ATOM     15  C   UNL     1      11.488  15.677   0.245  0.00  0.00    +0.037 A 
ATOM     16  C   UNL     1      10.588  16.618   0.915  0.00  0.00    +0.013 A 
ATOM     17  C   UNL     1       9.654  16.145   1.906  0.00  0.00    +0.005 A 
ATOM     18  C   UNL     1       9.616  14.721   2.232  0.00  0.00    -0.033 A 
ATOM     28  C   UNL     1      10.517  13.809   1.547  0.00  0.00    +0.005 A 
ATOM     29  C   UNL     1      11.434  14.269   0.576  0.00  0.00    +0.013 A 
BRANCH  18  19
ATOM     19  C   UNL     1       8.667  14.131   3.291  0.00  0.00    +0.119 C 
BRANCH  19  20
ATOM     20  N   UNL     1       8.459  14.922   4.540  0.00  0.00    -0.302 NA
ATOM     21  C   UNL     1       9.776  15.200   5.270  0.00  0.00    +0.066 C 
ATOM     22  C   UNL     1       9.543  16.048   6.563  0.00  0.00    -0.064 C 
ATOM     23  N   UNL     1       8.559  15.318   7.478  0.00  0.00    +0.379 N 
ATOM     24  C   UNL     1       8.382  16.085   8.720  0.00  0.00    -0.096 C 
ATOM     25  H   UNL     1       9.014  14.336   7.749  0.00  0.00    -0.082 HD
ATOM     26  C   UNL     1       7.248  15.036   6.759  0.00  0.00    -0.064 C 
ATOM     27  C   UNL     1       7.494  14.217   5.461  0.00  0.00    +0.066 C 
ENDBRANCH  19  20
ENDBRANCH  18  19
ENDBRANCH  14  15
ENDBRANCH  12  13
TORSDOF 6
ENDMDL
MODEL 2
REMARK VINA RESULT:      -8.1      3.953     12.811
REMARK  Name = C:\Users\Docking\Desktop\test protocol\1iep_ligandH.pdb
REMARK  8 active torsions:
REMARK  status: ('A' for Active; 'I' for Inactive)
REMARK    1  A    between atoms: _5  and  _11
REMARK    2  A    between atoms: _19  and  _21
REMARK    3  A    between atoms: _22  and  _66
REMARK    4  A    between atoms: _27  and  _30
REMARK    5  A    between atoms: _32  and  _33
REMARK    6  A    between atoms: _38  and  _43
REMARK    7  A    between atoms: _43  and  _46
REMARK    8  A    between atoms: _53  and  _55
REMARK                            x       y       z     vdW  Elec       q    Type
REMARK                         _______ _______ _______ _____ _____    ______ ____
ROOT
ATOM     10  C   UNL     1       8.317  13.832   3.997  0.00  0.00    +0.038 A 
ATOM     11  C   UNL     1       8.995  14.716   3.119  0.00  0.00    +0.047 A 
ATOM     12  C   UNL     1      10.000  14.227   2.188  0.00  0.00    +0.035 A 
ATOM     32  C   UNL     1      10.288  12.831   2.177  0.00  0.00    +0.024 A 
ATOM     33  C   UNL     1       9.609  11.919   3.063  0.00  0.00    +0.007 A 
ATOM     34  C   UNL     1       8.618  12.396   3.985  0.00  0.00    -0.029 A 
ATOM     35  C   UNL     1       7.926  11.374   4.917  0.00  0.00    +0.045 C 
ENDROOT
BRANCH  10   9
ATOM      4  C   UNL     1       7.060  16.004   8.089  0.00  0.00    +0.077 A 
ATOM      5  C   UNL     1       8.421  16.077   8.538  0.00  0.00    +0.048 A 
ATOM      6  C   UNL     1       9.413  15.538   7.689  0.00  0.00    +0.116 A 
ATOM      7  N   UNL     1       9.060  14.971   6.484  0.00  0.00    -0.223 NA
ATOM      8  C   UNL     1       7.738  14.915   6.082  0.00  0.00    +0.220 A 
ATOM      9  N   UNL     1       7.361  14.356   4.871  0.00  0.00    -0.283 N 
ATOM     36  H   UNL     1       6.374  14.328   4.614  0.00  0.00    +0.155 HD
ATOM     37  N   UNL     1       6.771  15.421   6.875  0.00  0.00    -0.214 NA
BRANCH   4   3
ATOM      1  C   UNL     1       4.604  16.846  11.015  0.00  0.00    +0.020 A 
ATOM      2  C   UNL     1       5.744  16.313  10.305  0.00  0.00    +0.013 A 
ATOM      3  C   UNL     1       5.899  16.533   8.873  0.00  0.00    +0.019 A 
ATOM     38  C   UNL     1       4.874  17.302   8.182  0.00  0.00    +0.120 A 
ATOM     39  N   UNL     1       3.787  17.802   8.892  0.00  0.00    -0.263 NA
ATOM     40  C   UNL     1       3.626  17.595  10.270  0.00  0.00    +0.111 A 
ENDBRANCH   4   3
ENDBRANCH  10   9
BRANCH  12  13
ATOM     13  N   UNL     1      10.727  15.077   1.279  0.00  0.00    -0.281 N 
ATOM     14  C   UNL     1      10.273  15.650   0.102  0.00  0.00    +0.248 C 
ATOM     30  O   UNL     1       9.233  15.343  -0.460  0.00  0.00    -0.270 OA
ATOM     31  H   UNL     1      11.694  15.282   1.533  0.00  0.00    +0.155 HD
BRANCH  14  15
ATOM     15  C   UNL     1      11.103  16.707  -0.553  0.00  0.00    +0.037 A 
ATOM     16  C   UNL     1      12.518  16.482  -0.859  0.00  0.00    +0.013 A 
ATOM     17  C   UNL     1      13.299  17.524  -1.476  0.00  0.00    +0.005 A 
ATOM     18  C   UNL     1      12.666  18.802  -1.792  0.00  0.00    -0.033 A 
ATOM     28  C   UNL     1      11.259  18.997  -1.483  0.00  0.00    +0.005 A 
ATOM     29  C   UNL     1      10.490  17.978  -0.878  0.00  0.00    +0.013 A 
BRANCH  18  19
ATOM     19  C   UNL     1      13.428  19.978  -2.431  0.00  0.00    +0.119 C 
BRANCH  19  20
ATOM     20  N   UNL     1      14.346  19.662  -3.566  0.00  0.00    -0.302 NA
ATOM     21  C   UNL     1      15.809  19.591  -3.119  0.00  0.00    +0.066 C 
ATOM     22  C   UNL     1      16.753  19.237  -4.314  0.00  0.00    -0.064 C 
ATOM     23  N   UNL     1      16.575  20.274  -5.425  0.00  0.00    +0.379 N 
ATOM     24  C   UNL     1      17.503  19.977  -6.526  0.00  0.00    -0.096 C 
ATOM     25  H   UNL     1      16.854  21.269  -5.006  0.00  0.00    -0.082 HD
ATOM     26  C   UNL     1      15.123  20.352  -5.874  0.00  0.00    -0.064 C 
ATOM     27  C   UNL     1      14.190  20.675  -4.673  0.00  0.00    +0.066 C 
ENDBRANCH  19  20
ENDBRANCH  18  19
ENDBRANCH  14  15
ENDBRANCH  12  13
TORSDOF 6
ENDMDL
MODEL 3
REMARK VINA RESULT:      -8.0      2.272     12.358
REMARK  Name = C:\Users\Docking\Desktop\test protocol\1iep_ligandH.pdb
REMARK  8 active torsions:
REMARK  status: ('A' for Active; 'I' for Inactive)
REMARK    1  A    between atoms: _5  and  _11
REMARK    2  A    between atoms: _19  and  _21
REMARK    3  A    between atoms: _22  and  _66
REMARK    4  A    between atoms: _27  and  _30
REMARK    5  A    between atoms: _32  and  _33
REMARK    6  A    between atoms: _38  and  _43
REMARK    7  A    between atoms: _43  and  _46
REMARK    8  A    between atoms: _53  and  _55
REMARK                            x       y       z     vdW  Elec       q    Type
REMARK                         _______ _______ _______ _____ _____    ______ ____
ROOT
ATOM     10  C   UNL     1       8.524  13.715   3.727  0.00  0.00    +0.038 A 
ATOM     11  C   UNL     1       9.191  14.547   2.791  0.00  0.00    +0.047 A 
ATOM     12  C   UNL     1      10.210  14.012   1.901  0.00  0.00    +0.035 A 
ATOM     32  C   UNL     1      10.522  12.624   1.988  0.00  0.00    +0.024 A 
ATOM     33  C   UNL     1       9.854  11.764   2.934  0.00  0.00    +0.007 A 
ATOM     34  C   UNL     1       8.851  12.287   3.817  0.00  0.00    -0.029 A 
ATOM     35  C   UNL     1       8.172  11.320   4.815  0.00  0.00    +0.045 C 
ENDROOT
BRANCH  10   9
ATOM      4  C   UNL     1       7.191  15.984   7.741  0.00  0.00    +0.077 A 
ATOM      5  C   UNL     1       8.537  16.020   8.238  0.00  0.00    +0.048 A 
ATOM      6  C   UNL     1       9.541  15.437   7.433  0.00  0.00    +0.116 A 
ATOM      7  N   UNL     1       9.214  14.865   6.223  0.00  0.00    -0.223 NA
ATOM      8  C   UNL     1       7.906  14.845   5.774  0.00  0.00    +0.220 A 
ATOM      9  N   UNL     1       7.555  14.282   4.557  0.00  0.00    -0.283 N 
ATOM     36  H   UNL     1       6.578  14.281   4.265  0.00  0.00    +0.155 HD
ATOM     37  N   UNL     1       6.928  15.394   6.525  0.00  0.00    -0.214 NA
BRANCH   4   3
ATOM      1  C   UNL     1       4.766  17.133  10.587  0.00  0.00    +0.020 A 
ATOM      2  C   UNL     1       5.919  16.563   9.928  0.00  0.00    +0.013 A 
ATOM      3  C   UNL     1       6.020  16.561   8.474  0.00  0.00    +0.019 A 
ATOM     38  C   UNL     1       4.930  17.149   7.710  0.00  0.00    +0.120 A 
ATOM     39  N   UNL     1       3.832  17.689   8.372  0.00  0.00    -0.263 NA
ATOM     40  C   UNL     1       3.723  17.696   9.771  0.00  0.00    +0.111 A 
ENDBRANCH   4   3
ENDBRANCH  10   9
BRANCH  12  13
ATOM     13  N   UNL     1      10.926  14.809   0.936  0.00  0.00    -0.281 N 
ATOM     14  C   UNL     1      10.402  15.585  -0.085  0.00  0.00    +0.248 C 
ATOM     30  O   UNL     1       9.240  15.541  -0.459  0.00  0.00    -0.270 OA
ATOM     31  H   UNL     1      11.943  14.801   1.017  0.00  0.00    +0.155 HD
BRANCH  14  15
ATOM     15  C   UNL     1      11.303  16.536  -0.804  0.00  0.00    +0.037 A 
ATOM     16  C   UNL     1      10.887  17.913  -1.083  0.00  0.00    +0.013 A 
ATOM     17  C   UNL     1      11.769  18.805  -1.794  0.00  0.00    +0.005 A 
ATOM     18  C   UNL     1      13.077  18.323  -2.228  0.00  0.00    -0.033 A 
ATOM     28  C   UNL     1      13.467  16.954  -1.933  0.00  0.00    +0.005 A 
ATOM     29  C   UNL     1      12.605  16.076  -1.238  0.00  0.00    +0.013 A 
BRANCH  18  19
ATOM     19  C   UNL     1      14.074  19.198  -3.010  0.00  0.00    +0.119 C 
BRANCH  19  20
ATOM     20  N   UNL     1      14.129  20.649  -2.662  0.00  0.00    -0.302 NA
ATOM     21  C   UNL     1      14.829  21.475  -3.745  0.00  0.00    +0.066 C 
ATOM     22  C   UNL     1      14.858  22.993  -3.375  0.00  0.00    -0.064 C 
ATOM     23  N   UNL     1      15.552  23.173  -2.024  0.00  0.00    +0.379 N 
ATOM     24  C   UNL     1      15.633  24.604  -1.700  0.00  0.00    -0.096 C 
ATOM     25  H   UNL     1      16.594  22.790  -2.126  0.00  0.00    -0.082 HD
ATOM     26  C   UNL     1      14.864  22.353  -0.941  0.00  0.00    -0.064 C 
ATOM     27  C   UNL     1      14.815  20.850  -1.333  0.00  0.00    +0.066 C 
ENDBRANCH  19  20
ENDBRANCH  18  19
ENDBRANCH  14  15
ENDBRANCH  12  13
TORSDOF 6
ENDMDL
MODEL 4
REMARK VINA RESULT:      -8.0      3.963     12.498
REMARK  Name = C:\Users\Docking\Desktop\test protocol\1iep_ligandH.pdb
REMARK  8 active torsions:
REMARK  status: ('A' for Active; 'I' for Inactive)
REMARK    1  A    between atoms: _5  and  _11
REMARK    2  A    between atoms: _19  and  _21
REMARK    3  A    between atoms: _22  and  _66
REMARK    4  A    between atoms: _27  and  _30
REMARK    5  A    between atoms: _32  and  _33
REMARK    6  A    between atoms: _38  and  _43
REMARK    7  A    between atoms: _43  and  _46
REMARK    8  A    between atoms: _53  and  _55
REMARK                            x       y       z     vdW  Elec       q    Type
REMARK                         _______ _______ _______ _____ _____    ______ ____
ROOT
ATOM     10  C   UNL     1       8.806  17.715   0.670  0.00  0.00    +0.038 A 
ATOM     11  C   UNL     1      10.060  18.192   0.212  0.00  0.00    +0.047 A 
ATOM     12  C   UNL     1      10.366  18.259  -1.209  0.00  0.00    +0.035 A 
ATOM     32  C   UNL     1       9.369  17.834  -2.135  0.00  0.00    +0.024 A 
ATOM     33  C   UNL     1       8.089  17.346  -1.686  0.00  0.00    +0.007 A 
ATOM     34  C   UNL     1       7.783  17.275  -0.286  0.00  0.00    -0.029 A 
ATOM     35  C   UNL     1       6.396  16.737   0.138  0.00  0.00    +0.045 C 
ENDROOT
BRANCH  10   9
ATOM      4  C   UNL     1       8.838  15.454   4.904  0.00  0.00    +0.077 A 
ATOM      5  C   UNL     1       9.352  14.247   4.323  0.00  0.00    +0.048 A 
ATOM      6  C   UNL     1       9.587  14.247   2.930  0.00  0.00    +0.116 A 
ATOM      7  N   UNL     1       9.325  15.376   2.183  0.00  0.00    -0.223 NA
ATOM      8  C   UNL     1       8.829  16.523   2.775  0.00  0.00    +0.220 A 
ATOM      9  N   UNL     1       8.565  17.672   2.046  0.00  0.00    -0.283 N 
ATOM     36  H   UNL     1       8.193  18.495   2.518  0.00  0.00    +0.155 HD
ATOM     37  N   UNL     1       8.594  16.548   4.104  0.00  0.00    -0.214 NA
BRANCH   4   3
ATOM      1  C   UNL     1       9.215  15.618   8.794  0.00  0.00    +0.020 A 
ATOM      2  C   UNL     1       9.554  15.455   7.399  0.00  0.00    +0.013 A 
ATOM      3  C   UNL     1       8.541  15.611   6.363  0.00  0.00    +0.019 A 
ATOM     38  C   UNL     1       7.183  15.934   6.775  0.00  0.00    +0.120 A 
ATOM     39  N   UNL     1       6.886  16.083   8.126  0.00  0.00    -0.263 NA
ATOM     40  C   UNL     1       7.852  15.934   9.132  0.00  0.00    +0.111 A 
ENDBRANCH   4   3
ENDBRANCH  10   9
BRANCH  12  13
ATOM     13  N   UNL     1      11.625  18.726  -1.734  0.00  0.00    -0.281 N 
ATOM     14  C   UNL     1      12.848  18.076  -1.718  0.00  0.00    +0.248 C 
ATOM     30  O   UNL     1      13.092  17.078  -1.057  0.00  0.00    -0.270 OA
ATOM     31  H   UNL     1      11.613  19.649  -2.169  0.00  0.00    +0.155 HD
BRANCH  14  15
ATOM     15  C   UNL     1      13.966  18.622  -2.546  0.00  0.00    +0.037 A 
ATOM     16  C   UNL     1      14.982  19.503  -1.965  0.00  0.00    +0.013 A 
ATOM     17  C   UNL     1      16.041  20.029  -2.790  0.00  0.00    +0.005 A 
ATOM     18  C   UNL     1      16.089  19.674  -4.206  0.00  0.00    -0.033 A 
ATOM     28  C   UNL     1      15.071  18.794  -4.755  0.00  0.00    +0.005 A 
ATOM     29  C   UNL     1      14.032  18.277  -3.950  0.00  0.00    +0.013 A 
BRANCH  18  19
ATOM     19  C   UNL     1      17.170  20.206  -5.165  0.00  0.00    +0.119 C 
BRANCH  19  20
ATOM     20  N   UNL     1      16.774  20.421  -6.589  0.00  0.00    -0.302 NA
ATOM     21  C   UNL     1      17.913  20.090  -7.558  0.00  0.00    +0.066 C 
ATOM     22  C   UNL     1      17.475  20.299  -9.044  0.00  0.00    -0.064 C 
ATOM     23  N   UNL     1      17.003  21.741  -9.236  0.00  0.00    +0.379 N 
ATOM     24  C   UNL     1      16.645  21.957 -10.646  0.00  0.00    -0.096 C 
ATOM     25  H   UNL     1      17.861  22.412  -8.998  0.00  0.00    -0.082 HD
ATOM     26  C   UNL     1      15.872  22.080  -8.275  0.00  0.00    -0.064 C 
ATOM     27  C   UNL     1      16.309  21.841  -6.802  0.00  0.00    +0.066 C 
ENDBRANCH  19  20
ENDBRANCH  18  19
ENDBRANCH  14  15
ENDBRANCH  12  13
TORSDOF 6
ENDMDL
MODEL 5
REMARK VINA RESULT:      -7.7      3.211     12.488
REMARK  Name = C:\Users\Docking\Desktop\test protocol\1iep_ligandH.pdb
REMARK  8 active torsions:
REMARK  status: ('A' for Active; 'I' for Inactive)
REMARK    1  A    between atoms: _5  and  _11
REMARK    2  A    between atoms: _19  and  _21
REMARK    3  A    between atoms: _22  and  _66
REMARK    4  A    between atoms: _27  and  _30
REMARK    5  A    between atoms: _32  and  _33
REMARK    6  A    between atoms: _38  and  _43
REMARK    7  A    between atoms: _43  and  _46
REMARK    8  A    between atoms: _53  and  _55
REMARK                            x       y       z     vdW  Elec       q    Type
REMARK                         _______ _______ _______ _____ _____    ______ ____
ROOT
ATOM     10  C   UNL     1       9.072  14.767   2.668  0.00  0.00    +0.038 A 
ATOM     11  C   UNL     1       9.781  15.761   1.946  0.00  0.00    +0.047 A 
ATOM     12  C   UNL     1      10.827  15.402   1.000  0.00  0.00    +0.035 A 
ATOM     32  C   UNL     1      11.123  14.020   0.813  0.00  0.00    +0.024 A 
ATOM     33  C   UNL     1      10.413  12.997   1.540  0.00  0.00    +0.007 A 
ATOM     34  C   UNL     1       9.383  13.345   2.475  0.00  0.00    -0.029 A 
ATOM     35  C   UNL     1       8.659  12.207   3.231  0.00  0.00    +0.045 C 
ENDROOT
BRANCH  10   9
ATOM      4  C   UNL     1       7.625  16.288   6.984  0.00  0.00    +0.077 A 
ATOM      5  C   UNL     1       8.960  16.255   7.509  0.00  0.00    +0.048 A 
ATOM      6  C   UNL     1       9.990  15.834   6.637  0.00  0.00    +0.116 A 
ATOM      7  N   UNL     1       9.695  15.476   5.340  0.00  0.00    -0.223 NA
ATOM      8  C   UNL     1       8.396  15.517   4.866  0.00  0.00    +0.220 A 
ATOM      9  N   UNL     1       8.078  15.168   3.563  0.00  0.00    -0.283 N 
ATOM     36  H   UNL     1       7.107  15.205   3.254  0.00  0.00    +0.155 HD
ATOM     37  N   UNL     1       7.395  15.914   5.679  0.00  0.00    -0.214 NA
BRANCH   4   3
ATOM      1  C   UNL     1       5.157  16.955   9.944  0.00  0.00    +0.020 A 
ATOM      2  C   UNL     1       6.333  16.525   9.222  0.00  0.00    +0.013 A 
ATOM      3  C   UNL     1       6.431  16.714   7.780  0.00  0.00    +0.019 A 
ATOM     38  C   UNL     1       5.314  17.345   7.094  0.00  0.00    +0.120 A 
ATOM     39  N   UNL     1       4.195  17.747   7.815  0.00  0.00    -0.263 NA
ATOM     40  C   UNL     1       4.088  17.570   9.203  0.00  0.00    +0.111 A 
ENDBRANCH   4   3
ENDBRANCH  10   9
BRANCH  12  13
ATOM     13  N   UNL     1      11.586  16.367   0.245  0.00  0.00    -0.281 N 
ATOM     14  C   UNL     1      11.341  16.827  -1.039  0.00  0.00    +0.248 C 
ATOM     30  O   UNL     1      10.548  16.317  -1.816  0.00  0.00    -0.270 OA
ATOM     31  H   UNL     1      12.403  16.759   0.713  0.00  0.00    +0.155 HD
BRANCH  14  15
ATOM     15  C   UNL     1      12.095  18.018  -1.536  0.00  0.00    +0.037 A 
ATOM     16  C   UNL     1      11.405  19.146  -2.166  0.00  0.00    +0.013 A 
ATOM     17  C   UNL     1      12.159  20.275  -2.652  0.00  0.00    +0.005 A 
ATOM     18  C   UNL     1      13.612  20.281  -2.507  0.00  0.00    -0.033 A 
ATOM     28  C   UNL     1      14.271  19.151  -1.873  0.00  0.00    +0.005 A 
ATOM     29  C   UNL     1      13.536  18.043  -1.397  0.00  0.00    +0.013 A 
BRANCH  18  19
ATOM     19  C   UNL     1      14.498  21.434  -3.015  0.00  0.00    +0.119 C 
BRANCH  19  20
ATOM     20  N   UNL     1      15.599  21.084  -3.962  0.00  0.00    -0.302 NA
ATOM     21  C   UNL     1      16.189  22.324  -4.640  0.00  0.00    +0.066 C 
ATOM     22  C   UNL     1      17.354  21.942  -5.610  0.00  0.00    -0.064 C 
ATOM     23  N   UNL     1      16.841  20.947  -6.653  0.00  0.00    +0.379 N 
ATOM     24  C   UNL     1      17.919  20.631  -7.601  0.00  0.00    -0.096 C 
ATOM     25  H   UNL     1      16.024  21.447  -7.223  0.00  0.00    -0.082 HD
ATOM     26  C   UNL     1      16.250  19.713  -5.987  0.00  0.00    -0.064 C 
ATOM     27  C   UNL     1      15.113  20.106  -5.003  0.00  0.00    +0.066 C 
ENDBRANCH  19  20
ENDBRANCH  18  19
ENDBRANCH  14  15
ENDBRANCH  12  13
TORSDOF 6
ENDMDL
