MODEL 1
REMARK VINA RESULT:      -8.6      0.000      0.000
REMARK  Name = C:\Users\Docking\Desktop\test protocol\1iep_ligandH.pdb
REMARK  8 active torsions:
REMARK  status: ('A' for Active; 'I' for Inactive)
REMARK    1  A    between atoms: _5  and  _11
REMARK    2  A    between atoms: _19  and  _21
REMARK    3  A    between atoms: _22  and  _66
REMARK    4  A    between atoms: _27  and  _30
REMARK    5  A    between atoms: _32  and  _33
REMARK    6  A    between atoms: _38  and  _43
REMARK    7  A    between atoms: _43  and  _46
REMARK    8  A    between atoms: _53  and  _55
REMARK                            x       y       z     vdW  Elec       q    Type
REMARK                         _______ _______ _______ _____ _____    ______ ____
ROOT
ATOM     10  C   UNL     1     -24.884   3.072  -3.075  0.00  0.00    +0.038 A 
ATOM     11  C   UNL     1     -23.755   2.971  -2.224  0.00  0.00    +0.047 A 
ATOM     12  C   UNL     1     -22.419   2.775  -2.765  0.00  0.00    +0.035 A 
ATOM     32  C   UNL     1     -22.270   2.689  -4.180  0.00  0.00    +0.024 A 
ATOM     33  C   UNL     1     -23.408   2.789  -5.061  0.00  0.00    +0.007 A 
ATOM     34  C   UNL     1     -24.728   2.980  -4.532  0.00  0.00    -0.029 A 
ATOM     35  C   UNL     1     -25.912   3.073  -5.522  0.00  0.00    +0.045 C 
ENDROOT
BRANCH  10   9
ATOM      4  C   UNL     1     -29.253   1.508  -1.848  0.00  0.00    +0.077 A 
ATOM      5  C   UNL     1     -29.016   0.215  -2.423  0.00  0.00    +0.048 A 
ATOM      6  C   UNL     1     -27.760  -0.005  -3.031  0.00  0.00    +0.116 A 
ATOM      7  N   UNL     1     -26.818   1.001  -3.056  0.00  0.00    -0.223 NA
ATOM      8  C   UNL     1     -27.079   2.237  -2.494  0.00  0.00    +0.220 A 
ATOM      9  N   UNL     1     -26.144   3.260  -2.501  0.00  0.00    -0.283 N 
ATOM     36  H   UNL     1     -26.378   4.160  -2.082  0.00  0.00    +0.155 HD
ATOM     37  N   UNL     1     -28.272   2.472  -1.908  0.00  0.00    -0.214 NA
BRANCH   4   3
ATOM      1  C   UNL     1     -33.046   1.992  -1.026  0.00  0.00    +0.020 A 
ATOM      2  C   UNL     1     -31.844   1.600  -1.724  0.00  0.00    +0.013 A 
ATOM      3  C   UNL     1     -30.530   1.891  -1.167  0.00  0.00    +0.019 A 
ATOM     38  C   UNL     1     -30.466   2.586   0.111  0.00  0.00    +0.120 A 
ATOM     39  N   UNL     1     -31.641   2.953   0.760  0.00  0.00    -0.263 NA
ATOM     40  C   UNL     1     -32.911   2.679   0.232  0.00  0.00    +0.111 A 
ENDBRANCH   4   3
ENDBRANCH  10   9
BRANCH  12  13
ATOM     13  N   UNL     1     -21.236   2.657  -1.950  0.00  0.00    -0.281 N 
ATOM     14  C   UNL     1     -20.128   3.488  -1.931  0.00  0.00    +0.248 C 
ATOM     30  O   UNL     1     -19.893   4.345  -2.770  0.00  0.00    -0.270 OA
ATOM     31  H   UNL     1     -21.212   1.863  -1.309  0.00  0.00    +0.155 HD
BRANCH  14  15
ATOM     15  C   UNL     1     -19.131   3.337  -0.828  0.00  0.00    +0.037 A 
ATOM     16  C   UNL     1     -19.168   2.186   0.078  0.00  0.00    +0.013 A 
ATOM     17  C   UNL     1     -18.204   2.073   1.144  0.00  0.00    +0.005 A 
ATOM     18  C   UNL     1     -17.193   3.115   1.309  0.00  0.00    -0.033 A 
ATOM     28  C   UNL     1     -17.176   4.243   0.392  0.00  0.00    +0.005 A 
ATOM     29  C   UNL     1     -18.119   4.358  -0.653  0.00  0.00    +0.013 A 
BRANCH  18  19
ATOM     19  C   UNL     1     -16.139   3.087   2.431  0.00  0.00    +0.119 C 
BRANCH  19  20
ATOM     20  N   UNL     1     -14.719   2.854   2.030  0.00  0.00    -0.302 NA
ATOM     21  C   UNL     1     -14.426   1.370   1.792  0.00  0.00    +0.066 C 
ATOM     22  C   UNL     1     -12.942   1.147   1.351  0.00  0.00    -0.064 C 
ATOM     23  N   UNL     1     -12.005   1.721   2.416  0.00  0.00    +0.379 N 
ATOM     24  C   UNL     1     -10.610   1.461   2.033  0.00  0.00    -0.096 C 
ATOM     25  H   UNL     1     -12.202   1.176   3.368  0.00  0.00    -0.082 HD
ATOM     26  C   UNL     1     -12.292   3.195   2.661  0.00  0.00    -0.064 C 
ATOM     27  C   UNL     1     -13.777   3.409   3.070  0.00  0.00    +0.066 C 
ENDBRANCH  19  20
ENDBRANCH  18  19
ENDBRANCH  14  15
ENDBRANCH  12  13
TORSDOF 6
ENDMDL
MODEL 2
REMARK VINA RESULT:      -8.5      5.345      8.203
REMARK  Name = C:\Users\Docking\Desktop\test protocol\1iep_ligandH.pdb
REMARK  8 active torsions:
REMARK  status: ('A' for Active; 'I' for Inactive)
REMARK    1  A    between atoms: _5  and  _11
REMARK    2  A    between atoms: _19  and  _21
REMARK    3  A    between atoms: _22  and  _66
REMARK    4  A    between atoms: _27  and  _30
REMARK    5  A    between atoms: _32  and  _33
REMARK    6  A    between atoms: _38  and  _43
REMARK    7  A    between atoms: _43  and  _46
REMARK    8  A    between atoms: _53  and  _55
REMARK                            x       y       z     vdW  Elec       q    Type
REMARK                         _______ _______ _______ _____ _____    ______ ____
ROOT
ATOM     10  C   UNL     1     -18.451   3.077   0.244  0.00  0.00    +0.038 A 
ATOM     11  C   UNL     1     -18.386   2.274   1.411  0.00  0.00    +0.047 A 
ATOM     12  C   UNL     1     -17.117   2.006   2.071  0.00  0.00    +0.035 A 
ATOM     32  C   UNL     1     -15.934   2.575   1.516  0.00  0.00    +0.024 A 
ATOM     33  C   UNL     1     -15.982   3.393   0.329  0.00  0.00    +0.007 A 
ATOM     34  C   UNL     1     -17.230   3.658  -0.327  0.00  0.00    -0.029 A 
ATOM     35  C   UNL     1     -17.221   4.537  -1.599  0.00  0.00    +0.045 C 
ENDROOT
BRANCH  10   9
ATOM      4  C   UNL     1     -22.046   1.797  -2.667  0.00  0.00    +0.077 A 
ATOM      5  C   UNL     1     -21.376   0.592  -3.062  0.00  0.00    +0.048 A 
ATOM      6  C   UNL     1     -20.104   0.342  -2.499  0.00  0.00    +0.116 A 
ATOM      7  N   UNL     1     -19.554   1.237  -1.607  0.00  0.00    -0.223 NA
ATOM      8  C   UNL     1     -20.227   2.391  -1.249  0.00  0.00    +0.220 A 
ATOM      9  N   UNL     1     -19.696   3.302  -0.348  0.00  0.00    -0.283 N 
ATOM     36  H   UNL     1     -20.220   4.145  -0.115  0.00  0.00    +0.155 HD
ATOM     37  N   UNL     1     -21.441   2.654  -1.774  0.00  0.00    -0.214 NA
BRANCH   4   3
ATOM      1  C   UNL     1     -25.606   3.395  -2.942  0.00  0.00    +0.020 A 
ATOM      2  C   UNL     1     -24.313   3.035  -2.407  0.00  0.00    +0.013 A 
ATOM      3  C   UNL     1     -23.396   2.200  -3.173  0.00  0.00    +0.019 A 
ATOM     38  C   UNL     1     -23.822   1.743  -4.488  0.00  0.00    +0.120 A 
ATOM     39  N   UNL     1     -25.073   2.104  -4.976  0.00  0.00    -0.263 NA
ATOM     40  C   UNL     1     -25.964   2.906  -4.247  0.00  0.00    +0.111 A 
ENDBRANCH   4   3
ENDBRANCH  10   9
BRANCH  12  13
ATOM     13  N   UNL     1     -16.989   1.191   3.253  0.00  0.00    -0.281 N 
ATOM     14  C   UNL     1     -17.785   1.203   4.387  0.00  0.00    +0.248 C 
ATOM     30  O   UNL     1     -18.606   2.070   4.645  0.00  0.00    -0.270 OA
ATOM     31  H   UNL     1     -16.216   0.524   3.255  0.00  0.00    +0.155 HD
BRANCH  14  15
ATOM     15  C   UNL     1     -17.638   0.099   5.384  0.00  0.00    +0.037 A 
ATOM     16  C   UNL     1     -18.711  -0.217   6.330  0.00  0.00    +0.013 A 
ATOM     17  C   UNL     1     -18.537  -1.276   7.293  0.00  0.00    +0.005 A 
ATOM     18  C   UNL     1     -17.284  -2.026   7.314  0.00  0.00    -0.033 A 
ATOM     28  C   UNL     1     -16.238  -1.695   6.360  0.00  0.00    +0.005 A 
ATOM     29  C   UNL     1     -16.405  -0.657   5.415  0.00  0.00    +0.013 A 
BRANCH  18  19
ATOM     19  C   UNL     1     -17.003  -3.158   8.320  0.00  0.00    +0.119 C 
BRANCH  19  20
ATOM     20  N   UNL     1     -15.722  -3.909   8.164  0.00  0.00    -0.302 NA
ATOM     21  C   UNL     1     -15.897  -5.173   7.317  0.00  0.00    +0.066 C 
ATOM     22  C   UNL     1     -14.542  -5.935   7.145  0.00  0.00    -0.064 C 
ATOM     23  N   UNL     1     -13.976  -6.281   8.524  0.00  0.00    +0.379 N 
ATOM     24  C   UNL     1     -12.732  -7.048   8.365  0.00  0.00    -0.096 C 
ATOM     25  H   UNL     1     -14.716  -6.938   9.037  0.00  0.00    -0.082 HD
ATOM     26  C   UNL     1     -13.802  -5.030   9.374  0.00  0.00    -0.064 C 
ATOM     27  C   UNL     1     -15.147  -4.265   9.514  0.00  0.00    +0.066 C 
ENDBRANCH  19  20
ENDBRANCH  18  19
ENDBRANCH  14  15
ENDBRANCH  12  13
TORSDOF 6
ENDMDL
MODEL 3
REMARK VINA RESULT:      -8.3      2.303     14.348
REMARK  Name = C:\Users\Docking\Desktop\test protocol\1iep_ligandH.pdb
REMARK  8 active torsions:
REMARK  status: ('A' for Active; 'I' for Inactive)
REMARK    1  A    between atoms: _5  and  _11
REMARK    2  A    between atoms: _19  and  _21
REMARK    3  A    between atoms: _22  and  _66
REMARK    4  A    between atoms: _27  and  _30
REMARK    5  A    between atoms: _32  and  _33
REMARK    6  A    between atoms: _38  and  _43
REMARK    7  A    between atoms: _43  and  _46
REMARK    8  A    between atoms: _53  and  _55
REMARK                            x       y       z     vdW  Elec       q    Type
REMARK                         _______ _______ _______ _____ _____    ______ ____
ROOT
ATOM     10  C   UNL     1     -15.979   3.016   2.411  0.00  0.00    +0.038 A 
ATOM     11  C   UNL     1     -16.884   3.043   1.318  0.00  0.00    +0.047 A 
ATOM     12  C   UNL     1     -18.197   2.426   1.414  0.00  0.00    +0.035 A 
ATOM     32  C   UNL     1     -18.559   1.792   2.638  0.00  0.00    +0.024 A 
ATOM     33  C   UNL     1     -17.651   1.755   3.758  0.00  0.00    +0.007 A 
ATOM     34  C   UNL     1     -16.353   2.360   3.669  0.00  0.00    -0.029 A 
ATOM     35  C   UNL     1     -15.419   2.284   4.899  0.00  0.00    +0.045 C 
ENDROOT
BRANCH  10   9
ATOM      4  C   UNL     1     -11.327   2.902   1.237  0.00  0.00    +0.077 A 
ATOM      5  C   UNL     1     -11.382   1.505   0.915  0.00  0.00    +0.048 A 
ATOM      6  C   UNL     1     -12.624   0.851   1.071  0.00  0.00    +0.116 A 
ATOM      7  N   UNL     1     -13.724   1.552   1.517  0.00  0.00    -0.223 NA
ATOM      8  C   UNL     1     -13.636   2.898   1.821  0.00  0.00    +0.220 A 
ATOM      9  N   UNL     1     -14.731   3.625   2.264  0.00  0.00    -0.283 N 
ATOM     36  H   UNL     1     -14.623   4.615   2.484  0.00  0.00    +0.155 HD
ATOM     37  N   UNL     1     -12.460   3.545   1.681  0.00  0.00    -0.214 NA
BRANCH   4   3
ATOM      1  C   UNL     1      -8.883   5.943   0.954  0.00  0.00    +0.020 A 
ATOM      2  C   UNL     1     -10.110   5.188   1.067  0.00  0.00    +0.013 A 
ATOM      3  C   UNL     1     -10.086   3.732   1.120  0.00  0.00    +0.019 A 
ATOM     38  C   UNL     1      -8.795   3.065   1.058  0.00  0.00    +0.120 A 
ATOM     39  N   UNL     1      -7.630   3.818   0.948  0.00  0.00    -0.263 NA
ATOM     40  C   UNL     1      -7.640   5.220   0.894  0.00  0.00    +0.111 A 
ENDBRANCH   4   3
ENDBRANCH  10   9
BRANCH  12  13
ATOM     13  N   UNL     1     -19.154   2.414   0.335  0.00  0.00    -0.281 N 
ATOM     14  C   UNL     1     -19.290   1.473  -0.673  0.00  0.00    +0.248 C 
ATOM     30  O   UNL     1     -18.466   0.606  -0.924  0.00  0.00    -0.270 OA
ATOM     31  H   UNL     1     -19.812   3.193   0.312  0.00  0.00    +0.155 HD
BRANCH  14  15
ATOM     15  C   UNL     1     -20.510   1.510  -1.536  0.00  0.00    +0.037 A 
ATOM     16  C   UNL     1     -21.151   0.277  -1.999  0.00  0.00    +0.013 A 
ATOM     17  C   UNL     1     -22.316   0.341  -2.844  0.00  0.00    +0.005 A 
ATOM     18  C   UNL     1     -22.850   1.645  -3.231  0.00  0.00    -0.033 A 
ATOM     28  C   UNL     1     -22.197   2.853  -2.753  0.00  0.00    +0.005 A 
ATOM     29  C   UNL     1     -21.054   2.794  -1.925  0.00  0.00    +0.013 A 
BRANCH  18  19
ATOM     19  C   UNL     1     -24.077   1.808  -4.148  0.00  0.00    +0.119 C 
BRANCH  19  20
ATOM     20  N   UNL     1     -25.385   1.304  -3.634  0.00  0.00    -0.302 NA
ATOM     21  C   UNL     1     -26.555   1.730  -4.526  0.00  0.00    +0.066 C 
ATOM     22  C   UNL     1     -27.913   1.175  -3.987  0.00  0.00    -0.064 C 
ATOM     23  N   UNL     1     -28.124   1.656  -2.551  0.00  0.00    +0.379 N 
ATOM     24  C   UNL     1     -29.427   1.184  -2.061  0.00  0.00    -0.096 C 
ATOM     25  H   UNL     1     -28.153   2.770  -2.569  0.00  0.00    -0.082 HD
ATOM     26  C   UNL     1     -26.964   1.239  -1.658  0.00  0.00    -0.064 C 
ATOM     27  C   UNL     1     -25.616   1.771  -2.218  0.00  0.00    +0.066 C 
ENDBRANCH  19  20
ENDBRANCH  18  19
ENDBRANCH  14  15
ENDBRANCH  12  13
TORSDOF 6
ENDMDL
MODEL 4
REMARK VINA RESULT:      -8.3      9.001     14.359
REMARK  Name = C:\Users\Docking\Desktop\test protocol\1iep_ligandH.pdb
REMARK  8 active torsions:
REMARK  status: ('A' for Active; 'I' for Inactive)
REMARK    1  A    between atoms: _5  and  _11
REMARK    2  A    between atoms: _19  and  _21
REMARK    3  A    between atoms: _22  and  _66
REMARK    4  A    between atoms: _27  and  _30
REMARK    5  A    between atoms: _32  and  _33
REMARK    6  A    between atoms: _38  and  _43
REMARK    7  A    between atoms: _43  and  _46
REMARK    8  A    between atoms: _53  and  _55
REMARK                            x       y       z     vdW  Elec       q    Type
REMARK                         _______ _______ _______ _____ _____    ______ ____
ROOT
ATOM     10  C   UNL     1     -15.539   2.941   2.817  0.00  0.00    +0.038 A 
ATOM     11  C   UNL     1     -15.715   1.994   3.858  0.00  0.00    +0.047 A 
ATOM     12  C   UNL     1     -16.992   1.328   4.061  0.00  0.00    +0.035 A 
ATOM     32  C   UNL     1     -18.068   1.647   3.182  0.00  0.00    +0.024 A 
ATOM     33  C   UNL     1     -17.906   2.608   2.119  0.00  0.00    +0.007 A 
ATOM     34  C   UNL     1     -16.650   3.271   1.916  0.00  0.00    -0.029 A 
ATOM     35  C   UNL     1     -16.536   4.296   0.765  0.00  0.00    +0.045 C 
ENDROOT
BRANCH  10   9
ATOM      4  C   UNL     1     -10.994   2.959   1.274  0.00  0.00    +0.077 A 
ATOM      5  C   UNL     1     -11.106   1.631   0.744  0.00  0.00    +0.048 A 
ATOM      6  C   UNL     1     -12.348   0.975   0.895  0.00  0.00    +0.116 A 
ATOM      7  N   UNL     1     -13.393   1.610   1.531  0.00  0.00    -0.223 NA
ATOM      8  C   UNL     1     -13.251   2.890   2.032  0.00  0.00    +0.220 A 
ATOM      9  N   UNL     1     -14.291   3.551   2.668  0.00  0.00    -0.283 N 
ATOM     36  H   UNL     1     -14.143   4.492   3.031  0.00  0.00    +0.155 HD
ATOM     37  N   UNL     1     -12.074   3.538   1.902  0.00  0.00    -0.214 NA
BRANCH   4   3
ATOM      1  C   UNL     1      -7.239   4.041   1.082  0.00  0.00    +0.020 A 
ATOM      2  C   UNL     1      -8.411   3.200   1.165  0.00  0.00    +0.013 A 
ATOM      3  C   UNL     1      -9.747   3.783   1.189  0.00  0.00    +0.019 A 
ATOM     38  C   UNL     1      -9.862   5.233   1.127  0.00  0.00    +0.120 A 
ATOM     39  N   UNL     1      -8.716   6.017   1.049  0.00  0.00    -0.263 NA
ATOM     40  C   UNL     1      -7.426   5.467   1.027  0.00  0.00    +0.111 A 
ENDBRANCH   4   3
ENDBRANCH  10   9
BRANCH  12  13
ATOM     13  N   UNL     1     -17.233   0.364   5.106  0.00  0.00    -0.281 N 
ATOM     14  C   UNL     1     -17.308  -1.015   4.992  0.00  0.00    +0.248 C 
ATOM     30  O   UNL     1     -17.392  -1.617   3.932  0.00  0.00    -0.270 OA
ATOM     31  H   UNL     1     -17.363   0.744   6.044  0.00  0.00    +0.155 HD
BRANCH  14  15
ATOM     15  C   UNL     1     -17.303  -1.843   6.236  0.00  0.00    +0.037 A 
ATOM     16  C   UNL     1     -17.225  -1.224   7.562  0.00  0.00    +0.013 A 
ATOM     17  C   UNL     1     -17.205  -2.047   8.745  0.00  0.00    +0.005 A 
ATOM     18  C   UNL     1     -17.266  -3.500   8.607  0.00  0.00    -0.033 A 
ATOM     28  C   UNL     1     -17.348  -4.088   7.281  0.00  0.00    +0.005 A 
ATOM     29  C   UNL     1     -17.367  -3.284   6.119  0.00  0.00    +0.013 A 
BRANCH  18  19
ATOM     19  C   UNL     1     -17.229  -4.456   9.814  0.00  0.00    +0.119 C 
BRANCH  19  20
ATOM     20  N   UNL     1     -15.983  -5.255  10.015  0.00  0.00    -0.302 NA
ATOM     21  C   UNL     1     -15.732  -5.565  11.494  0.00  0.00    +0.066 C 
ATOM     22  C   UNL     1     -14.437  -6.421  11.684  0.00  0.00    -0.064 C 
ATOM     23  N   UNL     1     -13.245  -5.679  11.075  0.00  0.00    +0.379 N 
ATOM     24  C   UNL     1     -12.017  -6.454  11.304  0.00  0.00    -0.096 C 
ATOM     25  H   UNL     1     -13.139  -4.710  11.615  0.00  0.00    -0.082 HD
ATOM     26  C   UNL     1     -13.488  -5.365   9.606  0.00  0.00    -0.064 C 
ATOM     27  C   UNL     1     -14.793  -4.540   9.425  0.00  0.00    +0.066 C 
ENDBRANCH  19  20
ENDBRANCH  18  19
ENDBRANCH  14  15
ENDBRANCH  12  13
TORSDOF 6
ENDMDL
MODEL 5
REMARK VINA RESULT:      -8.3      9.204     14.924
REMARK  Name = C:\Users\Docking\Desktop\test protocol\1iep_ligandH.pdb
REMARK  8 active torsions:
REMARK  status: ('A' for Active; 'I' for Inactive)
REMARK    1  A    between atoms: _5  and  _11
REMARK    2  A    between atoms: _19  and  _21
REMARK    3  A    between atoms: _22  and  _66
REMARK    4  A    between atoms: _27  and  _30
REMARK    5  A    between atoms: _32  and  _33
REMARK    6  A    between atoms: _38  and  _43
REMARK    7  A    between atoms: _43  and  _46
REMARK    8  A    between atoms: _53  and  _55
REMARK                            x       y       z     vdW  Elec       q    Type
REMARK                         _______ _______ _______ _____ _____    ______ ____
ROOT
ATOM     10  C   UNL     1     -15.491   2.868   3.086  0.00  0.00    +0.038 A 
ATOM     11  C   UNL     1     -15.561   1.981   4.191  0.00  0.00    +0.047 A 
ATOM     12  C   UNL     1     -16.787   1.265   4.505  0.00  0.00    +0.035 A 
ATOM     32  C   UNL     1     -17.924   1.474   3.671  0.00  0.00    +0.024 A 
ATOM     33  C   UNL     1     -17.872   2.374   2.545  0.00  0.00    +0.007 A 
ATOM     34  C   UNL     1     -16.665   3.085   2.232  0.00  0.00    -0.029 A 
ATOM     35  C   UNL     1     -16.668   4.041   1.017  0.00  0.00    +0.045 C 
ENDROOT
BRANCH  10   9
ATOM      4  C   UNL     1     -11.042   3.019   1.291  0.00  0.00    +0.077 A 
ATOM      5  C   UNL     1     -11.111   1.656   0.849  0.00  0.00    +0.048 A 
ATOM      6  C   UNL     1     -12.307   0.949   1.109  0.00  0.00    +0.116 A 
ATOM      7  N   UNL     1     -13.349   1.569   1.763  0.00  0.00    -0.223 NA
ATOM      8  C   UNL     1     -13.249   2.884   2.178  0.00  0.00    +0.220 A 
ATOM      9  N   UNL     1     -14.288   3.530   2.831  0.00  0.00    -0.283 N 
ATOM     36  H   UNL     1     -14.172   4.499   3.128  0.00  0.00    +0.155 HD
ATOM     37  N   UNL     1     -12.118   3.581   1.943  0.00  0.00    -0.214 NA
BRANCH   4   3
ATOM      1  C   UNL     1      -8.743   6.157   0.883  0.00  0.00    +0.020 A 
ATOM      2  C   UNL     1      -9.927   5.354   1.084  0.00  0.00    +0.013 A 
ATOM      3  C   UNL     1      -9.848   3.899   1.087  0.00  0.00    +0.019 A 
ATOM     38  C   UNL     1      -8.545   3.282   0.884  0.00  0.00    +0.120 A 
ATOM     39  N   UNL     1      -7.423   4.081   0.691  0.00  0.00    -0.263 NA
ATOM     40  C   UNL     1      -7.487   5.483   0.685  0.00  0.00    +0.111 A 
ENDBRANCH   4   3
ENDBRANCH  10   9
BRANCH  12  13
ATOM     13  N   UNL     1     -16.920   0.357   5.617  0.00  0.00    -0.281 N 
ATOM     14  C   UNL     1     -16.942  -1.027   5.589  0.00  0.00    +0.248 C 
ATOM     30  O   UNL     1     -17.066  -1.696   4.573  0.00  0.00    -0.270 OA
ATOM     31  H   UNL     1     -17.008   0.788   6.538  0.00  0.00    +0.155 HD
BRANCH  14  15
ATOM     15  C   UNL     1     -16.823  -1.778   6.876  0.00  0.00    +0.037 A 
ATOM     16  C   UNL     1     -17.395  -1.252   8.118  0.00  0.00    +0.013 A 
ATOM     17  C   UNL     1     -17.251  -1.988   9.349  0.00  0.00    +0.005 A 
ATOM     18  C   UNL     1     -16.534  -3.261   9.343  0.00  0.00    -0.033 A 
ATOM     28  C   UNL     1     -15.982  -3.762   8.095  0.00  0.00    +0.005 A 
ATOM     29  C   UNL     1     -16.120  -3.043   6.887  0.00  0.00    +0.013 A 
BRANCH  18  19
ATOM     19  C   UNL     1     -16.314  -4.103  10.613  0.00  0.00    +0.119 C 
BRANCH  19  20
ATOM     20  N   UNL     1     -17.491  -4.849  11.151  0.00  0.00    -0.302 NA
ATOM     21  C   UNL     1     -17.536  -4.825  12.681  0.00  0.00    +0.066 C 
ATOM     22  C   UNL     1     -18.786  -5.590  13.226  0.00  0.00    -0.064 C 
ATOM     23  N   UNL     1     -18.766  -7.029  12.707  0.00  0.00    +0.379 N 
ATOM     24  C   UNL     1     -19.908  -7.768  13.265  0.00  0.00    -0.096 C 
ATOM     25  H   UNL     1     -17.834  -7.511  13.085  0.00  0.00    -0.082 HD
ATOM     26  C   UNL     1     -18.718  -7.062  11.186  0.00  0.00    -0.064 C 
ATOM     27  C   UNL     1     -17.489  -6.273  10.654  0.00  0.00    +0.066 C 
ENDBRANCH  19  20
ENDBRANCH  18  19
ENDBRANCH  14  15
ENDBRANCH  12  13
TORSDOF 6
ENDMDL
