MODEL 1
REMARK VINA RESULT:      -9.7      0.000      0.000
REMARK  Name = C:\Users\Docking\Desktop\test protocol\1iep_ligandH.pdb
REMARK  8 active torsions:
REMARK  status: ('A' for Active; 'I' for Inactive)
REMARK    1  A    between atoms: _5  and  _11
REMARK    2  A    between atoms: _19  and  _21
REMARK    3  A    between atoms: _22  and  _66
REMARK    4  A    between atoms: _27  and  _30
REMARK    5  A    between atoms: _32  and  _33
REMARK    6  A    between atoms: _38  and  _43
REMARK    7  A    between atoms: _43  and  _46
REMARK    8  A    between atoms: _53  and  _55
REMARK                            x       y       z     vdW  Elec       q    Type
REMARK                         _______ _______ _______ _____ _____    ______ ____
ROOT
ATOM     10  C   UNL     1      52.616 -23.611  34.932  0.00  0.00    +0.038 A 
ATOM     11  C   UNL     1      52.153 -22.743  35.954  0.00  0.00    +0.047 A 
ATOM     12  C   UNL     1      52.804 -21.467  36.209  0.00  0.00    +0.035 A 
ATOM     32  C   UNL     1      53.922 -21.106  35.401  0.00  0.00    +0.024 A 
ATOM     33  C   UNL     1      54.406 -21.976  34.359  0.00  0.00    +0.007 A 
ATOM     34  C   UNL     1      53.769 -23.237  34.105  0.00  0.00    -0.029 A 
ATOM     35  C   UNL     1      54.335 -24.134  32.979  0.00  0.00    +0.045 C 
ENDROOT
BRANCH  10   9
ATOM      4  C   UNL     1      51.179 -27.945  36.411  0.00  0.00    +0.077 A 
ATOM      5  C   UNL     1      51.825 -27.791  37.683  0.00  0.00    +0.048 A 
ATOM      6  C   UNL     1      52.523 -26.584  37.914  0.00  0.00    +0.116 A 
ATOM      7  N   UNL     1      52.564 -25.611  36.939  0.00  0.00    -0.223 NA
ATOM      8  C   UNL     1      51.932 -25.793  35.723  0.00  0.00    +0.220 A 
ATOM      9  N   UNL     1      51.954 -24.824  34.731  0.00  0.00    -0.283 N 
ATOM     36  H   UNL     1      51.481 -25.000  33.844  0.00  0.00    +0.155 HD
ATOM     37  N   UNL     1      51.260 -26.937  35.477  0.00  0.00    -0.214 NA
BRANCH   4   3
ATOM      1  C   UNL     1      48.667 -30.943  36.451  0.00  0.00    +0.020 A 
ATOM      2  C   UNL     1      49.391 -29.768  36.878  0.00  0.00    +0.013 A 
ATOM      3  C   UNL     1      50.400 -29.162  36.019  0.00  0.00    +0.019 A 
ATOM     38  C   UNL     1      50.654 -29.774  34.723  0.00  0.00    +0.120 A 
ATOM     39  N   UNL     1      49.942 -30.906  34.339  0.00  0.00    -0.263 NA
ATOM     40  C   UNL     1      48.970 -31.499  35.159  0.00  0.00    +0.111 A 
ENDBRANCH   4   3
ENDBRANCH  10   9
BRANCH  12  13
ATOM     13  N   UNL     1      52.384 -20.548  37.237  0.00  0.00    -0.281 N 
ATOM     14  C   UNL     1      51.569 -19.435  37.105  0.00  0.00    +0.248 C 
ATOM     30  O   UNL     1      51.250 -18.936  36.036  0.00  0.00    -0.270 OA
ATOM     31  H   UNL     1      52.729 -20.742  38.178  0.00  0.00    +0.155 HD
BRANCH  14  15
ATOM     15  C   UNL     1      51.046 -18.772  38.338  0.00  0.00    +0.037 A 
ATOM     16  C   UNL     1      50.171 -17.600  38.257  0.00  0.00    +0.013 A 
ATOM     17  C   UNL     1      49.694 -16.969  39.462  0.00  0.00    +0.005 A 
ATOM     18  C   UNL     1      50.091 -17.512  40.760  0.00  0.00    -0.033 A 
ATOM     28  C   UNL     1      50.956 -18.679  40.810  0.00  0.00    +0.005 A 
ATOM     29  C   UNL     1      51.426 -19.299  39.631  0.00  0.00    +0.013 A 
BRANCH  18  19
ATOM     19  C   UNL     1      49.647 -16.890  42.097  0.00  0.00    +0.119 C 
BRANCH  19  20
ATOM     20  N   UNL     1      48.343 -17.348  42.664  0.00  0.00    -0.302 NA
ATOM     21  C   UNL     1      48.533 -18.344  43.811  0.00  0.00    +0.066 C 
ATOM     22  C   UNL     1      47.160 -18.795  44.407  0.00  0.00    -0.064 C 
ATOM     23  N   UNL     1      46.301 -19.404  43.297  0.00  0.00    +0.379 N 
ATOM     24  C   UNL     1      45.032 -19.881  43.866  0.00  0.00    -0.096 C 
ATOM     25  H   UNL     1      46.846 -20.289  42.895  0.00  0.00    -0.082 HD
ATOM     26  C   UNL     1      46.109 -18.420  42.152  0.00  0.00    -0.064 C 
ATOM     27  C   UNL     1      47.480 -17.956  41.586  0.00  0.00    +0.066 C 
ENDBRANCH  19  20
ENDBRANCH  18  19
ENDBRANCH  14  15
ENDBRANCH  12  13
TORSDOF 6
ENDMDL
MODEL 2
REMARK VINA RESULT:      -9.3      5.596      9.606
REMARK  Name = C:\Users\Docking\Desktop\test protocol\1iep_ligandH.pdb
REMARK  8 active torsions:
REMARK  status: ('A' for Active; 'I' for Inactive)
REMARK    1  A    between atoms: _5  and  _11
REMARK    2  A    between atoms: _19  and  _21
REMARK    3  A    between atoms: _22  and  _66
REMARK    4  A    between atoms: _27  and  _30
REMARK    5  A    between atoms: _32  and  _33
REMARK    6  A    between atoms: _38  and  _43
REMARK    7  A    between atoms: _43  and  _46
REMARK    8  A    between atoms: _53  and  _55
REMARK                            x       y       z     vdW  Elec       q    Type
REMARK                         _______ _______ _______ _____ _____    ______ ____
ROOT
ATOM     10  C   UNL     1      52.171 -23.772  36.752  0.00  0.00    +0.038 A 
ATOM     11  C   UNL     1      53.562 -23.494  36.747  0.00  0.00    +0.047 A 
ATOM     12  C   UNL     1      54.089 -22.281  37.354  0.00  0.00    +0.035 A 
ATOM     32  C   UNL     1      53.171 -21.375  37.960  0.00  0.00    +0.024 A 
ATOM     33  C   UNL     1      51.754 -21.641  37.973  0.00  0.00    +0.007 A 
ATOM     34  C   UNL     1      51.228 -22.834  37.374  0.00  0.00    -0.029 A 
ATOM     35  C   UNL     1      49.699 -23.065  37.412  0.00  0.00    +0.045 C 
ENDROOT
BRANCH  10   9
ATOM      4  C   UNL     1      50.706 -28.337  36.974  0.00  0.00    +0.077 A 
ATOM      5  C   UNL     1      50.881 -28.386  38.397  0.00  0.00    +0.048 A 
ATOM      6  C   UNL     1      51.356 -27.217  39.033  0.00  0.00    +0.116 A 
ATOM      7  N   UNL     1      51.633 -26.089  38.291  0.00  0.00    -0.223 NA
ATOM      8  C   UNL     1      51.455 -26.076  36.920  0.00  0.00    +0.220 A 
ATOM      9  N   UNL     1      51.719 -24.951  36.155  0.00  0.00    -0.283 N 
ATOM     36  H   UNL     1      51.582 -24.984  35.145  0.00  0.00    +0.155 HD
ATOM     37  N   UNL     1      51.004 -27.180  36.289  0.00  0.00    -0.214 NA
BRANCH   4   3
ATOM      1  C   UNL     1      48.790 -31.551  35.833  0.00  0.00    +0.020 A 
ATOM      2  C   UNL     1      49.239 -30.455  36.661  0.00  0.00    +0.013 A 
ATOM      3  C   UNL     1      50.209 -29.490  36.159  0.00  0.00    +0.019 A 
ATOM     38  C   UNL     1      50.708 -29.663  34.803  0.00  0.00    +0.120 A 
ATOM     39  N   UNL     1      50.260 -30.729  34.030  0.00  0.00    -0.263 NA
ATOM     40  C   UNL     1      49.328 -31.665  34.503  0.00  0.00    +0.111 A 
ENDBRANCH   4   3
ENDBRANCH  10   9
BRANCH  12  13
ATOM     13  N   UNL     1      55.490 -21.942  37.372  0.00  0.00    -0.281 N 
ATOM     14  C   UNL     1      56.275 -21.507  36.317  0.00  0.00    +0.248 C 
ATOM     30  O   UNL     1      55.938 -21.548  35.142  0.00  0.00    -0.270 OA
ATOM     31  H   UNL     1      55.961 -22.033  38.272  0.00  0.00    +0.155 HD
BRANCH  14  15
ATOM     15  C   UNL     1      57.635 -20.960  36.606  0.00  0.00    +0.037 A 
ATOM     16  C   UNL     1      57.809 -19.653  37.245  0.00  0.00    +0.013 A 
ATOM     17  C   UNL     1      59.133 -19.142  37.497  0.00  0.00    +0.005 A 
ATOM     18  C   UNL     1      60.295 -19.939  37.111  0.00  0.00    -0.033 A 
ATOM     28  C   UNL     1      60.093 -21.235  36.483  0.00  0.00    +0.005 A 
ATOM     29  C   UNL     1      58.797 -21.739  36.233  0.00  0.00    +0.013 A 
BRANCH  18  19
ATOM     19  C   UNL     1      61.744 -19.463  37.322  0.00  0.00    +0.119 C 
BRANCH  19  20
ATOM     20  N   UNL     1      62.486 -18.978  36.121  0.00  0.00    -0.302 NA
ATOM     21  C   UNL     1      63.430 -20.045  35.559  0.00  0.00    +0.066 C 
ATOM     22  C   UNL     1      64.182 -19.528  34.289  0.00  0.00    -0.064 C 
ATOM     23  N   UNL     1      64.952 -18.254  34.639  0.00  0.00    +0.379 N 
ATOM     24  C   UNL     1      65.707 -17.798  33.463  0.00  0.00    -0.096 C 
ATOM     25  H   UNL     1      65.689 -18.513  35.435  0.00  0.00    -0.082 HD
ATOM     26  C   UNL     1      64.022 -17.189  35.201  0.00  0.00    -0.064 C 
ATOM     27  C   UNL     1      63.258 -17.722  36.445  0.00  0.00    +0.066 C 
ENDBRANCH  19  20
ENDBRANCH  18  19
ENDBRANCH  14  15
ENDBRANCH  12  13
TORSDOF 6
ENDMDL
MODEL 3
REMARK VINA RESULT:      -9.3      5.239      8.438
REMARK  Name = C:\Users\Docking\Desktop\test protocol\1iep_ligandH.pdb
REMARK  8 active torsions:
REMARK  status: ('A' for Active; 'I' for Inactive)
REMARK    1  A    between atoms: _5  and  _11
REMARK    2  A    between atoms: _19  and  _21
REMARK    3  A    between atoms: _22  and  _66
REMARK    4  A    between atoms: _27  and  _30
REMARK    5  A    between atoms: _32  and  _33
REMARK    6  A    between atoms: _38  and  _43
REMARK    7  A    between atoms: _43  and  _46
REMARK    8  A    between atoms: _53  and  _55
REMARK                            x       y       z     vdW  Elec       q    Type
REMARK                         _______ _______ _______ _____ _____    ______ ____
ROOT
ATOM     10  C   UNL     1      52.135 -23.716  36.633  0.00  0.00    +0.038 A 
ATOM     11  C   UNL     1      53.527 -23.462  36.537  0.00  0.00    +0.047 A 
ATOM     12  C   UNL     1      54.111 -22.253  37.097  0.00  0.00    +0.035 A 
ATOM     32  C   UNL     1      53.249 -21.325  37.750  0.00  0.00    +0.024 A 
ATOM     33  C   UNL     1      51.831 -21.567  37.855  0.00  0.00    +0.007 A 
ATOM     34  C   UNL     1      51.249 -22.757  37.303  0.00  0.00    -0.029 A 
ATOM     35  C   UNL     1      49.722 -22.961  37.440  0.00  0.00    +0.045 C 
ENDROOT
BRANCH  10   9
ATOM      4  C   UNL     1      50.949 -28.359  36.910  0.00  0.00    +0.077 A 
ATOM      5  C   UNL     1      51.403 -28.454  38.268  0.00  0.00    +0.048 A 
ATOM      6  C   UNL     1      51.942 -27.288  38.856  0.00  0.00    +0.116 A 
ATOM      7  N   UNL     1      52.016 -26.118  38.131  0.00  0.00    -0.223 NA
ATOM      8  C   UNL     1      51.570 -26.061  36.823  0.00  0.00    +0.220 A 
ATOM      9  N   UNL     1      51.628 -24.893  36.078  0.00  0.00    -0.283 N 
ATOM     36  H   UNL     1      51.296 -24.893  35.114  0.00  0.00    +0.155 HD
ATOM     37  N   UNL     1      51.053 -27.161  36.238  0.00  0.00    -0.214 NA
BRANCH   4   3
ATOM      1  C   UNL     1      48.828 -31.505  35.959  0.00  0.00    +0.020 A 
ATOM      2  C   UNL     1      49.375 -30.415  36.734  0.00  0.00    +0.013 A 
ATOM      3  C   UNL     1      50.352 -29.503  36.152  0.00  0.00    +0.019 A 
ATOM     38  C   UNL     1      50.758 -29.724  34.773  0.00  0.00    +0.120 A 
ATOM     39  N   UNL     1      50.216 -30.782  34.051  0.00  0.00    -0.263 NA
ATOM     40  C   UNL     1      49.276 -31.667  34.600  0.00  0.00    +0.111 A 
ENDBRANCH   4   3
ENDBRANCH  10   9
BRANCH  12  13
ATOM     13  N   UNL     1      55.516 -21.937  37.023  0.00  0.00    -0.281 N 
ATOM     14  C   UNL     1      56.221 -21.433  35.942  0.00  0.00    +0.248 C 
ATOM     30  O   UNL     1      55.788 -21.378  34.801  0.00  0.00    -0.270 OA
ATOM     31  H   UNL     1      56.058 -22.105  37.872  0.00  0.00    +0.155 HD
BRANCH  14  15
ATOM     15  C   UNL     1      57.612 -20.931  36.157  0.00  0.00    +0.037 A 
ATOM     16  C   UNL     1      58.079 -19.693  35.528  0.00  0.00    +0.013 A 
ATOM     17  C   UNL     1      59.431 -19.240  35.738  0.00  0.00    +0.005 A 
ATOM     18  C   UNL     1      60.326 -20.027  36.583  0.00  0.00    -0.033 A 
ATOM     28  C   UNL     1      59.836 -21.249  37.199  0.00  0.00    +0.005 A 
ATOM     29  C   UNL     1      58.511 -21.696  36.994  0.00  0.00    +0.013 A 
BRANCH  18  19
ATOM     19  C   UNL     1      61.791 -19.631  36.845  0.00  0.00    +0.119 C 
BRANCH  19  20
ATOM     20  N   UNL     1      62.045 -18.617  37.912  0.00  0.00    -0.302 NA
ATOM     21  C   UNL     1      60.760 -18.219  38.643  0.00  0.00    +0.066 C 
ATOM     22  C   UNL     1      61.047 -17.175  39.771  0.00  0.00    -0.064 C 
ATOM     23  N   UNL     1      61.728 -15.947  39.164  0.00  0.00    +0.379 N 
ATOM     24  C   UNL     1      61.947 -14.939  40.211  0.00  0.00    -0.096 C 
ATOM     25  H   UNL     1      61.029 -15.509  38.414  0.00  0.00    -0.082 HD
ATOM     26  C   UNL     1      63.005 -16.334  38.432  0.00  0.00    -0.064 C 
ATOM     27  C   UNL     1      62.713 -17.394  37.334  0.00  0.00    +0.066 C 
ENDBRANCH  19  20
ENDBRANCH  18  19
ENDBRANCH  14  15
ENDBRANCH  12  13
TORSDOF 6
ENDMDL
MODEL 4
REMARK VINA RESULT:      -8.5     20.244     23.675
REMARK  Name = C:\Users\Docking\Desktop\test protocol\1iep_ligandH.pdb
REMARK  8 active torsions:
REMARK  status: ('A' for Active; 'I' for Inactive)
REMARK    1  A    between atoms: _5  and  _11
REMARK    2  A    between atoms: _19  and  _21
REMARK    3  A    between atoms: _22  and  _66
REMARK    4  A    between atoms: _27  and  _30
REMARK    5  A    between atoms: _32  and  _33
REMARK    6  A    between atoms: _38  and  _43
REMARK    7  A    between atoms: _43  and  _46
REMARK    8  A    between atoms: _53  and  _55
REMARK                            x       y       z     vdW  Elec       q    Type
REMARK                         _______ _______ _______ _____ _____    ______ ____
ROOT
ATOM     10  C   UNL     1      37.340  -8.812  26.976  0.00  0.00    +0.038 A 
ATOM     11  C   UNL     1      38.104  -8.130  25.995  0.00  0.00    +0.047 A 
ATOM     12  C   UNL     1      37.728  -6.802  25.538  0.00  0.00    +0.035 A 
ATOM     32  C   UNL     1      36.569  -6.195  26.104  0.00  0.00    +0.024 A 
ATOM     33  C   UNL     1      35.780  -6.874  27.102  0.00  0.00    +0.007 A 
ATOM     34  C   UNL     1      36.145  -8.186  27.555  0.00  0.00    -0.029 A 
ATOM     35  C   UNL     1      35.259  -8.869  28.623  0.00  0.00    +0.045 C 
ENDROOT
BRANCH  10   9
ATOM      4  C   UNL     1      39.724 -11.762  29.918  0.00  0.00    +0.077 A 
ATOM      5  C   UNL     1      40.223 -10.671  30.704  0.00  0.00    +0.048 A 
ATOM      6  C   UNL     1      39.849  -9.366  30.313  0.00  0.00    +0.116 A 
ATOM      7  N   UNL     1      39.035  -9.177  29.217  0.00  0.00    -0.223 NA
ATOM      8  C   UNL     1      38.572 -10.252  28.480  0.00  0.00    +0.220 A 
ATOM      9  N   UNL     1      37.747 -10.086  27.379  0.00  0.00    -0.283 N 
ATOM     36  H   UNL     1      37.432 -10.904  26.857  0.00  0.00    +0.155 HD
ATOM     37  N   UNL     1      38.917 -11.508  28.831  0.00  0.00    -0.214 NA
BRANCH   4   3
ATOM      1  C   UNL     1      41.626 -15.110  30.608  0.00  0.00    +0.020 A 
ATOM      2  C   UNL     1      41.387 -13.712  30.328  0.00  0.00    +0.013 A 
ATOM      3  C   UNL     1      40.028 -13.200  30.205  0.00  0.00    +0.019 A 
ATOM     38  C   UNL     1      38.925 -14.134  30.373  0.00  0.00    +0.120 A 
ATOM     39  N   UNL     1      39.186 -15.474  30.640  0.00  0.00    -0.263 NA
ATOM     40  C   UNL     1      40.490 -15.979  30.759  0.00  0.00    +0.111 A 
ENDBRANCH   4   3
ENDBRANCH  10   9
BRANCH  12  13
ATOM     13  N   UNL     1      38.460  -6.064  24.538  0.00  0.00    -0.281 N 
ATOM     14  C   UNL     1      39.297  -4.977  24.725  0.00  0.00    +0.248 C 
ATOM     30  O   UNL     1      39.376  -4.336  25.763  0.00  0.00    -0.270 OA
ATOM     31  H   UNL     1      38.347  -6.383  23.576  0.00  0.00    +0.155 HD
BRANCH  14  15
ATOM     15  C   UNL     1      40.161  -4.527  23.591  0.00  0.00    +0.037 A 
ATOM     16  C   UNL     1      39.848  -3.313  22.833  0.00  0.00    +0.013 A 
ATOM     17  C   UNL     1      40.688  -2.911  21.733  0.00  0.00    +0.005 A 
ATOM     18  C   UNL     1      41.851  -3.723  21.386  0.00  0.00    -0.033 A 
ATOM     28  C   UNL     1      42.141  -4.920  22.158  0.00  0.00    +0.005 A 
ATOM     29  C   UNL     1      41.320  -5.318  23.236  0.00  0.00    +0.013 A 
BRANCH  18  19
ATOM     19  C   UNL     1      42.791  -3.382  20.214  0.00  0.00    +0.119 C 
BRANCH  19  20
ATOM     20  N   UNL     1      43.783  -4.421  19.808  0.00  0.00    -0.302 NA
ATOM     21  C   UNL     1      45.225  -3.942  19.994  0.00  0.00    +0.066 C 
ATOM     22  C   UNL     1      46.250  -5.050  19.585  0.00  0.00    -0.064 C 
ATOM     23  N   UNL     1      46.000  -5.462  18.134  0.00  0.00    +0.379 N 
ATOM     24  C   UNL     1      46.998  -6.462  17.728  0.00  0.00    -0.096 C 
ATOM     25  H   UNL     1      46.146  -4.560  17.496  0.00  0.00    -0.082 HD
ATOM     26  C   UNL     1      44.567  -5.937  17.939  0.00  0.00    -0.064 C 
ATOM     27  C   UNL     1      43.556  -4.840  18.376  0.00  0.00    +0.066 C 
ENDBRANCH  19  20
ENDBRANCH  18  19
ENDBRANCH  14  15
ENDBRANCH  12  13
TORSDOF 6
ENDMDL
MODEL 5
REMARK VINA RESULT:      -8.4     25.963     30.604
REMARK  Name = C:\Users\Docking\Desktop\test protocol\1iep_ligandH.pdb
REMARK  8 active torsions:
REMARK  status: ('A' for Active; 'I' for Inactive)
REMARK    1  A    between atoms: _5  and  _11
REMARK    2  A    between atoms: _19  and  _21
REMARK    3  A    between atoms: _22  and  _66
REMARK    4  A    between atoms: _27  and  _30
REMARK    5  A    between atoms: _32  and  _33
REMARK    6  A    between atoms: _38  and  _43
REMARK    7  A    between atoms: _43  and  _46
REMARK    8  A    between atoms: _53  and  _55
REMARK                            x       y       z     vdW  Elec       q    Type
REMARK                         _______ _______ _______ _____ _____    ______ ____
ROOT
ATOM     10  C   UNL     1      45.303 -28.311  67.055  0.00  0.00    +0.038 A 
ATOM     11  C   UNL     1      44.338 -29.112  66.392  0.00  0.00    +0.047 A 
ATOM     12  C   UNL     1      43.650 -30.190  67.087  0.00  0.00    +0.035 A 
ATOM     32  C   UNL     1      43.967 -30.421  68.457  0.00  0.00    +0.024 A 
ATOM     33  C   UNL     1      44.946 -29.617  69.145  0.00  0.00    +0.007 A 
ATOM     34  C   UNL     1      45.629 -28.555  68.465  0.00  0.00    -0.029 A 
ATOM     35  C   UNL     1      46.674 -27.729  69.251  0.00  0.00    +0.045 C 
ENDROOT
BRANCH  10   9
ATOM      4  C   UNL     1      45.436 -23.864  65.253  0.00  0.00    +0.077 A 
ATOM      5  C   UNL     1      44.128 -23.558  65.756  0.00  0.00    +0.048 A 
ATOM      6  C   UNL     1      43.451 -24.574  66.467  0.00  0.00    +0.116 A 
ATOM      7  N   UNL     1      44.048 -25.802  66.655  0.00  0.00    -0.223 NA
ATOM      8  C   UNL     1      45.311 -26.065  66.156  0.00  0.00    +0.220 A 
ATOM      9  N   UNL     1      45.933 -27.290  66.340  0.00  0.00    -0.283 N 
ATOM     36  H   UNL     1      46.862 -27.447  65.949  0.00  0.00    +0.155 HD
ATOM     37  N   UNL     1      45.977 -25.112  65.472  0.00  0.00    -0.214 NA
BRANCH   4   3
ATOM      1  C   UNL     1      46.581 -20.824  63.075  0.00  0.00    +0.020 A 
ATOM      2  C   UNL     1      45.724 -21.731  63.803  0.00  0.00    +0.013 A 
ATOM      3  C   UNL     1      46.278 -22.893  64.485  0.00  0.00    +0.019 A 
ATOM     38  C   UNL     1      47.715 -23.110  64.413  0.00  0.00    +0.120 A 
ATOM     39  N   UNL     1      48.516 -22.220  63.703  0.00  0.00    -0.263 NA
ATOM     40  C   UNL     1      47.994 -21.099  63.041  0.00  0.00    +0.111 A 
ENDBRANCH   4   3
ENDBRANCH  10   9
BRANCH  12  13
ATOM     13  N   UNL     1      42.667 -31.041  66.464  0.00  0.00    -0.281 N 
ATOM     14  C   UNL     1      41.492 -30.666  65.834  0.00  0.00    +0.248 C 
ATOM     30  O   UNL     1      40.999 -29.550  65.898  0.00  0.00    -0.270 OA
ATOM     31  H   UNL     1      42.862 -32.042  66.491  0.00  0.00    +0.155 HD
BRANCH  14  15
ATOM     15  C   UNL     1      40.749 -31.682  65.028  0.00  0.00    +0.037 A 
ATOM     16  C   UNL     1      41.209 -32.079  63.694  0.00  0.00    +0.013 A 
ATOM     17  C   UNL     1      40.464 -33.048  62.931  0.00  0.00    +0.005 A 
ATOM     18  C   UNL     1      39.251 -33.630  63.501  0.00  0.00    -0.033 A 
ATOM     28  C   UNL     1      38.820 -33.223  64.828  0.00  0.00    +0.005 A 
ATOM     29  C   UNL     1      39.547 -32.272  65.579  0.00  0.00    +0.013 A 
BRANCH  18  19
ATOM     19  C   UNL     1      38.382 -34.656  62.749  0.00  0.00    +0.119 C 
BRANCH  19  20
ATOM     20  N   UNL     1      37.383 -34.123  61.775  0.00  0.00    -0.302 NA
ATOM     21  C   UNL     1      36.090 -34.943  61.772  0.00  0.00    +0.066 C 
ATOM     22  C   UNL     1      35.048 -34.358  60.763  0.00  0.00    -0.064 C 
ATOM     23  N   UNL     1      35.665 -34.314  59.365  0.00  0.00    +0.379 N 
ATOM     24  C   UNL     1      34.669 -33.819  58.404  0.00  0.00    -0.096 C 
ATOM     25  H   UNL     1      35.924 -35.359  59.076  0.00  0.00    -0.082 HD
ATOM     26  C   UNL     1      36.953 -33.502  59.360  0.00  0.00    -0.064 C 
ATOM     27  C   UNL     1      37.971 -34.074  60.386  0.00  0.00    +0.066 C 
ENDBRANCH  19  20
ENDBRANCH  18  19
ENDBRANCH  14  15
ENDBRANCH  12  13
TORSDOF 6
ENDMDL
