MODEL 1
REMARK VINA RESULT:      -7.2      0.000      0.000
REMARK  Name = C:\Users\Docking\Desktop\test protocol\1iep_ligandH.pdb
REMARK  8 active torsions:
REMARK  status: ('A' for Active; 'I' for Inactive)
REMARK    1  A    between atoms: _5  and  _11
REMARK    2  A    between atoms: _19  and  _21
REMARK    3  A    between atoms: _22  and  _66
REMARK    4  A    between atoms: _27  and  _30
REMARK    5  A    between atoms: _32  and  _33
REMARK    6  A    between atoms: _38  and  _43
REMARK    7  A    between atoms: _43  and  _46
REMARK    8  A    between atoms: _53  and  _55
REMARK                            x       y       z     vdW  Elec       q    Type
REMARK                         _______ _______ _______ _____ _____    ______ ____
ROOT
ATOM     10  C   UNL     1      18.348  10.800  -2.494  0.00  0.00    +0.038 A 
ATOM     11  C   UNL     1      18.785  11.290  -1.237  0.00  0.00    +0.047 A 
ATOM     12  C   UNL     1      20.085  10.924  -0.697  0.00  0.00    +0.035 A 
ATOM     32  C   UNL     1      20.916  10.058  -1.466  0.00  0.00    +0.024 A 
ATOM     33  C   UNL     1      20.488   9.550  -2.746  0.00  0.00    +0.007 A 
ATOM     34  C   UNL     1      19.205   9.906  -3.282  0.00  0.00    -0.029 A 
ATOM     35  C   UNL     1      18.795   9.326  -4.656  0.00  0.00    +0.045 C 
ENDROOT
BRANCH  10   9
ATOM      4  C   UNL     1      13.565  10.411  -2.591  0.00  0.00    +0.077 A 
ATOM      5  C   UNL     1      13.575   9.333  -1.645  0.00  0.00    +0.048 A 
ATOM      6  C   UNL     1      14.832   8.904  -1.163  0.00  0.00    +0.116 A 
ATOM      7  N   UNL     1      15.987   9.514  -1.601  0.00  0.00    -0.223 NA
ATOM      8  C   UNL     1      15.942  10.550  -2.516  0.00  0.00    +0.220 A 
ATOM      9  N   UNL     1      17.091  11.184  -2.965  0.00  0.00    -0.283 N 
ATOM     36  H   UNL     1      17.016  11.940  -3.646  0.00  0.00    +0.155 HD
ATOM     37  N   UNL     1      14.754  10.978  -2.993  0.00  0.00    -0.214 NA
BRANCH   4   3
ATOM      1  C   UNL     1      11.009  11.988  -5.096  0.00  0.00    +0.020 A 
ATOM      2  C   UNL     1      12.240  11.449  -4.567  0.00  0.00    +0.013 A 
ATOM      3  C   UNL     1      12.316  10.979  -3.190  0.00  0.00    +0.019 A 
ATOM     38  C   UNL     1      11.118  11.068  -2.368  0.00  0.00    +0.120 A 
ATOM     39  N   UNL     1       9.947  11.594  -2.904  0.00  0.00    -0.263 NA
ATOM     40  C   UNL     1       9.863  12.051  -4.228  0.00  0.00    +0.111 A 
ENDBRANCH   4   3
ENDBRANCH  10   9
BRANCH  12  13
ATOM     13  N   UNL     1      20.579  11.383   0.577  0.00  0.00    -0.281 N 
ATOM     14  C   UNL     1      20.543  10.721   1.793  0.00  0.00    +0.248 C 
ATOM     30  O   UNL     1      19.885   9.716   2.014  0.00  0.00    -0.270 OA
ATOM     31  H   UNL     1      21.007  12.309   0.583  0.00  0.00    +0.155 HD
BRANCH  14  15
ATOM     15  C   UNL     1      21.343  11.263   2.934  0.00  0.00    +0.037 A 
ATOM     16  C   UNL     1      22.321  10.431   3.640  0.00  0.00    +0.013 A 
ATOM     17  C   UNL     1      23.066  10.974   4.748  0.00  0.00    +0.005 A 
ATOM     18  C   UNL     1      22.837  12.357   5.156  0.00  0.00    -0.033 A 
ATOM     28  C   UNL     1      21.865  13.162   4.435  0.00  0.00    +0.005 A 
ATOM     29  C   UNL     1      21.131  12.634   3.349  0.00  0.00    +0.013 A 
BRANCH  18  19
ATOM     19  C   UNL     1      23.572  13.013   6.340  0.00  0.00    +0.119 C 
BRANCH  19  20
ATOM     20  N   UNL     1      22.740  13.743   7.342  0.00  0.00    -0.302 NA
ATOM     21  C   UNL     1      23.015  15.249   7.329  0.00  0.00    +0.066 C 
ATOM     22  C   UNL     1      22.119  16.001   8.367  0.00  0.00    -0.064 C 
ATOM     23  N   UNL     1      22.361  15.418   9.761  0.00  0.00    +0.379 N 
ATOM     24  C   UNL     1      21.564  16.161  10.748  0.00  0.00    -0.096 C 
ATOM     25  H   UNL     1      23.437  15.572  10.010  0.00  0.00    -0.082 HD
ATOM     26  C   UNL     1      22.093  13.920   9.782  0.00  0.00    -0.064 C 
ATOM     27  C   UNL     1      22.966  13.187   8.727  0.00  0.00    +0.066 C 
ENDBRANCH  19  20
ENDBRANCH  18  19
ENDBRANCH  14  15
ENDBRANCH  12  13
TORSDOF 6
ENDMDL
MODEL 2
REMARK VINA RESULT:      -7.1     12.302     21.565
REMARK  Name = C:\Users\Docking\Desktop\test protocol\1iep_ligandH.pdb
REMARK  8 active torsions:
REMARK  status: ('A' for Active; 'I' for Inactive)
REMARK    1  A    between atoms: _5  and  _11
REMARK    2  A    between atoms: _19  and  _21
REMARK    3  A    between atoms: _22  and  _66
REMARK    4  A    between atoms: _27  and  _30
REMARK    5  A    between atoms: _32  and  _33
REMARK    6  A    between atoms: _38  and  _43
REMARK    7  A    between atoms: _43  and  _46
REMARK    8  A    between atoms: _53  and  _55
REMARK                            x       y       z     vdW  Elec       q    Type
REMARK                         _______ _______ _______ _____ _____    ______ ____
ROOT
ATOM     10  C   UNL     1      28.913   7.780  18.544  0.00  0.00    +0.038 A 
ATOM     11  C   UNL     1      28.566   8.037  17.193  0.00  0.00    +0.047 A 
ATOM     12  C   UNL     1      27.237   8.506  16.834  0.00  0.00    +0.035 A 
ATOM     32  C   UNL     1      26.286   8.704  17.878  0.00  0.00    +0.024 A 
ATOM     33  C   UNL     1      26.621   8.447  19.256  0.00  0.00    +0.007 A 
ATOM     34  C   UNL     1      27.931   7.982  19.616  0.00  0.00    -0.029 A 
ATOM     35  C   UNL     1      28.233   7.716  21.109  0.00  0.00    +0.045 C 
ENDROOT
BRANCH  10   9
ATOM      4  C   UNL     1      32.093   4.280  19.369  0.00  0.00    +0.077 A 
ATOM      5  C   UNL     1      31.092   3.260  19.242  0.00  0.00    +0.048 A 
ATOM      6  C   UNL     1      29.770   3.678  18.972  0.00  0.00    +0.116 A 
ATOM      7  N   UNL     1      29.481   5.020  18.839  0.00  0.00    -0.223 NA
ATOM      8  C   UNL     1      30.470   5.978  18.969  0.00  0.00    +0.220 A 
ATOM      9  N   UNL     1      30.204   7.331  18.832  0.00  0.00    -0.283 N 
ATOM     36  H   UNL     1      30.960   8.007  18.942  0.00  0.00    +0.155 HD
ATOM     37  N   UNL     1      31.740   5.604  19.229  0.00  0.00    -0.214 NA
BRANCH   4   3
ATOM      1  C   UNL     1      35.635   4.241  21.027  0.00  0.00    +0.020 A 
ATOM      2  C   UNL     1      34.241   4.547  20.801  0.00  0.00    +0.013 A 
ATOM      3  C   UNL     1      33.535   3.996  19.651  0.00  0.00    +0.019 A 
ATOM     38  C   UNL     1      34.274   3.131  18.743  0.00  0.00    +0.120 A 
ATOM     39  N   UNL     1      35.616   2.856  18.986  0.00  0.00    -0.263 NA
ATOM     40  C   UNL     1      36.306   3.382  20.088  0.00  0.00    +0.111 A 
ENDBRANCH   4   3
ENDBRANCH  10   9
BRANCH  12  13
ATOM     13  N   UNL     1      26.824   8.776  15.479  0.00  0.00    -0.281 N 
ATOM     14  C   UNL     1      26.374   7.873  14.530  0.00  0.00    +0.248 C 
ATOM     30  O   UNL     1      26.461   6.659  14.635  0.00  0.00    -0.270 OA
ATOM     31  H   UNL     1      26.869   9.751  15.184  0.00  0.00    +0.155 HD
BRANCH  14  15
ATOM     15  C   UNL     1      25.750   8.395  13.276  0.00  0.00    +0.037 A 
ATOM     16  C   UNL     1      26.210   7.951  11.957  0.00  0.00    +0.013 A 
ATOM     17  C   UNL     1      25.602   8.483  10.763  0.00  0.00    +0.005 A 
ATOM     18  C   UNL     1      24.527   9.464  10.883  0.00  0.00    -0.033 A 
ATOM     28  C   UNL     1      24.087   9.883  12.204  0.00  0.00    +0.005 A 
ATOM     29  C   UNL     1      24.681   9.365  13.376  0.00  0.00    +0.013 A 
BRANCH  18  19
ATOM     19  C   UNL     1      23.836  10.101   9.663  0.00  0.00    +0.119 C 
BRANCH  19  20
ATOM     20  N   UNL     1      23.010  11.321   9.904  0.00  0.00    -0.302 NA
ATOM     21  C   UNL     1      21.517  11.056   9.691  0.00  0.00    +0.066 C 
ATOM     22  C   UNL     1      20.665  12.337   9.970  0.00  0.00    -0.064 C 
ATOM     23  N   UNL     1      21.148  13.473   9.066  0.00  0.00    +0.379 N 
ATOM     24  C   UNL     1      20.312  14.663   9.284  0.00  0.00    -0.096 C 
ATOM     25  H   UNL     1      21.005  13.148   8.009  0.00  0.00    -0.082 HD
ATOM     26  C   UNL     1      22.632  13.742   9.269  0.00  0.00    -0.064 C 
ATOM     27  C   UNL     1      23.466  12.455   9.018  0.00  0.00    +0.066 C 
ENDBRANCH  19  20
ENDBRANCH  18  19
ENDBRANCH  14  15
ENDBRANCH  12  13
TORSDOF 6
ENDMDL
MODEL 3
REMARK VINA RESULT:      -7.0     17.027     25.017
REMARK  Name = C:\Users\Docking\Desktop\test protocol\1iep_ligandH.pdb
REMARK  8 active torsions:
REMARK  status: ('A' for Active; 'I' for Inactive)
REMARK    1  A    between atoms: _5  and  _11
REMARK    2  A    between atoms: _19  and  _21
REMARK    3  A    between atoms: _22  and  _66
REMARK    4  A    between atoms: _27  and  _30
REMARK    5  A    between atoms: _32  and  _33
REMARK    6  A    between atoms: _38  and  _43
REMARK    7  A    between atoms: _43  and  _46
REMARK    8  A    between atoms: _53  and  _55
REMARK                            x       y       z     vdW  Elec       q    Type
REMARK                         _______ _______ _______ _____ _____    ______ ____
ROOT
ATOM     10  C   UNL     1      41.368  17.739   7.748  0.00  0.00    +0.038 A 
ATOM     11  C   UNL     1      40.095  17.160   7.510  0.00  0.00    +0.047 A 
ATOM     12  C   UNL     1      39.542  17.087   6.167  0.00  0.00    +0.035 A 
ATOM     32  C   UNL     1      40.312  17.611   5.089  0.00  0.00    +0.024 A 
ATOM     33  C   UNL     1      41.607  18.204   5.313  0.00  0.00    +0.007 A 
ATOM     34  C   UNL     1      42.157  18.282   6.636  0.00  0.00    -0.029 A 
ATOM     35  C   UNL     1      43.547  18.935   6.819  0.00  0.00    +0.045 C 
ENDROOT
BRANCH  10   9
ATOM      4  C   UNL     1      43.729  15.812  11.456  0.00  0.00    +0.077 A 
ATOM      5  C   UNL     1      44.000  14.604  10.732  0.00  0.00    +0.048 A 
ATOM      6  C   UNL     1      43.508  14.515   9.410  0.00  0.00    +0.116 A 
ATOM      7  N   UNL     1      42.799  15.564   8.864  0.00  0.00    -0.223 NA
ATOM      8  C   UNL     1      42.554  16.714   9.590  0.00  0.00    +0.220 A 
ATOM      9  N   UNL     1      41.851  17.784   9.058  0.00  0.00    -0.283 N 
ATOM     36  H   UNL     1      41.684  18.612   9.629  0.00  0.00    +0.155 HD
ATOM     37  N   UNL     1      43.012  16.823  10.855  0.00  0.00    -0.214 NA
BRANCH   4   3
ATOM      1  C   UNL     1      44.785  17.576  14.784  0.00  0.00    +0.020 A 
ATOM      2  C   UNL     1      44.342  17.394  13.421  0.00  0.00    +0.013 A 
ATOM      3  C   UNL     1      44.185  16.057  12.861  0.00  0.00    +0.019 A 
ATOM     38  C   UNL     1      44.487  14.917  13.713  0.00  0.00    +0.120 A 
ATOM     39  N   UNL     1      44.913  15.123  15.021  0.00  0.00    -0.263 NA
ATOM     40  C   UNL     1      45.069  16.405  15.571  0.00  0.00    +0.111 A 
ENDBRANCH   4   3
ENDBRANCH  10   9
BRANCH  12  13
ATOM     13  N   UNL     1      38.252  16.517   5.865  0.00  0.00    -0.281 N 
ATOM     14  C   UNL     1      37.009  16.944   6.302  0.00  0.00    +0.248 C 
ATOM     30  O   UNL     1      36.833  17.757   7.197  0.00  0.00    -0.270 OA
ATOM     31  H   UNL     1      38.256  15.699   5.255  0.00  0.00    +0.155 HD
BRANCH  14  15
ATOM     15  C   UNL     1      35.783  16.375   5.663  0.00  0.00    +0.037 A 
ATOM     16  C   UNL     1      34.617  15.991   6.463  0.00  0.00    +0.013 A 
ATOM     17  C   UNL     1      33.455  15.429   5.823  0.00  0.00    +0.005 A 
ATOM     18  C   UNL     1      33.453  15.247   4.373  0.00  0.00    -0.033 A 
ATOM     28  C   UNL     1      34.621  15.640   3.603  0.00  0.00    +0.005 A 
ATOM     29  C   UNL     1      35.763  16.191   4.227  0.00  0.00    +0.013 A 
BRANCH  18  19
ATOM     19  C   UNL     1      32.264  14.635   3.609  0.00  0.00    +0.119 C 
BRANCH  19  20
ATOM     20  N   UNL     1      31.482  15.544   2.719  0.00  0.00    -0.302 NA
ATOM     21  C   UNL     1      30.239  14.857   2.146  0.00  0.00    +0.066 C 
ATOM     22  C   UNL     1      29.420  15.830   1.236  0.00  0.00    -0.064 C 
ATOM     23  N   UNL     1      30.318  16.349   0.112  0.00  0.00    +0.379 N 
ATOM     24  C   UNL     1      29.535  17.218  -0.779  0.00  0.00    -0.096 C 
ATOM     25  H   UNL     1      30.656  15.470  -0.484  0.00  0.00    -0.082 HD
ATOM     26  C   UNL     1      31.558  17.031   0.673  0.00  0.00    -0.064 C 
ATOM     27  C   UNL     1      32.348  16.065   1.600  0.00  0.00    +0.066 C 
ENDBRANCH  19  20
ENDBRANCH  18  19
ENDBRANCH  14  15
ENDBRANCH  12  13
TORSDOF 6
ENDMDL
MODEL 4
REMARK VINA RESULT:      -6.9     18.377     21.519
REMARK  Name = C:\Users\Docking\Desktop\test protocol\1iep_ligandH.pdb
REMARK  8 active torsions:
REMARK  status: ('A' for Active; 'I' for Inactive)
REMARK    1  A    between atoms: _5  and  _11
REMARK    2  A    between atoms: _19  and  _21
REMARK    3  A    between atoms: _22  and  _66
REMARK    4  A    between atoms: _27  and  _30
REMARK    5  A    between atoms: _32  and  _33
REMARK    6  A    between atoms: _38  and  _43
REMARK    7  A    between atoms: _43  and  _46
REMARK    8  A    between atoms: _53  and  _55
REMARK                            x       y       z     vdW  Elec       q    Type
REMARK                         _______ _______ _______ _____ _____    ______ ____
ROOT
ATOM     10  C   UNL     1      17.363  21.802 -15.337  0.00  0.00    +0.038 A 
ATOM     11  C   UNL     1      17.537  23.181 -15.055  0.00  0.00    +0.047 A 
ATOM     12  C   UNL     1      18.856  23.734 -14.787  0.00  0.00    +0.035 A 
ATOM     32  C   UNL     1      19.976  22.854 -14.818  0.00  0.00    +0.024 A 
ATOM     33  C   UNL     1      19.817  21.449 -15.102  0.00  0.00    +0.007 A 
ATOM     34  C   UNL     1      18.519  20.898 -15.364  0.00  0.00    -0.029 A 
ATOM     35  C   UNL     1      18.407  19.383 -15.656  0.00  0.00    +0.045 C 
ENDROOT
BRANCH  10   9
ATOM      4  C   UNL     1      13.293  19.677 -13.939  0.00  0.00    +0.077 A 
ATOM      5  C   UNL     1      13.785  19.476 -12.607  0.00  0.00    +0.048 A 
ATOM      6  C   UNL     1      15.094  19.928 -12.324  0.00  0.00    +0.116 A 
ATOM      7  N   UNL     1      15.845  20.534 -13.308  0.00  0.00    -0.223 NA
ATOM      8  C   UNL     1      15.340  20.711 -14.583  0.00  0.00    +0.220 A 
ATOM      9  N   UNL     1      16.074  21.325 -15.586  0.00  0.00    -0.283 N 
ATOM     36  H   UNL     1      15.669  21.429 -16.516  0.00  0.00    +0.155 HD
ATOM     37  N   UNL     1      14.093  20.287 -14.879  0.00  0.00    -0.214 NA
BRANCH   4   3
ATOM      1  C   UNL     1      10.358  18.135 -16.015  0.00  0.00    +0.020 A 
ATOM      2  C   UNL     1      11.696  18.516 -15.625  0.00  0.00    +0.013 A 
ATOM      3  C   UNL     1      11.928  19.257 -14.391  0.00  0.00    +0.019 A 
ATOM     38  C   UNL     1      10.777  19.598 -13.569  0.00  0.00    +0.120 A 
ATOM     39  N   UNL     1       9.501  19.218 -13.971  0.00  0.00    -0.263 NA
ATOM     40  C   UNL     1       9.264  18.507 -15.157  0.00  0.00    +0.111 A 
ENDBRANCH   4   3
ENDBRANCH  10   9
BRANCH  12  13
ATOM     13  N   UNL     1      19.093  25.124 -14.487  0.00  0.00    -0.281 N 
ATOM     14  C   UNL     1      19.204  26.181 -15.376  0.00  0.00    +0.248 C 
ATOM     30  O   UNL     1      19.330  26.056 -16.585  0.00  0.00    -0.270 OA
ATOM     31  H   UNL     1      19.190  25.358 -13.499  0.00  0.00    +0.155 HD
BRANCH  14  15
ATOM     15  C   UNL     1      19.188  27.577 -14.844  0.00  0.00    +0.037 A 
ATOM     16  C   UNL     1      20.394  28.410 -14.858  0.00  0.00    +0.013 A 
ATOM     17  C   UNL     1      20.355  29.747 -14.322  0.00  0.00    +0.005 A 
ATOM     18  C   UNL     1      19.104  30.262 -13.770  0.00  0.00    -0.033 A 
ATOM     28  C   UNL     1      17.922  29.416 -13.774  0.00  0.00    +0.005 A 
ATOM     29  C   UNL     1      17.956  28.104 -14.296  0.00  0.00    +0.013 A 
BRANCH  18  19
ATOM     19  C   UNL     1      18.976  31.670 -13.158  0.00  0.00    +0.119 C 
BRANCH  19  20
ATOM     20  N   UNL     1      17.616  32.286 -13.139  0.00  0.00    -0.302 NA
ATOM     21  C   UNL     1      17.426  33.295 -14.275  0.00  0.00    +0.066 C 
ATOM     22  C   UNL     1      15.990  33.913 -14.254  0.00  0.00    -0.064 C 
ATOM     23  N   UNL     1      15.743  34.573 -12.896  0.00  0.00    +0.379 N 
ATOM     24  C   UNL     1      14.415  35.205 -12.893  0.00  0.00    -0.096 C 
ATOM     25  H   UNL     1      16.502  35.379 -12.769  0.00  0.00    -0.082 HD
ATOM     26  C   UNL     1      15.932  33.577 -11.761  0.00  0.00    -0.064 C 
ATOM     27  C   UNL     1      17.352  32.947 -11.809  0.00  0.00    +0.066 C 
ENDBRANCH  19  20
ENDBRANCH  18  19
ENDBRANCH  14  15
ENDBRANCH  12  13
TORSDOF 6
ENDMDL
MODEL 5
REMARK VINA RESULT:      -6.9     18.909     21.612
REMARK  Name = C:\Users\Docking\Desktop\test protocol\1iep_ligandH.pdb
REMARK  8 active torsions:
REMARK  status: ('A' for Active; 'I' for Inactive)
REMARK    1  A    between atoms: _5  and  _11
REMARK    2  A    between atoms: _19  and  _21
REMARK    3  A    between atoms: _22  and  _66
REMARK    4  A    between atoms: _27  and  _30
REMARK    5  A    between atoms: _32  and  _33
REMARK    6  A    between atoms: _38  and  _43
REMARK    7  A    between atoms: _43  and  _46
REMARK    8  A    between atoms: _53  and  _55
REMARK                            x       y       z     vdW  Elec       q    Type
REMARK                         _______ _______ _______ _____ _____    ______ ____
ROOT
ATOM     10  C   UNL     1      17.362  21.815 -15.365  0.00  0.00    +0.038 A 
ATOM     11  C   UNL     1      17.580  23.187 -15.082  0.00  0.00    +0.047 A 
ATOM     12  C   UNL     1      18.917  23.701 -14.831  0.00  0.00    +0.035 A 
ATOM     32  C   UNL     1      20.011  22.788 -14.878  0.00  0.00    +0.024 A 
ATOM     33  C   UNL     1      19.808  21.390 -15.164  0.00  0.00    +0.007 A 
ATOM     34  C   UNL     1      18.490  20.877 -15.410  0.00  0.00    -0.029 A 
ATOM     35  C   UNL     1      18.330  19.367 -15.704  0.00  0.00    +0.045 C 
ENDROOT
BRANCH  10   9
ATOM      4  C   UNL     1      13.269  19.756 -13.934  0.00  0.00    +0.077 A 
ATOM      5  C   UNL     1      13.784  19.510 -12.618  0.00  0.00    +0.048 A 
ATOM      6  C   UNL     1      15.109  19.922 -12.352  0.00  0.00    +0.116 A 
ATOM      7  N   UNL     1      15.854  20.534 -13.337  0.00  0.00    -0.223 NA
ATOM      8  C   UNL     1      15.328  20.755 -14.596  0.00  0.00    +0.220 A 
ATOM      9  N   UNL     1      16.057  21.376 -15.599  0.00  0.00    -0.283 N 
ATOM     36  H   UNL     1      15.635  21.514 -16.517  0.00  0.00    +0.155 HD
ATOM     37  N   UNL     1      14.065  20.370 -14.876  0.00  0.00    -0.214 NA
BRANCH   4   3
ATOM      1  C   UNL     1      10.242  18.439 -16.033  0.00  0.00    +0.020 A 
ATOM      2  C   UNL     1      11.596  18.782 -15.664  0.00  0.00    +0.013 A 
ATOM      3  C   UNL     1      11.885  19.382 -14.368  0.00  0.00    +0.019 A 
ATOM     38  C   UNL     1      10.773  19.623 -13.461  0.00  0.00    +0.120 A 
ATOM     39  N   UNL     1       9.480  19.284 -13.844  0.00  0.00    -0.263 NA
ATOM     40  C   UNL     1       9.189  18.707 -15.090  0.00  0.00    +0.111 A 
ENDBRANCH   4   3
ENDBRANCH  10   9
BRANCH  12  13
ATOM     13  N   UNL     1      19.199  25.083 -14.530  0.00  0.00    -0.281 N 
ATOM     14  C   UNL     1      19.415  26.121 -15.421  0.00  0.00    +0.248 C 
ATOM     30  O   UNL     1      19.612  25.975 -16.619  0.00  0.00    -0.270 OA
ATOM     31  H   UNL     1      19.244  25.325 -13.540  0.00  0.00    +0.155 HD
BRANCH  14  15
ATOM     15  C   UNL     1      19.430  27.524 -14.906  0.00  0.00    +0.037 A 
ATOM     16  C   UNL     1      18.282  28.081 -14.185  0.00  0.00    +0.013 A 
ATOM     17  C   UNL     1      18.316  29.442 -13.714  0.00  0.00    +0.005 A 
ATOM     18  C   UNL     1      19.503  30.257 -13.960  0.00  0.00    -0.033 A 
ATOM     28  C   UNL     1      20.630  29.677 -14.673  0.00  0.00    +0.005 A 
ATOM     29  C   UNL     1      20.600  28.344 -15.138  0.00  0.00    +0.013 A 
BRANCH  18  19
ATOM     19  C   UNL     1      19.618  31.726 -13.511  0.00  0.00    +0.119 C 
BRANCH  19  20
ATOM     20  N   UNL     1      20.905  32.428 -13.793  0.00  0.00    -0.302 NA
ATOM     21  C   UNL     1      21.532  33.011 -12.523  0.00  0.00    +0.066 C 
ATOM     22  C   UNL     1      22.889  33.722 -12.832  0.00  0.00    -0.064 C 
ATOM     23  N   UNL     1      22.661  34.818 -13.875  0.00  0.00    +0.379 N 
ATOM     24  C   UNL     1      23.924  35.527 -14.126  0.00  0.00    -0.096 C 
ATOM     25  H   UNL     1      21.941  35.551 -13.443  0.00  0.00    -0.082 HD
ATOM     26  C   UNL     1      22.036  34.247 -15.141  0.00  0.00    -0.064 C 
ATOM     27  C   UNL     1      20.702  33.517 -14.818  0.00  0.00    +0.066 C 
ENDBRANCH  19  20
ENDBRANCH  18  19
ENDBRANCH  14  15
ENDBRANCH  12  13
TORSDOF 6
ENDMDL
