MODEL 1
REMARK VINA RESULT:      -8.8      0.000      0.000
REMARK  Name = C:\Users\Docking\Desktop\test protocol\1iep_ligandH.pdb
REMARK  8 active torsions:
REMARK  status: ('A' for Active; 'I' for Inactive)
REMARK    1  A    between atoms: _5  and  _11
REMARK    2  A    between atoms: _19  and  _21
REMARK    3  A    between atoms: _22  and  _66
REMARK    4  A    between atoms: _27  and  _30
REMARK    5  A    between atoms: _32  and  _33
REMARK    6  A    between atoms: _38  and  _43
REMARK    7  A    between atoms: _43  and  _46
REMARK    8  A    between atoms: _53  and  _55
REMARK                            x       y       z     vdW  Elec       q    Type
REMARK                         _______ _______ _______ _____ _____    ______ ____
ROOT
ATOM     10  C   UNL     1     -10.249  -7.719  44.010  0.00  0.00    +0.038 A 
ATOM     11  C   UNL     1      -8.927  -8.227  43.946  0.00  0.00    +0.047 A 
ATOM     12  C   UNL     1      -8.345  -8.655  42.683  0.00  0.00    +0.035 A 
ATOM     32  C   UNL     1      -9.139  -8.550  41.504  0.00  0.00    +0.024 A 
ATOM     33  C   UNL     1     -10.486  -8.037  41.551  0.00  0.00    +0.007 A 
ATOM     34  C   UNL     1     -11.065  -7.615  42.794  0.00  0.00    -0.029 A 
ATOM     35  C   UNL     1     -12.516  -7.079  42.786  0.00  0.00    +0.045 C 
ENDROOT
BRANCH  10   9
ATOM      4  C   UNL     1     -12.473  -8.636  48.163  0.00  0.00    +0.077 A 
ATOM      5  C   UNL     1     -12.663 -10.017  47.825  0.00  0.00    +0.048 A 
ATOM      6  C   UNL     1     -12.180 -10.450  46.569  0.00  0.00    +0.116 A 
ATOM      7  N   UNL     1     -11.555  -9.559  45.724  0.00  0.00    -0.223 NA
ATOM      8  C   UNL     1     -11.390  -8.233  46.080  0.00  0.00    +0.220 A 
ATOM      9  N   UNL     1     -10.757  -7.322  45.249  0.00  0.00    -0.283 N 
ATOM     36  H   UNL     1     -10.661  -6.351  45.545  0.00  0.00    +0.155 HD
ATOM     37  N   UNL     1     -11.843  -7.795  47.273  0.00  0.00    -0.214 NA
BRANCH   4   3
ATOM      1  C   UNL     1     -12.486  -6.960  51.698  0.00  0.00    +0.020 A 
ATOM      2  C   UNL     1     -11.998  -7.539  50.467  0.00  0.00    +0.013 A 
ATOM      3  C   UNL     1     -12.925  -8.029  49.455  0.00  0.00    +0.019 A 
ATOM     38  C   UNL     1     -14.351  -7.917  49.720  0.00  0.00    +0.120 A 
ATOM     39  N   UNL     1     -14.792  -7.357  50.915  0.00  0.00    -0.263 NA
ATOM     40  C   UNL     1     -13.910  -6.883  51.897  0.00  0.00    +0.111 A 
ENDBRANCH   4   3
ENDBRANCH  10   9
BRANCH  12  13
ATOM     13  N   UNL     1      -7.011  -9.186  42.558  0.00  0.00    -0.281 N 
ATOM     14  C   UNL     1      -5.811  -8.547  42.825  0.00  0.00    +0.248 C 
ATOM     30  O   UNL     1      -5.695  -7.345  43.011  0.00  0.00    -0.270 OA
ATOM     31  H   UNL     1      -6.942 -10.150  42.232  0.00  0.00    +0.155 HD
BRANCH  14  15
ATOM     15  C   UNL     1      -4.557  -9.359  42.881  0.00  0.00    +0.037 A 
ATOM     16  C   UNL     1      -3.525  -9.235  41.848  0.00  0.00    +0.013 A 
ATOM     17  C   UNL     1      -2.333 -10.042  41.917  0.00  0.00    +0.005 A 
ATOM     18  C   UNL     1      -2.166 -10.980  43.025  0.00  0.00    -0.033 A 
ATOM     28  C   UNL     1      -3.203 -11.079  44.038  0.00  0.00    +0.005 A 
ATOM     29  C   UNL     1      -4.373 -10.290  43.974  0.00  0.00    +0.013 A 
BRANCH  18  19
ATOM     19  C   UNL     1      -0.936 -11.896  43.167  0.00  0.00    +0.119 C 
BRANCH  19  20
ATOM     20  N   UNL     1      -0.798 -13.013  42.185  0.00  0.00    -0.302 NA
ATOM     21  C   UNL     1      -0.204 -12.540  40.856  0.00  0.00    +0.066 C 
ATOM     22  C   UNL     1      -0.046 -13.726  39.849  0.00  0.00    -0.064 C 
ATOM     23  N   UNL     1      -1.407 -14.388  39.628  0.00  0.00    +0.379 N 
ATOM     24  C   UNL     1      -1.273 -15.467  38.638  0.00  0.00    -0.096 C 
ATOM     25  H   UNL     1      -2.092 -13.620  39.201  0.00  0.00    -0.082 HD
ATOM     26  C   UNL     1      -2.007 -14.860  40.946  0.00  0.00    -0.064 C 
ATOM     27  C   UNL     1      -2.132 -13.680  41.949  0.00  0.00    +0.066 C 
ENDBRANCH  19  20
ENDBRANCH  18  19
ENDBRANCH  14  15
ENDBRANCH  12  13
TORSDOF 6
ENDMDL
MODEL 2
REMARK VINA RESULT:      -8.0     15.566     19.631
REMARK  Name = C:\Users\Docking\Desktop\test protocol\1iep_ligandH.pdb
REMARK  8 active torsions:
REMARK  status: ('A' for Active; 'I' for Inactive)
REMARK    1  A    between atoms: _5  and  _11
REMARK    2  A    between atoms: _19  and  _21
REMARK    3  A    between atoms: _22  and  _66
REMARK    4  A    between atoms: _27  and  _30
REMARK    5  A    between atoms: _32  and  _33
REMARK    6  A    between atoms: _38  and  _43
REMARK    7  A    between atoms: _43  and  _46
REMARK    8  A    between atoms: _53  and  _55
REMARK                            x       y       z     vdW  Elec       q    Type
REMARK                         _______ _______ _______ _____ _____    ______ ____
ROOT
ATOM     10  C   UNL     1      -2.393   1.088  34.929  0.00  0.00    +0.038 A 
ATOM     11  C   UNL     1      -1.953   2.187  35.710  0.00  0.00    +0.047 A 
ATOM     12  C   UNL     1      -1.864   3.524  35.144  0.00  0.00    +0.035 A 
ATOM     32  C   UNL     1      -2.235   3.707  33.780  0.00  0.00    +0.024 A 
ATOM     33  C   UNL     1      -2.683   2.601  32.972  0.00  0.00    +0.007 A 
ATOM     34  C   UNL     1      -2.770   1.279  33.523  0.00  0.00    -0.029 A 
ATOM     35  C   UNL     1      -3.252   0.129  32.608  0.00  0.00    +0.045 C 
ENDROOT
BRANCH  10   9
ATOM      4  C   UNL     1      -0.688  -3.338  35.663  0.00  0.00    +0.077 A 
ATOM      5  C   UNL     1       0.413  -3.127  34.767  0.00  0.00    +0.048 A 
ATOM      6  C   UNL     1       0.499  -1.868  34.132  0.00  0.00    +0.116 A 
ATOM      7  N   UNL     1      -0.449  -0.900  34.382  0.00  0.00    -0.223 NA
ATOM      8  C   UNL     1      -1.498  -1.137  35.251  0.00  0.00    +0.220 A 
ATOM      9  N   UNL     1      -2.459  -0.175  35.523  0.00  0.00    -0.283 N 
ATOM     36  H   UNL     1      -3.221  -0.391  36.164  0.00  0.00    +0.155 HD
ATOM     37  N   UNL     1      -1.604  -2.331  35.869  0.00  0.00    -0.214 NA
BRANCH   4   3
ATOM      1  C   UNL     1      -1.085  -7.128  36.547  0.00  0.00    +0.020 A 
ATOM      2  C   UNL     1      -0.859  -5.926  35.779  0.00  0.00    +0.013 A 
ATOM      3  C   UNL     1      -0.914  -4.615  36.412  0.00  0.00    +0.019 A 
ATOM     38  C   UNL     1      -1.202  -4.554  37.837  0.00  0.00    +0.120 A 
ATOM     39  N   UNL     1      -1.417  -5.728  38.552  0.00  0.00    -0.263 NA
ATOM     40  C   UNL     1      -1.368  -6.996  37.952  0.00  0.00    +0.111 A 
ENDBRANCH   4   3
ENDBRANCH  10   9
BRANCH  12  13
ATOM     13  N   UNL     1      -1.417   4.677  35.886  0.00  0.00    -0.281 N 
ATOM     14  C   UNL     1      -2.158   5.781  36.274  0.00  0.00    +0.248 C 
ATOM     30  O   UNL     1      -3.276   6.045  35.855  0.00  0.00    -0.270 OA
ATOM     31  H   UNL     1      -0.434   4.679  36.159  0.00  0.00    +0.155 HD
BRANCH  14  15
ATOM     15  C   UNL     1      -1.568   6.737  37.259  0.00  0.00    +0.037 A 
ATOM     16  C   UNL     1      -0.154   7.116  37.198  0.00  0.00    +0.013 A 
ATOM     17  C   UNL     1       0.393   8.027  38.171  0.00  0.00    +0.005 A 
ATOM     18  C   UNL     1      -0.475   8.568  39.214  0.00  0.00    -0.033 A 
ATOM     28  C   UNL     1      -1.875   8.180  39.248  0.00  0.00    +0.005 A 
ATOM     29  C   UNL     1      -2.415   7.286  38.297  0.00  0.00    +0.013 A 
BRANCH  18  19
ATOM     19  C   UNL     1       0.029   9.530  40.306  0.00  0.00    +0.119 C 
BRANCH  19  20
ATOM     20  N   UNL     1      -0.545  10.909  40.320  0.00  0.00    -0.302 NA
ATOM     21  C   UNL     1       0.279  11.883  39.475  0.00  0.00    +0.066 C 
ATOM     22  C   UNL     1      -0.348  13.315  39.483  0.00  0.00    -0.064 C 
ATOM     23  N   UNL     1      -0.460  13.812  40.925  0.00  0.00    +0.379 N 
ATOM     24  C   UNL     1      -0.996  15.181  40.933  0.00  0.00    -0.096 C 
ATOM     25  H   UNL     1       0.569  13.849  41.351  0.00  0.00    -0.082 HD
ATOM     26  C   UNL     1      -1.276  12.847  41.774  0.00  0.00    -0.064 C 
ATOM     27  C   UNL     1      -0.661  11.420  41.735  0.00  0.00    +0.066 C 
ENDBRANCH  19  20
ENDBRANCH  18  19
ENDBRANCH  14  15
ENDBRANCH  12  13
TORSDOF 6
ENDMDL
MODEL 3
REMARK VINA RESULT:      -7.9     19.851     21.888
REMARK  Name = C:\Users\Docking\Desktop\test protocol\1iep_ligandH.pdb
REMARK  8 active torsions:
REMARK  status: ('A' for Active; 'I' for Inactive)
REMARK    1  A    between atoms: _5  and  _11
REMARK    2  A    between atoms: _19  and  _21
REMARK    3  A    between atoms: _22  and  _66
REMARK    4  A    between atoms: _27  and  _30
REMARK    5  A    between atoms: _32  and  _33
REMARK    6  A    between atoms: _38  and  _43
REMARK    7  A    between atoms: _43  and  _46
REMARK    8  A    between atoms: _53  and  _55
REMARK                            x       y       z     vdW  Elec       q    Type
REMARK                         _______ _______ _______ _____ _____    ______ ____
ROOT
ATOM     10  C   UNL     1      -0.896  10.527  41.459  0.00  0.00    +0.038 A 
ATOM     11  C   UNL     1      -1.517   9.781  40.425  0.00  0.00    +0.047 A 
ATOM     12  C   UNL     1      -1.109   8.416  40.133  0.00  0.00    +0.035 A 
ATOM     32  C   UNL     1      -0.067   7.840  40.917  0.00  0.00    +0.024 A 
ATOM     33  C   UNL     1       0.575   8.585  41.972  0.00  0.00    +0.007 A 
ATOM     34  C   UNL     1       0.179   9.933  42.263  0.00  0.00    -0.029 A 
ATOM     35  C   UNL     1       0.906  10.686  43.401  0.00  0.00    +0.045 C 
ENDROOT
BRANCH  10   9
ATOM      4  C   UNL     1      -0.932  15.221  40.454  0.00  0.00    +0.077 A 
ATOM      5  C   UNL     1       0.009  15.059  39.383  0.00  0.00    +0.048 A 
ATOM      6  C   UNL     1       0.483  13.752  39.128  0.00  0.00    +0.116 A 
ATOM      7  N   UNL     1       0.042  12.694  39.893  0.00  0.00    -0.223 NA
ATOM      8  C   UNL     1      -0.865  12.885  40.920  0.00  0.00    +0.220 A 
ATOM      9  N   UNL     1      -1.328  11.835  41.696  0.00  0.00    -0.283 N 
ATOM     36  H   UNL     1      -1.991  12.018  42.449  0.00  0.00    +0.155 HD
ATOM     37  N   UNL     1      -1.332  14.123  41.184  0.00  0.00    -0.214 NA
BRANCH   4   3
ATOM      1  C   UNL     1      -3.348  17.955  41.864  0.00  0.00    +0.020 A 
ATOM      2  C   UNL     1      -2.818  16.659  41.509  0.00  0.00    +0.013 A 
ATOM      3  C   UNL     1      -1.527  16.538  40.844  0.00  0.00    +0.019 A 
ATOM     38  C   UNL     1      -0.791  17.758  40.550  0.00  0.00    +0.120 A 
ATOM     39  N   UNL     1      -1.327  18.993  40.903  0.00  0.00    -0.263 NA
ATOM     40  C   UNL     1      -2.569  19.122  41.542  0.00  0.00    +0.111 A 
ENDBRANCH   4   3
ENDBRANCH  10   9
BRANCH  12  13
ATOM     13  N   UNL     1      -1.696   7.613  39.090  0.00  0.00    -0.281 N 
ATOM     14  C   UNL     1      -1.860   7.939  37.754  0.00  0.00    +0.248 C 
ATOM     30  O   UNL     1      -1.718   9.062  37.294  0.00  0.00    -0.270 OA
ATOM     31  H   UNL     1      -2.032   6.691  39.371  0.00  0.00    +0.155 HD
BRANCH  14  15
ATOM     15  C   UNL     1      -2.252   6.865  36.791  0.00  0.00    +0.037 A 
ATOM     16  C   UNL     1      -3.539   6.903  36.093  0.00  0.00    +0.013 A 
ATOM     17  C   UNL     1      -3.900   5.845  35.182  0.00  0.00    +0.005 A 
ATOM     18  C   UNL     1      -2.969   4.741  34.963  0.00  0.00    -0.033 A 
ATOM     28  C   UNL     1      -1.696   4.731  35.665  0.00  0.00    +0.005 A 
ATOM     29  C   UNL     1      -1.340   5.765  36.559  0.00  0.00    +0.013 A 
BRANCH  18  19
ATOM     19  C   UNL     1      -3.280   3.559  34.026  0.00  0.00    +0.119 C 
BRANCH  19  20
ATOM     20  N   UNL     1      -2.404   2.354  34.131  0.00  0.00    -0.302 NA
ATOM     21  C   UNL     1      -2.074   1.761  32.758  0.00  0.00    +0.066 C 
ATOM     22  C   UNL     1      -1.139   0.515  32.885  0.00  0.00    -0.064 C 
ATOM     23  N   UNL     1      -1.806  -0.530  33.781  0.00  0.00    +0.379 N 
ATOM     24  C   UNL     1      -0.955  -1.727  33.855  0.00  0.00    -0.096 C 
ATOM     25  H   UNL     1      -2.765  -0.827  33.296  0.00  0.00    -0.082 HD
ATOM     26  C   UNL     1      -2.139   0.051  35.147  0.00  0.00    -0.064 C 
ATOM     27  C   UNL     1      -3.045   1.307  35.007  0.00  0.00    +0.066 C 
ENDBRANCH  19  20
ENDBRANCH  18  19
ENDBRANCH  14  15
ENDBRANCH  12  13
TORSDOF 6
ENDMDL
MODEL 4
REMARK VINA RESULT:      -7.8     17.368     20.179
REMARK  Name = C:\Users\Docking\Desktop\test protocol\1iep_ligandH.pdb
REMARK  8 active torsions:
REMARK  status: ('A' for Active; 'I' for Inactive)
REMARK    1  A    between atoms: _5  and  _11
REMARK    2  A    between atoms: _19  and  _21
REMARK    3  A    between atoms: _22  and  _66
REMARK    4  A    between atoms: _27  and  _30
REMARK    5  A    between atoms: _32  and  _33
REMARK    6  A    between atoms: _38  and  _43
REMARK    7  A    between atoms: _43  and  _46
REMARK    8  A    between atoms: _53  and  _55
REMARK                            x       y       z     vdW  Elec       q    Type
REMARK                         _______ _______ _______ _____ _____    ______ ____
ROOT
ATOM     10  C   UNL     1      -0.032   8.712  39.607  0.00  0.00    +0.038 A 
ATOM     11  C   UNL     1      -0.437   7.635  38.778  0.00  0.00    +0.047 A 
ATOM     12  C   UNL     1      -1.824   7.480  38.370  0.00  0.00    +0.035 A 
ATOM     32  C   UNL     1      -2.774   8.442  38.823  0.00  0.00    +0.024 A 
ATOM     33  C   UNL     1      -2.380   9.542  39.667  0.00  0.00    +0.007 A 
ATOM     34  C   UNL     1      -1.013   9.699  40.075  0.00  0.00    -0.029 A 
ATOM     35  C   UNL     1      -0.649  10.894  40.986  0.00  0.00    +0.045 C 
ENDROOT
BRANCH  10   9
ATOM      4  C   UNL     1       3.609   7.924  42.634  0.00  0.00    +0.077 A 
ATOM      5  C   UNL     1       2.753   7.281  43.589  0.00  0.00    +0.048 A 
ATOM      6  C   UNL     1       1.381   7.179  43.266  0.00  0.00    +0.116 A 
ATOM      7  N   UNL     1       0.911   7.686  42.074  0.00  0.00    -0.223 NA
ATOM      8  C   UNL     1       1.763   8.303  41.176  0.00  0.00    +0.220 A 
ATOM      9  N   UNL     1       1.313   8.813  39.968  0.00  0.00    -0.283 N 
ATOM     36  H   UNL     1       1.972   9.267  39.336  0.00  0.00    +0.155 HD
ATOM     37  N   UNL     1       3.077   8.414  41.461  0.00  0.00    -0.214 NA
BRANCH   4   3
ATOM      1  C   UNL     1       7.074   9.139  43.981  0.00  0.00    +0.020 A 
ATOM      2  C   UNL     1       5.644   9.001  43.833  0.00  0.00    +0.013 A 
ATOM      3  C   UNL     1       5.082   8.105  42.829  0.00  0.00    +0.019 A 
ATOM     38  C   UNL     1       6.002   7.358  41.985  0.00  0.00    +0.120 A 
ATOM     39  N   UNL     1       7.375   7.512  42.150  0.00  0.00    -0.263 NA
ATOM     40  C   UNL     1       7.927   8.372  43.111  0.00  0.00    +0.111 A 
ENDBRANCH   4   3
ENDBRANCH  10   9
BRANCH  12  13
ATOM     13  N   UNL     1      -2.296   6.402  37.536  0.00  0.00    -0.281 N 
ATOM     14  C   UNL     1      -2.094   6.226  36.177  0.00  0.00    +0.248 C 
ATOM     30  O   UNL     1      -1.654   7.085  35.427  0.00  0.00    -0.270 OA
ATOM     31  H   UNL     1      -2.845   5.681  38.004  0.00  0.00    +0.155 HD
BRANCH  14  15
ATOM     15  C   UNL     1      -2.443   4.911  35.559  0.00  0.00    +0.037 A 
ATOM     16  C   UNL     1      -3.525   4.796  34.578  0.00  0.00    +0.013 A 
ATOM     17  C   UNL     1      -3.854   3.512  34.010  0.00  0.00    +0.005 A 
ATOM     18  C   UNL     1      -3.097   2.332  34.422  0.00  0.00    -0.033 A 
ATOM     28  C   UNL     1      -2.025   2.476  35.393  0.00  0.00    +0.005 A 
ATOM     29  C   UNL     1      -1.701   3.732  35.953  0.00  0.00    +0.013 A 
BRANCH  18  19
ATOM     19  C   UNL     1      -3.392   0.919  33.884  0.00  0.00    +0.119 C 
BRANCH  19  20
ATOM     20  N   UNL     1      -3.009   0.633  32.470  0.00  0.00    -0.302 NA
ATOM     21  C   UNL     1      -4.211   0.707  31.523  0.00  0.00    +0.066 C 
ATOM     22  C   UNL     1      -3.788   0.427  30.044  0.00  0.00    -0.064 C 
ATOM     23  N   UNL     1      -3.117  -0.945  29.960  0.00  0.00    +0.379 N 
ATOM     24  C   UNL     1      -2.771  -1.237  28.561  0.00  0.00    -0.096 C 
ATOM     25  H   UNL     1      -3.861  -1.706  30.290  0.00  0.00    -0.082 HD
ATOM     26  C   UNL     1      -1.923  -1.029  30.900  0.00  0.00    -0.064 C 
ATOM     27  C   UNL     1      -2.348  -0.720  32.363  0.00  0.00    +0.066 C 
ENDBRANCH  19  20
ENDBRANCH  18  19
ENDBRANCH  14  15
ENDBRANCH  12  13
TORSDOF 6
ENDMDL
MODEL 5
REMARK VINA RESULT:      -7.8      8.580     13.241
REMARK  Name = C:\Users\Docking\Desktop\test protocol\1iep_ligandH.pdb
REMARK  8 active torsions:
REMARK  status: ('A' for Active; 'I' for Inactive)
REMARK    1  A    between atoms: _5  and  _11
REMARK    2  A    between atoms: _19  and  _21
REMARK    3  A    between atoms: _22  and  _66
REMARK    4  A    between atoms: _27  and  _30
REMARK    5  A    between atoms: _32  and  _33
REMARK    6  A    between atoms: _38  and  _43
REMARK    7  A    between atoms: _43  and  _46
REMARK    8  A    between atoms: _53  and  _55
REMARK                            x       y       z     vdW  Elec       q    Type
REMARK                         _______ _______ _______ _____ _____    ______ ____
ROOT
ATOM     10  C   UNL     1      -1.204  -9.869  36.429  0.00  0.00    +0.038 A 
ATOM     11  C   UNL     1      -1.337  -8.460  36.336  0.00  0.00    +0.047 A 
ATOM     12  C   UNL     1      -0.868  -7.736  35.164  0.00  0.00    +0.035 A 
ATOM     32  C   UNL     1      -0.270  -8.479  34.105  0.00  0.00    +0.024 A 
ATOM     33  C   UNL     1      -0.126  -9.912  34.184  0.00  0.00    +0.007 A 
ATOM     34  C   UNL     1      -0.584 -10.631  35.338  0.00  0.00    -0.029 A 
ATOM     35  C   UNL     1      -0.398 -12.166  35.371  0.00  0.00    +0.045 C 
ENDROOT
BRANCH  10   9
ATOM      4  C   UNL     1      -2.558  -9.860  41.034  0.00  0.00    +0.077 A 
ATOM      5  C   UNL     1      -2.285  -8.458  41.172  0.00  0.00    +0.048 A 
ATOM      6  C   UNL     1      -1.791  -7.778  40.037  0.00  0.00    +0.116 A 
ATOM      7  N   UNL     1      -1.589  -8.458  38.856  0.00  0.00    -0.223 NA
ATOM      8  C   UNL     1      -1.860  -9.811  38.757  0.00  0.00    +0.220 A 
ATOM      9  N   UNL     1      -1.671 -10.513  37.576  0.00  0.00    -0.283 N 
ATOM     36  H   UNL     1      -1.876 -11.512  37.546  0.00  0.00    +0.155 HD
ATOM     37  N   UNL     1      -2.332 -10.483  39.827  0.00  0.00    -0.214 NA
BRANCH   4   3
ATOM      1  C   UNL     1      -4.272 -11.041  44.345  0.00  0.00    +0.020 A 
ATOM      2  C   UNL     1      -3.780 -10.170  43.303  0.00  0.00    +0.013 A 
ATOM      3  C   UNL     1      -3.087 -10.716  42.142  0.00  0.00    +0.019 A 
ATOM     38  C   UNL     1      -2.909 -12.158  42.066  0.00  0.00    +0.120 A 
ATOM     39  N   UNL     1      -3.392 -12.972  43.086  0.00  0.00    -0.263 NA
ATOM     40  C   UNL     1      -4.058 -12.458  44.208  0.00  0.00    +0.111 A 
ENDBRANCH   4   3
ENDBRANCH  10   9
BRANCH  12  13
ATOM     13  N   UNL     1      -0.969  -6.305  35.017  0.00  0.00    -0.281 N 
ATOM     14  C   UNL     1      -0.637  -5.328  35.941  0.00  0.00    +0.248 C 
ATOM     30  O   UNL     1      -0.401  -5.544  37.121  0.00  0.00    -0.270 OA
ATOM     31  H   UNL     1      -1.329  -5.972  34.122  0.00  0.00    +0.155 HD
BRANCH  14  15
ATOM     15  C   UNL     1      -0.570  -3.904  35.494  0.00  0.00    +0.037 A 
ATOM     16  C   UNL     1       0.308  -3.492  34.396  0.00  0.00    +0.013 A 
ATOM     17  C   UNL     1       0.365  -2.108  33.996  0.00  0.00    +0.005 A 
ATOM     18  C   UNL     1      -0.460  -1.126  34.694  0.00  0.00    -0.033 A 
ATOM     28  C   UNL     1      -1.326  -1.563  35.776  0.00  0.00    +0.005 A 
ATOM     29  C   UNL     1      -1.385  -2.918  36.172  0.00  0.00    +0.013 A 
BRANCH  18  19
ATOM     19  C   UNL     1      -0.447   0.375  34.348  0.00  0.00    +0.119 C 
BRANCH  19  20
ATOM     20  N   UNL     1      -1.577   0.897  33.523  0.00  0.00    -0.302 NA
ATOM     21  C   UNL     1      -2.830   1.155  34.365  0.00  0.00    +0.066 C 
ATOM     22  C   UNL     1      -3.996   1.721  33.491  0.00  0.00    -0.064 C 
ATOM     23  N   UNL     1      -4.299   0.744  32.354  0.00  0.00    +0.379 N 
ATOM     24  C   UNL     1      -5.433   1.246  31.564  0.00  0.00    -0.096 C 
ATOM     25  H   UNL     1      -4.609  -0.223  32.813  0.00  0.00    -0.082 HD
ATOM     26  C   UNL     1      -3.058   0.480  31.514  0.00  0.00    -0.064 C 
ATOM     27  C   UNL     1      -1.896  -0.055  32.397  0.00  0.00    +0.066 C 
ENDBRANCH  19  20
ENDBRANCH  18  19
ENDBRANCH  14  15
ENDBRANCH  12  13
TORSDOF 6
ENDMDL
