MODEL 1
REMARK VINA RESULT:      -7.0      0.000      0.000
REMARK  Name = C:\Users\Docking\Desktop\test protocol\1iep_ligandH.pdb
REMARK  8 active torsions:
REMARK  status: ('A' for Active; 'I' for Inactive)
REMARK    1  A    between atoms: _5  and  _11
REMARK    2  A    between atoms: _19  and  _21
REMARK    3  A    between atoms: _22  and  _66
REMARK    4  A    between atoms: _27  and  _30
REMARK    5  A    between atoms: _32  and  _33
REMARK    6  A    between atoms: _38  and  _43
REMARK    7  A    between atoms: _43  and  _46
REMARK    8  A    between atoms: _53  and  _55
REMARK                            x       y       z     vdW  Elec       q    Type
REMARK                         _______ _______ _______ _____ _____    ______ ____
ROOT
ATOM     10  C   UNL     1       1.467  28.065  -2.274  0.00  0.00    +0.038 A 
ATOM     11  C   UNL     1       1.847  27.079  -1.328  0.00  0.00    +0.047 A 
ATOM     12  C   UNL     1       1.095  26.887  -0.098  0.00  0.00    +0.035 A 
ATOM     32  C   UNL     1      -0.041  27.716   0.136  0.00  0.00    +0.024 A 
ATOM     33  C   UNL     1      -0.440  28.724  -0.814  0.00  0.00    +0.007 A 
ATOM     34  C   UNL     1       0.299  28.920  -2.028  0.00  0.00    -0.029 A 
ATOM     35  C   UNL     1      -0.171  30.020  -3.007  0.00  0.00    +0.045 C 
ENDROOT
BRANCH  10   9
ATOM      4  C   UNL     1       2.292  27.186  -6.919  0.00  0.00    +0.077 A 
ATOM      5  C   UNL     1       1.130  26.352  -7.029  0.00  0.00    +0.048 A 
ATOM      6  C   UNL     1       0.350  26.170  -5.865  0.00  0.00    +0.116 A 
ATOM      7  N   UNL     1       0.715  26.781  -4.685  0.00  0.00    -0.223 NA
ATOM      8  C   UNL     1       1.844  27.577  -4.613  0.00  0.00    +0.220 A 
ATOM      9  N   UNL     1       2.225  28.207  -3.438  0.00  0.00    -0.283 N 
ATOM     36  H   UNL     1       3.068  28.780  -3.424  0.00  0.00    +0.155 HD
ATOM     37  N   UNL     1       2.606  27.765  -5.710  0.00  0.00    -0.214 NA
BRANCH   4   3
ATOM      1  C   UNL     1       3.675  28.168 -10.444  0.00  0.00    +0.020 A 
ATOM      2  C   UNL     1       2.742  27.899  -9.374  0.00  0.00    +0.013 A 
ATOM      3  C   UNL     1       3.215  27.477  -8.062  0.00  0.00    +0.019 A 
ATOM     38  C   UNL     1       4.650  27.338  -7.863  0.00  0.00    +0.120 A 
ATOM     39  N   UNL     1       5.524  27.603  -8.912  0.00  0.00    -0.263 NA
ATOM     40  C   UNL     1       5.081  28.007 -10.180  0.00  0.00    +0.111 A 
ENDBRANCH   4   3
ENDBRANCH  10   9
BRANCH  12  13
ATOM     13  N   UNL     1       1.438  25.907   0.903  0.00  0.00    -0.281 N 
ATOM     14  C   UNL     1       2.690  25.626   1.426  0.00  0.00    +0.248 C 
ATOM     30  O   UNL     1       3.742  26.030   0.954  0.00  0.00    -0.270 OA
ATOM     31  H   UNL     1       0.664  25.354   1.271  0.00  0.00    +0.155 HD
BRANCH  14  15
ATOM     15  C   UNL     1       2.788  24.758   2.639  0.00  0.00    +0.037 A 
ATOM     16  C   UNL     1       2.933  25.337   3.977  0.00  0.00    +0.013 A 
ATOM     17  C   UNL     1       3.042  24.476   5.129  0.00  0.00    +0.005 A 
ATOM     18  C   UNL     1       3.005  23.027   4.946  0.00  0.00    -0.033 A 
ATOM     28  C   UNL     1       2.854  22.481   3.608  0.00  0.00    +0.005 A 
ATOM     29  C   UNL     1       2.748  23.320   2.477  0.00  0.00    +0.013 A 
BRANCH  18  19
ATOM     19  C   UNL     1       3.135  22.034   6.116  0.00  0.00    +0.119 C 
BRANCH  19  20
ATOM     20  N   UNL     1       3.043  20.579   5.791  0.00  0.00    -0.302 NA
ATOM     21  C   UNL     1       2.410  19.775   6.931  0.00  0.00    +0.066 C 
ATOM     22  C   UNL     1       2.301  18.259   6.565  0.00  0.00    -0.064 C 
ATOM     23  N   UNL     1       3.690  17.717   6.225  0.00  0.00    +0.379 N 
ATOM     24  C   UNL     1       3.599  16.278   5.937  0.00  0.00    -0.096 C 
ATOM     25  H   UNL     1       4.331  17.841   7.129  0.00  0.00    -0.082 HD
ATOM     26  C   UNL     1       4.327  18.513   5.095  0.00  0.00    -0.064 C 
ATOM     27  C   UNL     1       4.405  20.022   5.457  0.00  0.00    +0.066 C 
ENDBRANCH  19  20
ENDBRANCH  18  19
ENDBRANCH  14  15
ENDBRANCH  12  13
TORSDOF 6
ENDMDL
MODEL 2
REMARK VINA RESULT:      -7.0     14.284     19.935
REMARK  Name = C:\Users\Docking\Desktop\test protocol\1iep_ligandH.pdb
REMARK  8 active torsions:
REMARK  status: ('A' for Active; 'I' for Inactive)
REMARK    1  A    between atoms: _5  and  _11
REMARK    2  A    between atoms: _19  and  _21
REMARK    3  A    between atoms: _22  and  _66
REMARK    4  A    between atoms: _27  and  _30
REMARK    5  A    between atoms: _32  and  _33
REMARK    6  A    between atoms: _38  and  _43
REMARK    7  A    between atoms: _43  and  _46
REMARK    8  A    between atoms: _53  and  _55
REMARK                            x       y       z     vdW  Elec       q    Type
REMARK                         _______ _______ _______ _____ _____    ______ ____
ROOT
ATOM     10  C   UNL     1      15.704  25.008   4.418  0.00  0.00    +0.038 A 
ATOM     11  C   UNL     1      16.487  25.147   3.244  0.00  0.00    +0.047 A 
ATOM     12  C   UNL     1      16.663  26.442   2.605  0.00  0.00    +0.035 A 
ATOM     32  C   UNL     1      16.028  27.576   3.192  0.00  0.00    +0.024 A 
ATOM     33  C   UNL     1      15.228  27.453   4.385  0.00  0.00    +0.007 A 
ATOM     34  C   UNL     1      15.049  26.177   5.017  0.00  0.00    -0.029 A 
ATOM     35  C   UNL     1      14.175  26.103   6.291  0.00  0.00    +0.045 C 
ENDROOT
BRANCH  10   9
ATOM      4  C   UNL     1      17.211  21.487   7.311  0.00  0.00    +0.077 A 
ATOM      5  C   UNL     1      18.380  22.224   7.697  0.00  0.00    +0.048 A 
ATOM      6  C   UNL     1      18.560  23.503   7.122  0.00  0.00    +0.116 A 
ATOM      7  N   UNL     1      17.633  23.997   6.230  0.00  0.00    -0.223 NA
ATOM      8  C   UNL     1      16.518  23.260   5.878  0.00  0.00    +0.220 A 
ATOM      9  N   UNL     1      15.569  23.741   4.989  0.00  0.00    -0.283 N 
ATOM     36  H   UNL     1      14.764  23.163   4.750  0.00  0.00    +0.155 HD
ATOM     37  N   UNL     1      16.324  22.036   6.412  0.00  0.00    -0.214 NA
BRANCH   4   3
ATOM      1  C   UNL     1      17.470  17.731   8.371  0.00  0.00    +0.020 A 
ATOM      2  C   UNL     1      17.841  19.029   7.855  0.00  0.00    +0.013 A 
ATOM      3  C   UNL     1      16.880  20.124   7.834  0.00  0.00    +0.019 A 
ATOM     38  C   UNL     1      15.542  19.872   8.348  0.00  0.00    +0.120 A 
ATOM     39  N   UNL     1      15.213  18.612   8.838  0.00  0.00    -0.263 NA
ATOM     40  C   UNL     1      16.129  17.550   8.861  0.00  0.00    +0.111 A 
ENDBRANCH   4   3
ENDBRANCH  10   9
BRANCH  12  13
ATOM     13  N   UNL     1      17.439  26.643   1.407  0.00  0.00    -0.281 N 
ATOM     14  C   UNL     1      17.704  25.729   0.400  0.00  0.00    +0.248 C 
ATOM     30  O   UNL     1      17.488  24.529   0.482  0.00  0.00    -0.270 OA
ATOM     31  H   UNL     1      17.843  27.572   1.287  0.00  0.00    +0.155 HD
BRANCH  14  15
ATOM     15  C   UNL     1      18.308  26.217  -0.877  0.00  0.00    +0.037 A 
ATOM     16  C   UNL     1      18.444  25.334  -2.038  0.00  0.00    +0.013 A 
ATOM     17  C   UNL     1      19.046  25.825  -3.253  0.00  0.00    +0.005 A 
ATOM     18  C   UNL     1      19.516  27.207  -3.311  0.00  0.00    -0.033 A 
ATOM     28  C   UNL     1      19.364  28.062  -2.146  0.00  0.00    +0.005 A 
ATOM     29  C   UNL     1      18.775  27.585  -0.954  0.00  0.00    +0.013 A 
BRANCH  18  19
ATOM     19  C   UNL     1      20.190  27.809  -4.559  0.00  0.00    +0.119 C 
BRANCH  19  20
ATOM     20  N   UNL     1      19.296  28.286  -5.656  0.00  0.00    -0.302 NA
ATOM     21  C   UNL     1      19.905  28.042  -7.040  0.00  0.00    +0.066 C 
ATOM     22  C   UNL     1      18.947  28.525  -8.177  0.00  0.00    -0.064 C 
ATOM     23  N   UNL     1      18.633  30.009  -7.977  0.00  0.00    +0.379 N 
ATOM     24  C   UNL     1      17.779  30.481  -9.077  0.00  0.00    -0.096 C 
ATOM     25  H   UNL     1      19.595  30.569  -8.032  0.00  0.00    -0.082 HD
ATOM     26  C   UNL     1      18.029  30.261  -6.603  0.00  0.00    -0.064 C 
ATOM     27  C   UNL     1      18.976  29.750  -5.481  0.00  0.00    +0.066 C 
ENDBRANCH  19  20
ENDBRANCH  18  19
ENDBRANCH  14  15
ENDBRANCH  12  13
TORSDOF 6
ENDMDL
MODEL 3
REMARK VINA RESULT:      -7.0      1.454      1.919
REMARK  Name = C:\Users\Docking\Desktop\test protocol\1iep_ligandH.pdb
REMARK  8 active torsions:
REMARK  status: ('A' for Active; 'I' for Inactive)
REMARK    1  A    between atoms: _5  and  _11
REMARK    2  A    between atoms: _19  and  _21
REMARK    3  A    between atoms: _22  and  _66
REMARK    4  A    between atoms: _27  and  _30
REMARK    5  A    between atoms: _32  and  _33
REMARK    6  A    between atoms: _38  and  _43
REMARK    7  A    between atoms: _43  and  _46
REMARK    8  A    between atoms: _53  and  _55
REMARK                            x       y       z     vdW  Elec       q    Type
REMARK                         _______ _______ _______ _____ _____    ______ ____
ROOT
ATOM     10  C   UNL     1       1.660  27.875  -2.334  0.00  0.00    +0.038 A 
ATOM     11  C   UNL     1       2.040  26.870  -1.408  0.00  0.00    +0.047 A 
ATOM     12  C   UNL     1       1.306  26.674  -0.167  0.00  0.00    +0.035 A 
ATOM     32  C   UNL     1       0.189  27.519   0.098  0.00  0.00    +0.024 A 
ATOM     33  C   UNL     1      -0.210  28.546  -0.832  0.00  0.00    +0.007 A 
ATOM     34  C   UNL     1       0.511  28.745  -2.056  0.00  0.00    -0.029 A 
ATOM     35  C   UNL     1       0.043  29.866  -3.013  0.00  0.00    +0.045 C 
ENDROOT
BRANCH  10   9
ATOM      4  C   UNL     1       2.345  27.115  -7.023  0.00  0.00    +0.077 A 
ATOM      5  C   UNL     1       1.141  26.343  -7.134  0.00  0.00    +0.048 A 
ATOM      6  C   UNL     1       0.378  26.159  -5.959  0.00  0.00    +0.116 A 
ATOM      7  N   UNL     1       0.796  26.711  -4.768  0.00  0.00    -0.223 NA
ATOM      8  C   UNL     1       1.964  27.448  -4.695  0.00  0.00    +0.220 A 
ATOM      9  N   UNL     1       2.400  28.019  -3.509  0.00  0.00    -0.283 N 
ATOM     36  H   UNL     1       3.270  28.550  -3.495  0.00  0.00    +0.155 HD
ATOM     37  N   UNL     1       2.711  27.637  -5.802  0.00  0.00    -0.214 NA
BRANCH   4   3
ATOM      1  C   UNL     1       3.693  28.009 -10.584  0.00  0.00    +0.020 A 
ATOM      2  C   UNL     1       2.770  27.742  -9.506  0.00  0.00    +0.013 A 
ATOM      3  C   UNL     1       3.257  27.400  -8.175  0.00  0.00    +0.019 A 
ATOM     38  C   UNL     1       4.696  27.336  -7.968  0.00  0.00    +0.120 A 
ATOM     39  N   UNL     1       5.561  27.597  -9.026  0.00  0.00    -0.263 NA
ATOM     40  C   UNL     1       5.104  27.926 -10.311  0.00  0.00    +0.111 A 
ENDBRANCH   4   3
ENDBRANCH  10   9
BRANCH  12  13
ATOM     13  N   UNL     1       1.650  25.675   0.815  0.00  0.00    -0.281 N 
ATOM     14  C   UNL     1       2.774  25.626   1.622  0.00  0.00    +0.248 C 
ATOM     30  O   UNL     1       3.765  26.325   1.470  0.00  0.00    -0.270 OA
ATOM     31  H   UNL     1       0.983  24.912   0.928  0.00  0.00    +0.155 HD
BRANCH  14  15
ATOM     15  C   UNL     1       2.809  24.649   2.753  0.00  0.00    +0.037 A 
ATOM     16  C   UNL     1       2.893  25.100   4.144  0.00  0.00    +0.013 A 
ATOM     17  C   UNL     1       2.942  24.137   5.215  0.00  0.00    +0.005 A 
ATOM     18  C   UNL     1       2.907  22.711   4.898  0.00  0.00    -0.033 A 
ATOM     28  C   UNL     1       2.818  22.291   3.509  0.00  0.00    +0.005 A 
ATOM     29  C   UNL     1       2.771  23.233   2.457  0.00  0.00    +0.013 A 
BRANCH  18  19
ATOM     19  C   UNL     1       2.976  21.613   5.975  0.00  0.00    +0.119 C 
BRANCH  19  20
ATOM     20  N   UNL     1       4.159  21.623   6.887  0.00  0.00    -0.302 NA
ATOM     21  C   UNL     1       5.370  20.922   6.265  0.00  0.00    +0.066 C 
ATOM     22  C   UNL     1       6.605  20.962   7.222  0.00  0.00    -0.064 C 
ATOM     23  N   UNL     1       6.232  20.315   8.558  0.00  0.00    +0.379 N 
ATOM     24  C   UNL     1       7.408  20.299   9.440  0.00  0.00    -0.096 C 
ATOM     25  H   UNL     1       5.948  19.257   8.353  0.00  0.00    -0.082 HD
ATOM     26  C   UNL     1       5.027  21.004   9.182  0.00  0.00    -0.064 C 
ATOM     27  C   UNL     1       3.814  20.985   8.210  0.00  0.00    +0.066 C 
ENDBRANCH  19  20
ENDBRANCH  18  19
ENDBRANCH  14  15
ENDBRANCH  12  13
TORSDOF 6
ENDMDL
MODEL 4
REMARK VINA RESULT:      -7.0      2.513     12.983
REMARK  Name = C:\Users\Docking\Desktop\test protocol\1iep_ligandH.pdb
REMARK  8 active torsions:
REMARK  status: ('A' for Active; 'I' for Inactive)
REMARK    1  A    between atoms: _5  and  _11
REMARK    2  A    between atoms: _19  and  _21
REMARK    3  A    between atoms: _22  and  _66
REMARK    4  A    between atoms: _27  and  _30
REMARK    5  A    between atoms: _32  and  _33
REMARK    6  A    between atoms: _38  and  _43
REMARK    7  A    between atoms: _43  and  _46
REMARK    8  A    between atoms: _53  and  _55
REMARK                            x       y       z     vdW  Elec       q    Type
REMARK                         _______ _______ _______ _____ _____    ______ ____
ROOT
ATOM     10  C   UNL     1       0.946  27.160  -1.378  0.00  0.00    +0.038 A 
ATOM     11  C   UNL     1       1.818  27.165  -2.497  0.00  0.00    +0.047 A 
ATOM     12  C   UNL     1       1.701  28.173  -3.538  0.00  0.00    +0.035 A 
ATOM     32  C   UNL     1       0.685  29.164  -3.407  0.00  0.00    +0.024 A 
ATOM     33  C   UNL     1      -0.211  29.174  -2.278  0.00  0.00    +0.007 A 
ATOM     34  C   UNL     1      -0.101  28.180  -1.248  0.00  0.00    -0.029 A 
ATOM     35  C   UNL     1      -1.093  28.235  -0.063  0.00  0.00    +0.045 C 
ENDROOT
BRANCH  10   9
ATOM      4  C   UNL     1       2.916  25.460   2.655  0.00  0.00    +0.077 A 
ATOM      5  C   UNL     1       3.719  26.637   2.829  0.00  0.00    +0.048 A 
ATOM      6  C   UNL     1       3.600  27.653   1.854  0.00  0.00    +0.116 A 
ATOM      7  N   UNL     1       2.740  27.494   0.790  0.00  0.00    -0.223 NA
ATOM      8  C   UNL     1       1.982  26.346   0.651  0.00  0.00    +0.220 A 
ATOM      9  N   UNL     1       1.104  26.168  -0.407  0.00  0.00    -0.283 N 
ATOM     36  H   UNL     1       0.568  25.304  -0.478  0.00  0.00    +0.155 HD
ATOM     37  N   UNL     1       2.078  25.360   1.568  0.00  0.00    -0.214 NA
BRANCH   4   3
ATOM      1  C   UNL     1       2.897  21.831   4.113  0.00  0.00    +0.020 A 
ATOM      2  C   UNL     1       2.884  22.914   3.157  0.00  0.00    +0.013 A 
ATOM      3  C   UNL     1       2.928  24.301   3.602  0.00  0.00    +0.019 A 
ATOM     38  C   UNL     1       2.987  24.560   5.033  0.00  0.00    +0.120 A 
ATOM     39  N   UNL     1       2.997  23.496   5.930  0.00  0.00    -0.263 NA
ATOM     40  C   UNL     1       2.953  22.158   5.514  0.00  0.00    +0.111 A 
ENDBRANCH   4   3
ENDBRANCH  10   9
BRANCH  12  13
ATOM     13  N   UNL     1       2.552  28.223  -4.701  0.00  0.00    -0.281 N 
ATOM     14  C   UNL     1       2.320  27.674  -5.951  0.00  0.00    +0.248 C 
ATOM     30  O   UNL     1       1.435  26.869  -6.199  0.00  0.00    -0.270 OA
ATOM     31  H   UNL     1       3.434  28.725  -4.588  0.00  0.00    +0.155 HD
BRANCH  14  15
ATOM     15  C   UNL     1       3.208  28.065  -7.088  0.00  0.00    +0.037 A 
ATOM     16  C   UNL     1       2.967  29.290  -7.855  0.00  0.00    +0.013 A 
ATOM     17  C   UNL     1       3.829  29.635  -8.957  0.00  0.00    +0.005 A 
ATOM     18  C   UNL     1       4.942  28.753  -9.299  0.00  0.00    -0.033 A 
ATOM     28  C   UNL     1       5.162  27.547  -8.518  0.00  0.00    +0.005 A 
ATOM     29  C   UNL     1       4.319  27.205  -7.437  0.00  0.00    +0.013 A 
BRANCH  18  19
ATOM     19  C   UNL     1       5.900  29.031 -10.472  0.00  0.00    +0.119 C 
BRANCH  19  20
ATOM     20  N   UNL     1       5.634  28.316 -11.756  0.00  0.00    -0.302 NA
ATOM     21  C   UNL     1       4.287  27.588 -11.740  0.00  0.00    +0.066 C 
ATOM     22  C   UNL     1       4.015  26.864 -13.099  0.00  0.00    -0.064 C 
ATOM     23  N   UNL     1       5.155  25.887 -13.390  0.00  0.00    +0.379 N 
ATOM     24  C   UNL     1       4.874  25.162 -14.638  0.00  0.00    -0.096 C 
ATOM     25  H   UNL     1       5.180  25.140 -12.563  0.00  0.00    -0.082 HD
ATOM     26  C   UNL     1       6.499  26.602 -13.406  0.00  0.00    -0.064 C 
ATOM     27  C   UNL     1       6.746  27.343 -12.062  0.00  0.00    +0.066 C 
ENDBRANCH  19  20
ENDBRANCH  18  19
ENDBRANCH  14  15
ENDBRANCH  12  13
TORSDOF 6
ENDMDL
MODEL 5
REMARK VINA RESULT:      -7.0     20.066     21.344
REMARK  Name = C:\Users\Docking\Desktop\test protocol\1iep_ligandH.pdb
REMARK  8 active torsions:
REMARK  status: ('A' for Active; 'I' for Inactive)
REMARK    1  A    between atoms: _5  and  _11
REMARK    2  A    between atoms: _19  and  _21
REMARK    3  A    between atoms: _22  and  _66
REMARK    4  A    between atoms: _27  and  _30
REMARK    5  A    between atoms: _32  and  _33
REMARK    6  A    between atoms: _38  and  _43
REMARK    7  A    between atoms: _43  and  _46
REMARK    8  A    between atoms: _53  and  _55
REMARK                            x       y       z     vdW  Elec       q    Type
REMARK                         _______ _______ _______ _____ _____    ______ ____
ROOT
ATOM     10  C   UNL     1      17.988  14.965  -7.695  0.00  0.00    +0.038 A 
ATOM     11  C   UNL     1      18.285  14.361  -6.446  0.00  0.00    +0.047 A 
ATOM     12  C   UNL     1      19.385  14.837  -5.623  0.00  0.00    +0.035 A 
ATOM     32  C   UNL     1      20.161  15.933  -6.101  0.00  0.00    +0.024 A 
ATOM     33  C   UNL     1      19.874  16.558  -7.368  0.00  0.00    +0.007 A 
ATOM     34  C   UNL     1      18.791  16.091  -8.185  0.00  0.00    -0.029 A 
ATOM     35  C   UNL     1      18.533  16.795  -9.538  0.00  0.00    +0.045 C 
ENDROOT
BRANCH  10   9
ATOM      4  C   UNL     1      16.079  11.806 -10.763  0.00  0.00    +0.077 A 
ATOM      5  C   UNL     1      17.322  11.103 -10.905  0.00  0.00    +0.048 A 
ATOM      6  C   UNL     1      18.430  11.591 -10.177  0.00  0.00    +0.116 A 
ATOM      7  N   UNL     1      18.294  12.700  -9.370  0.00  0.00    -0.223 NA
ATOM      8  C   UNL     1      17.081  13.355  -9.256  0.00  0.00    +0.220 A 
ATOM      9  N   UNL     1      16.920  14.467  -8.444  0.00  0.00    -0.283 N 
ATOM     36  H   UNL     1      16.011  14.927  -8.394  0.00  0.00    +0.155 HD
ATOM     37  N   UNL     1      16.008  12.909  -9.942  0.00  0.00    -0.214 NA
BRANCH   4   3
ATOM      1  C   UNL     1      13.062   9.723 -12.127  0.00  0.00    +0.020 A 
ATOM      2  C   UNL     1      14.285  10.053 -11.433  0.00  0.00    +0.013 A 
ATOM      3  C   UNL     1      14.817  11.410 -11.465  0.00  0.00    +0.019 A 
ATOM     38  C   UNL     1      14.081  12.417 -12.214  0.00  0.00    +0.120 A 
ATOM     39  N   UNL     1      12.907  12.070 -12.874  0.00  0.00    -0.263 NA
ATOM     40  C   UNL     1      12.386  10.767 -12.852  0.00  0.00    +0.111 A 
ENDBRANCH   4   3
ENDBRANCH  10   9
BRANCH  12  13
ATOM     13  N   UNL     1      19.739  14.258  -4.350  0.00  0.00    -0.281 N 
ATOM     14  C   UNL     1      20.444  13.090  -4.113  0.00  0.00    +0.248 C 
ATOM     30  O   UNL     1      20.695  12.249  -4.964  0.00  0.00    -0.270 OA
ATOM     31  H   UNL     1      19.433  14.773  -3.525  0.00  0.00    +0.155 HD
BRANCH  14  15
ATOM     15  C   UNL     1      20.929  12.808  -2.728  0.00  0.00    +0.037 A 
ATOM     16  C   UNL     1      21.487  13.870  -1.887  0.00  0.00    +0.013 A 
ATOM     17  C   UNL     1      21.963  13.567  -0.560  0.00  0.00    +0.005 A 
ATOM     18  C   UNL     1      21.882  12.195  -0.066  0.00  0.00    -0.033 A 
ATOM     28  C   UNL     1      21.319  11.162  -0.919  0.00  0.00    +0.005 A 
ATOM     29  C   UNL     1      20.852  11.454  -2.220  0.00  0.00    +0.013 A 
BRANCH  18  19
ATOM     19  C   UNL     1      22.385  11.777   1.328  0.00  0.00    +0.119 C 
BRANCH  19  20
ATOM     20  N   UNL     1      21.511  12.099   2.496  0.00  0.00    -0.302 NA
ATOM     21  C   UNL     1      22.215  11.838   3.830  0.00  0.00    +0.066 C 
ATOM     22  C   UNL     1      21.295  12.201   5.040  0.00  0.00    -0.064 C 
ATOM     23  N   UNL     1      19.995  11.399   4.948  0.00  0.00    +0.379 N 
ATOM     24  C   UNL     1      19.152  11.695   6.115  0.00  0.00    -0.096 C 
ATOM     25  H   UNL     1      20.262  10.317   4.988  0.00  0.00    -0.082 HD
ATOM     26  C   UNL     1      19.290  11.651   3.623  0.00  0.00    -0.064 C 
ATOM     27  C   UNL     1      20.224  11.315   2.427  0.00  0.00    +0.066 C 
ENDBRANCH  19  20
ENDBRANCH  18  19
ENDBRANCH  14  15
ENDBRANCH  12  13
TORSDOF 6
ENDMDL
