MODEL 1
REMARK VINA RESULT:      -7.8      0.000      0.000
REMARK  Name = C:\Users\Docking\Desktop\test protocol\1iep_ligandH.pdb
REMARK  8 active torsions:
REMARK  status: ('A' for Active; 'I' for Inactive)
REMARK    1  A    between atoms: _5  and  _11
REMARK    2  A    between atoms: _19  and  _21
REMARK    3  A    between atoms: _22  and  _66
REMARK    4  A    between atoms: _27  and  _30
REMARK    5  A    between atoms: _32  and  _33
REMARK    6  A    between atoms: _38  and  _43
REMARK    7  A    between atoms: _43  and  _46
REMARK    8  A    between atoms: _53  and  _55
REMARK                            x       y       z     vdW  Elec       q    Type
REMARK                         _______ _______ _______ _____ _____    ______ ____
ROOT
ATOM     10  C   UNL     1       6.265  28.668   0.448  0.00  0.00    +0.038 A 
ATOM     11  C   UNL     1       7.379  28.530  -0.419  0.00  0.00    +0.047 A 
ATOM     12  C   UNL     1       7.641  29.503  -1.469  0.00  0.00    +0.035 A 
ATOM     32  C   UNL     1       6.749  30.606  -1.605  0.00  0.00    +0.024 A 
ATOM     33  C   UNL     1       5.611  30.761  -0.733  0.00  0.00    +0.007 A 
ATOM     34  C   UNL     1       5.346  29.804   0.303  0.00  0.00    -0.029 A 
ATOM     35  C   UNL     1       4.108  30.017   1.204  0.00  0.00    +0.045 C 
ENDROOT
BRANCH  10   9
ATOM      4  C   UNL     1       4.544  24.450   1.960  0.00  0.00    +0.077 A 
ATOM      5  C   UNL     1       3.980  24.153   0.675  0.00  0.00    +0.048 A 
ATOM      6  C   UNL     1       4.149  25.115  -0.347  0.00  0.00    +0.116 A 
ATOM      7  N   UNL     1       4.833  26.283  -0.090  0.00  0.00    -0.223 NA
ATOM      8  C   UNL     1       5.363  26.540   1.161  0.00  0.00    +0.220 A 
ATOM      9  N   UNL     1       6.061  27.705   1.438  0.00  0.00    -0.283 N 
ATOM     36  H   UNL     1       6.431  27.860   2.376  0.00  0.00    +0.155 HD
ATOM     37  N   UNL     1       5.214  25.638   2.153  0.00  0.00    -0.214 NA
BRANCH   4   3
ATOM      1  C   UNL     1       5.009  22.876   5.510  0.00  0.00    +0.020 A 
ATOM      2  C   UNL     1       5.131  23.794   4.402  0.00  0.00    +0.013 A 
ATOM      3  C   UNL     1       4.453  23.532   3.139  0.00  0.00    +0.019 A 
ATOM     38  C   UNL     1       3.652  22.322   3.029  0.00  0.00    +0.120 A 
ATOM     39  N   UNL     1       3.555  21.455   4.113  0.00  0.00    -0.263 NA
ATOM     40  C   UNL     1       4.204  21.696   5.333  0.00  0.00    +0.111 A 
ENDBRANCH   4   3
ENDBRANCH  10   9
BRANCH  12  13
ATOM     13  N   UNL     1       8.751  29.410  -2.384  0.00  0.00    -0.281 N 
ATOM     14  C   UNL     1       9.153  28.312  -3.127  0.00  0.00    +0.248 C 
ATOM     30  O   UNL     1       8.744  27.174  -2.955  0.00  0.00    -0.270 OA
ATOM     31  H   UNL     1       9.308  30.257  -2.498  0.00  0.00    +0.155 HD
BRANCH  14  15
ATOM     15  C   UNL     1      10.166  28.505  -4.209  0.00  0.00    +0.037 A 
ATOM     16  C   UNL     1      11.600  28.368  -3.940  0.00  0.00    +0.013 A 
ATOM     17  C   UNL     1      12.557  28.576  -4.998  0.00  0.00    +0.005 A 
ATOM     18  C   UNL     1      12.083  28.921  -6.336  0.00  0.00    -0.033 A 
ATOM     28  C   UNL     1      10.655  29.044  -6.576  0.00  0.00    +0.005 A 
ATOM     29  C   UNL     1       9.713  28.843  -5.542  0.00  0.00    +0.013 A 
BRANCH  18  19
ATOM     19  C   UNL     1      13.034  29.180  -7.519  0.00  0.00    +0.119 C 
BRANCH  19  20
ATOM     20  N   UNL     1      14.500  29.161  -7.235  0.00  0.00    -0.302 NA
ATOM     21  C   UNL     1      15.153  30.522  -7.493  0.00  0.00    +0.066 C 
ATOM     22  C   UNL     1      16.682  30.489  -7.170  0.00  0.00    -0.064 C 
ATOM     23  N   UNL     1      17.354  29.399  -8.005  0.00  0.00    +0.379 N 
ATOM     24  C   UNL     1      18.802  29.404  -7.747  0.00  0.00    -0.096 C 
ATOM     25  H   UNL     1      17.202  29.654  -9.080  0.00  0.00    -0.082 HD
ATOM     26  C   UNL     1      16.709  28.043  -7.757  0.00  0.00    -0.064 C 
ATOM     27  C   UNL     1      15.184  28.094  -8.053  0.00  0.00    +0.066 C 
ENDBRANCH  19  20
ENDBRANCH  18  19
ENDBRANCH  14  15
ENDBRANCH  12  13
TORSDOF 6
ENDMDL
MODEL 2
REMARK VINA RESULT:      -7.7      1.571      2.162
REMARK  Name = C:\Users\Docking\Desktop\test protocol\1iep_ligandH.pdb
REMARK  8 active torsions:
REMARK  status: ('A' for Active; 'I' for Inactive)
REMARK    1  A    between atoms: _5  and  _11
REMARK    2  A    between atoms: _19  and  _21
REMARK    3  A    between atoms: _22  and  _66
REMARK    4  A    between atoms: _27  and  _30
REMARK    5  A    between atoms: _32  and  _33
REMARK    6  A    between atoms: _38  and  _43
REMARK    7  A    between atoms: _43  and  _46
REMARK    8  A    between atoms: _53  and  _55
REMARK                            x       y       z     vdW  Elec       q    Type
REMARK                         _______ _______ _______ _____ _____    ______ ____
ROOT
ATOM     10  C   UNL     1       6.297  28.162   0.424  0.00  0.00    +0.038 A 
ATOM     11  C   UNL     1       7.238  27.968  -0.619  0.00  0.00    +0.047 A 
ATOM     12  C   UNL     1       7.544  29.031  -1.564  0.00  0.00    +0.035 A 
ATOM     32  C   UNL     1       6.875  30.281  -1.415  0.00  0.00    +0.024 A 
ATOM     33  C   UNL     1       5.915  30.495  -0.360  0.00  0.00    +0.007 A 
ATOM     34  C   UNL     1       5.607  29.450   0.573  0.00  0.00    -0.029 A 
ATOM     35  C   UNL     1       4.565  29.734   1.679  0.00  0.00    +0.045 C 
ENDROOT
BRANCH  10   9
ATOM      4  C   UNL     1       4.051  24.089   1.607  0.00  0.00    +0.077 A 
ATOM      5  C   UNL     1       3.304  24.076   0.382  0.00  0.00    +0.048 A 
ATOM      6  C   UNL     1       3.522  25.139  -0.522  0.00  0.00    +0.116 A 
ATOM      7  N   UNL     1       4.422  26.136  -0.214  0.00  0.00    -0.223 NA
ATOM      8  C   UNL     1       5.125  26.119   0.976  0.00  0.00    +0.220 A 
ATOM      9  N   UNL     1       6.041  27.107   1.303  0.00  0.00    -0.283 N 
ATOM     36  H   UNL     1       6.534  27.063   2.195  0.00  0.00    +0.155 HD
ATOM     37  N   UNL     1       4.934  25.116   1.857  0.00  0.00    -0.214 NA
BRANCH   4   3
ATOM      1  C   UNL     1       4.271  22.169   5.008  0.00  0.00    +0.020 A 
ATOM      2  C   UNL     1       4.409  23.220   4.027  0.00  0.00    +0.013 A 
ATOM      3  C   UNL     1       3.933  23.033   2.662  0.00  0.00    +0.019 A 
ATOM     38  C   UNL     1       3.317  21.760   2.320  0.00  0.00    +0.120 A 
ATOM     39  N   UNL     1       3.199  20.765   3.285  0.00  0.00    -0.263 NA
ATOM     40  C   UNL     1       3.655  20.933   4.601  0.00  0.00    +0.111 A 
ENDBRANCH   4   3
ENDBRANCH  10   9
BRANCH  12  13
ATOM     13  N   UNL     1       8.484  28.889  -2.648  0.00  0.00    -0.281 N 
ATOM     14  C   UNL     1       9.544  29.720  -2.970  0.00  0.00    +0.248 C 
ATOM     30  O   UNL     1       9.717  30.835  -2.499  0.00  0.00    -0.270 OA
ATOM     31  H   UNL     1       8.351  28.077  -3.252  0.00  0.00    +0.155 HD
BRANCH  14  15
ATOM     15  C   UNL     1      10.550  29.252  -3.971  0.00  0.00    +0.037 A 
ATOM     16  C   UNL     1      10.239  29.216  -5.402  0.00  0.00    +0.013 A 
ATOM     17  C   UNL     1      11.222  28.744  -6.345  0.00  0.00    +0.005 A 
ATOM     18  C   UNL     1      12.528  28.305  -5.859  0.00  0.00    -0.033 A 
ATOM     28  C   UNL     1      12.812  28.356  -4.434  0.00  0.00    +0.005 A 
ATOM     29  C   UNL     1      11.851  28.818  -3.507  0.00  0.00    +0.013 A 
BRANCH  18  19
ATOM     19  C   UNL     1      13.629  27.767  -6.790  0.00  0.00    +0.119 C 
BRANCH  19  20
ATOM     20  N   UNL     1      13.735  28.377  -8.149  0.00  0.00    -0.302 NA
ATOM     21  C   UNL     1      12.995  27.555  -9.208  0.00  0.00    +0.066 C 
ATOM     22  C   UNL     1      13.097  28.220 -10.619  0.00  0.00    -0.064 C 
ATOM     23  N   UNL     1      14.570  28.388 -10.995  0.00  0.00    +0.379 N 
ATOM     24  C   UNL     1      14.668  28.960 -12.346  0.00  0.00    -0.096 C 
ATOM     25  H   UNL     1      15.029  27.373 -11.023  0.00  0.00    -0.082 HD
ATOM     26  C   UNL     1      15.313  29.203  -9.947  0.00  0.00    -0.064 C 
ATOM     27  C   UNL     1      15.181  28.549  -8.543  0.00  0.00    +0.066 C 
ENDBRANCH  19  20
ENDBRANCH  18  19
ENDBRANCH  14  15
ENDBRANCH  12  13
TORSDOF 6
ENDMDL
MODEL 3
REMARK VINA RESULT:      -7.4      2.351     12.886
REMARK  Name = C:\Users\Docking\Desktop\test protocol\1iep_ligandH.pdb
REMARK  8 active torsions:
REMARK  status: ('A' for Active; 'I' for Inactive)
REMARK    1  A    between atoms: _5  and  _11
REMARK    2  A    between atoms: _19  and  _21
REMARK    3  A    between atoms: _22  and  _66
REMARK    4  A    between atoms: _27  and  _30
REMARK    5  A    between atoms: _32  and  _33
REMARK    6  A    between atoms: _38  and  _43
REMARK    7  A    between atoms: _43  and  _46
REMARK    8  A    between atoms: _53  and  _55
REMARK                            x       y       z     vdW  Elec       q    Type
REMARK                         _______ _______ _______ _____ _____    ______ ____
ROOT
ATOM     10  C   UNL     1       8.482  30.026  -2.916  0.00  0.00    +0.038 A 
ATOM     11  C   UNL     1       7.890  28.943  -2.218  0.00  0.00    +0.047 A 
ATOM     12  C   UNL     1       7.241  29.141  -0.931  0.00  0.00    +0.035 A 
ATOM     32  C   UNL     1       7.212  30.457  -0.385  0.00  0.00    +0.024 A 
ATOM     33  C   UNL     1       7.810  31.570  -1.080  0.00  0.00    +0.007 A 
ATOM     34  C   UNL     1       8.454  31.380  -2.349  0.00  0.00    -0.029 A 
ATOM     35  C   UNL     1       9.084  32.608  -3.046  0.00  0.00    +0.045 C 
ENDROOT
BRANCH  10   9
ATOM      4  C   UNL     1      12.227  28.654  -5.587  0.00  0.00    +0.077 A 
ATOM      5  C   UNL     1      13.047  28.436  -4.430  0.00  0.00    +0.048 A 
ATOM      6  C   UNL     1      12.470  28.696  -3.167  0.00  0.00    +0.116 A 
ATOM      7  N   UNL     1      11.169  29.140  -3.079  0.00  0.00    -0.223 NA
ATOM      8  C   UNL     1      10.405  29.341  -4.214  0.00  0.00    +0.220 A 
ATOM      9  N   UNL     1       9.092  29.779  -4.148  0.00  0.00    -0.283 N 
ATOM     36  H   UNL     1       8.564  29.923  -5.009  0.00  0.00    +0.155 HD
ATOM     37  N   UNL     1      10.934  29.102  -5.432  0.00  0.00    -0.214 NA
BRANCH   4   3
ATOM      1  C   UNL     1      14.493  28.018  -8.711  0.00  0.00    +0.020 A 
ATOM      2  C   UNL     1      14.096  28.241  -7.340  0.00  0.00    +0.013 A 
ATOM      3  C   UNL     1      12.692  28.421  -6.990  0.00  0.00    +0.019 A 
ATOM     38  C   UNL     1      11.708  28.368  -8.060  0.00  0.00    +0.120 A 
ATOM     39  N   UNL     1      12.119  28.153  -9.372  0.00  0.00    -0.263 NA
ATOM     40  C   UNL     1      13.467  27.981  -9.720  0.00  0.00    +0.111 A 
ENDBRANCH   4   3
ENDBRANCH  10   9
BRANCH  12  13
ATOM     13  N   UNL     1       6.630  28.078  -0.173  0.00  0.00    -0.281 N 
ATOM     14  C   UNL     1       5.315  27.645  -0.221  0.00  0.00    +0.248 C 
ATOM     30  O   UNL     1       4.408  28.251  -0.771  0.00  0.00    -0.270 OA
ATOM     31  H   UNL     1       7.241  27.584   0.478  0.00  0.00    +0.155 HD
BRANCH  14  15
ATOM     15  C   UNL     1       4.953  26.361   0.453  0.00  0.00    +0.037 A 
ATOM     16  C   UNL     1       4.219  25.311  -0.258  0.00  0.00    +0.013 A 
ATOM     17  C   UNL     1       3.867  24.088   0.420  0.00  0.00    +0.005 A 
ATOM     18  C   UNL     1       4.250  23.910   1.818  0.00  0.00    -0.033 A 
ATOM     28  C   UNL     1       4.982  24.966   2.498  0.00  0.00    +0.005 A 
ATOM     29  C   UNL     1       5.328  26.165   1.837  0.00  0.00    +0.013 A 
BRANCH  18  19
ATOM     19  C   UNL     1       3.898  22.647   2.627  0.00  0.00    +0.119 C 
BRANCH  19  20
ATOM     20  N   UNL     1       2.678  21.890   2.216  0.00  0.00    -0.302 NA
ATOM     21  C   UNL     1       1.393  22.552   2.724  0.00  0.00    +0.066 C 
ATOM     22  C   UNL     1       0.126  21.760   2.266  0.00  0.00    -0.064 C 
ATOM     23  N   UNL     1       0.223  20.317   2.762  0.00  0.00    +0.379 N 
ATOM     24  C   UNL     1      -0.994  19.584   2.384  0.00  0.00    -0.096 C 
ATOM     25  H   UNL     1       0.269  20.344   3.876  0.00  0.00    -0.082 HD
ATOM     26  C   UNL     1       1.499  19.651   2.265  0.00  0.00    -0.064 C 
ATOM     27  C   UNL     1       2.751  20.463   2.700  0.00  0.00    +0.066 C 
ENDBRANCH  19  20
ENDBRANCH  18  19
ENDBRANCH  14  15
ENDBRANCH  12  13
TORSDOF 6
ENDMDL
MODEL 4
REMARK VINA RESULT:      -7.2      3.350     13.130
REMARK  Name = C:\Users\Docking\Desktop\test protocol\1iep_ligandH.pdb
REMARK  8 active torsions:
REMARK  status: ('A' for Active; 'I' for Inactive)
REMARK    1  A    between atoms: _5  and  _11
REMARK    2  A    between atoms: _19  and  _21
REMARK    3  A    between atoms: _22  and  _66
REMARK    4  A    between atoms: _27  and  _30
REMARK    5  A    between atoms: _32  and  _33
REMARK    6  A    between atoms: _38  and  _43
REMARK    7  A    between atoms: _43  and  _46
REMARK    8  A    between atoms: _53  and  _55
REMARK                            x       y       z     vdW  Elec       q    Type
REMARK                         _______ _______ _______ _____ _____    ______ ____
ROOT
ATOM     10  C   UNL     1      13.343  28.416  -6.712  0.00  0.00    +0.038 A 
ATOM     11  C   UNL     1      12.236  28.444  -5.826  0.00  0.00    +0.047 A 
ATOM     12  C   UNL     1      12.233  29.302  -4.652  0.00  0.00    +0.035 A 
ATOM     32  C   UNL     1      13.375  30.122  -4.412  0.00  0.00    +0.024 A 
ATOM     33  C   UNL     1      14.509  30.105  -5.301  0.00  0.00    +0.007 A 
ATOM     34  C   UNL     1      14.518  29.258  -6.460  0.00  0.00    -0.029 A 
ATOM     35  C   UNL     1      15.765  29.276  -7.375  0.00  0.00    +0.045 C 
ENDROOT
BRANCH  10   9
ATOM      4  C   UNL     1      12.613  27.619 -11.389  0.00  0.00    +0.077 A 
ATOM      5  C   UNL     1      12.279  28.993 -11.631  0.00  0.00    +0.048 A 
ATOM      6  C   UNL     1      12.300  29.871 -10.524  0.00  0.00    +0.116 A 
ATOM      7  N   UNL     1      12.632  29.399  -9.273  0.00  0.00    -0.223 NA
ATOM      8  C   UNL     1      12.947  28.068  -9.073  0.00  0.00    +0.220 A 
ATOM      9  N   UNL     1      13.292  27.573  -7.825  0.00  0.00    -0.283 N 
ATOM     36  H   UNL     1      13.511  26.583  -7.718  0.00  0.00    +0.155 HD
ATOM     37  N   UNL     1      12.933  27.209 -10.114  0.00  0.00    -0.214 NA
BRANCH   4   3
ATOM      1  C   UNL     1      11.622  25.350 -14.417  0.00  0.00    +0.020 A 
ATOM      2  C   UNL     1      11.547  26.377 -13.404  0.00  0.00    +0.013 A 
ATOM      3  C   UNL     1      12.638  26.570 -12.457  0.00  0.00    +0.019 A 
ATOM     38  C   UNL     1      13.800  25.701 -12.564  0.00  0.00    +0.120 A 
ATOM     39  N   UNL     1      13.844  24.720 -13.549  0.00  0.00    -0.263 NA
ATOM     40  C   UNL     1      12.799  24.523 -14.464  0.00  0.00    +0.111 A 
ENDBRANCH   4   3
ENDBRANCH  10   9
BRANCH  12  13
ATOM     13  N   UNL     1      11.142  29.367  -3.713  0.00  0.00    -0.281 N 
ATOM     14  C   UNL     1       9.855  29.832  -3.933  0.00  0.00    +0.248 C 
ATOM     30  O   UNL     1       9.508  30.464  -4.919  0.00  0.00    -0.270 OA
ATOM     31  H   UNL     1      11.341  29.029  -2.771  0.00  0.00    +0.155 HD
BRANCH  14  15
ATOM     15  C   UNL     1       8.806  29.568  -2.901  0.00  0.00    +0.037 A 
ATOM     16  C   UNL     1       8.028  30.661  -2.312  0.00  0.00    +0.013 A 
ATOM     17  C   UNL     1       7.034  30.381  -1.306  0.00  0.00    +0.005 A 
ATOM     18  C   UNL     1       6.811  29.000  -0.885  0.00  0.00    -0.033 A 
ATOM     28  C   UNL     1       7.593  27.935  -1.490  0.00  0.00    +0.005 A 
ATOM     29  C   UNL     1       8.569  28.206  -2.475  0.00  0.00    +0.013 A 
BRANCH  18  19
ATOM     19  C   UNL     1       5.786  28.611   0.197  0.00  0.00    +0.119 C 
BRANCH  19  20
ATOM     20  N   UNL     1       5.588  27.155   0.459  0.00  0.00    -0.302 NA
ATOM     21  C   UNL     1       4.400  26.586  -0.322  0.00  0.00    +0.066 C 
ATOM     22  C   UNL     1       4.222  25.056  -0.054  0.00  0.00    -0.064 C 
ATOM     23  N   UNL     1       4.044  24.822   1.447  0.00  0.00    +0.379 N 
ATOM     24  C   UNL     1       3.818  23.391   1.697  0.00  0.00    -0.096 C 
ATOM     25  H   UNL     1       3.129  25.371   1.769  0.00  0.00    -0.082 HD
ATOM     26  C   UNL     1       5.220  25.387   2.232  0.00  0.00    -0.064 C 
ATOM     27  C   UNL     1       5.407  26.901   1.935  0.00  0.00    +0.066 C 
ENDBRANCH  19  20
ENDBRANCH  18  19
ENDBRANCH  14  15
ENDBRANCH  12  13
TORSDOF 6
ENDMDL
MODEL 5
REMARK VINA RESULT:      -7.0     18.500     21.785
REMARK  Name = C:\Users\Docking\Desktop\test protocol\1iep_ligandH.pdb
REMARK  8 active torsions:
REMARK  status: ('A' for Active; 'I' for Inactive)
REMARK    1  A    between atoms: _5  and  _11
REMARK    2  A    between atoms: _19  and  _21
REMARK    3  A    between atoms: _22  and  _66
REMARK    4  A    between atoms: _27  and  _30
REMARK    5  A    between atoms: _32  and  _33
REMARK    6  A    between atoms: _38  and  _43
REMARK    7  A    between atoms: _43  and  _46
REMARK    8  A    between atoms: _53  and  _55
REMARK                            x       y       z     vdW  Elec       q    Type
REMARK                         _______ _______ _______ _____ _____    ______ ____
ROOT
ATOM     10  C   UNL     1       5.355   6.875 -10.522  0.00  0.00    +0.038 A 
ATOM     11  C   UNL     1       4.511   8.007 -10.381  0.00  0.00    +0.047 A 
ATOM     12  C   UNL     1       3.570   8.378 -11.426  0.00  0.00    +0.035 A 
ATOM     32  C   UNL     1       3.513   7.573 -12.601  0.00  0.00    +0.024 A 
ATOM     33  C   UNL     1       4.364   6.420 -12.761  0.00  0.00    +0.007 A 
ATOM     34  C   UNL     1       5.296   6.050 -11.734  0.00  0.00    -0.029 A 
ATOM     35  C   UNL     1       6.188   4.808 -11.962  0.00  0.00    +0.045 C 
ENDROOT
BRANCH  10   9
ATOM      4  C   UNL     1       9.527   7.422  -8.213  0.00  0.00    +0.077 A 
ATOM      5  C   UNL     1       9.994   8.389  -9.164  0.00  0.00    +0.048 A 
ATOM      6  C   UNL     1       9.133   8.713 -10.237  0.00  0.00    +0.116 A 
ATOM      7  N   UNL     1       7.899   8.109 -10.340  0.00  0.00    -0.223 NA
ATOM      8  C   UNL     1       7.480   7.179  -9.407  0.00  0.00    +0.220 A 
ATOM      9  N   UNL     1       6.240   6.565  -9.487  0.00  0.00    -0.283 N 
ATOM     36  H   UNL     1       5.970   5.879  -8.782  0.00  0.00    +0.155 HD
ATOM     37  N   UNL     1       8.284   6.852  -8.374  0.00  0.00    -0.214 NA
BRANCH   4   3
ATOM      1  C   UNL     1      11.685   5.279  -5.753  0.00  0.00    +0.020 A 
ATOM      2  C   UNL     1      10.928   5.658  -6.924  0.00  0.00    +0.013 A 
ATOM      3  C   UNL     1      10.320   6.979  -7.023  0.00  0.00    +0.019 A 
ATOM     38  C   UNL     1      10.498   7.900  -5.911  0.00  0.00    +0.120 A 
ATOM     39  N   UNL     1      11.231   7.507  -4.795  0.00  0.00    -0.263 NA
ATOM     40  C   UNL     1      11.819   6.238  -4.688  0.00  0.00    +0.111 A 
ENDBRANCH   4   3
ENDBRANCH  10   9
BRANCH  12  13
ATOM     13  N   UNL     1       2.694   9.520 -11.343  0.00  0.00    -0.281 N 
ATOM     14  C   UNL     1       1.425   9.582 -10.791  0.00  0.00    +0.248 C 
ATOM     30  O   UNL     1       0.761   8.606 -10.475  0.00  0.00    -0.270 OA
ATOM     31  H   UNL     1       3.053  10.389 -11.739  0.00  0.00    +0.155 HD
BRANCH  14  15
ATOM     15  C   UNL     1       0.796  10.920 -10.573  0.00  0.00    +0.037 A 
ATOM     16  C   UNL     1       0.849  11.961 -11.603  0.00  0.00    +0.013 A 
ATOM     17  C   UNL     1       0.249  13.249 -11.360  0.00  0.00    +0.005 A 
ATOM     18  C   UNL     1      -0.410  13.503 -10.081  0.00  0.00    -0.033 A 
ATOM     28  C   UNL     1      -0.452  12.451  -9.079  0.00  0.00    +0.005 A 
ATOM     29  C   UNL     1       0.135  11.187  -9.313  0.00  0.00    +0.013 A 
BRANCH  18  19
ATOM     19  C   UNL     1      -1.058  14.855  -9.728  0.00  0.00    +0.119 C 
BRANCH  19  20
ATOM     20  N   UNL     1      -0.418  16.085 -10.281  0.00  0.00    -0.302 NA
ATOM     21  C   UNL     1      -0.218  17.160  -9.210  0.00  0.00    +0.066 C 
ATOM     22  C   UNL     1       0.473  18.432  -9.801  0.00  0.00    -0.064 C 
ATOM     23  N   UNL     1      -0.366  18.972 -10.961  0.00  0.00    +0.379 N 
ATOM     24  C   UNL     1       0.251  20.201 -11.482  0.00  0.00    -0.096 C 
ATOM     25  H   UNL     1      -1.369  19.243 -10.555  0.00  0.00    -0.082 HD
ATOM     26  C   UNL     1      -0.572  17.909 -12.030  0.00  0.00    -0.064 C 
ATOM     27  C   UNL     1      -1.233  16.638 -11.425  0.00  0.00    +0.066 C 
ENDBRANCH  19  20
ENDBRANCH  18  19
ENDBRANCH  14  15
ENDBRANCH  12  13
TORSDOF 6
ENDMDL
