MODEL 1
REMARK VINA RESULT:      -7.7      0.000      0.000
REMARK  Name = C:\Users\Docking\Desktop\test protocol\1iep_ligandH.pdb
REMARK  8 active torsions:
REMARK  status: ('A' for Active; 'I' for Inactive)
REMARK    1  A    between atoms: _5  and  _11
REMARK    2  A    between atoms: _19  and  _21
REMARK    3  A    between atoms: _22  and  _66
REMARK    4  A    between atoms: _27  and  _30
REMARK    5  A    between atoms: _32  and  _33
REMARK    6  A    between atoms: _38  and  _43
REMARK    7  A    between atoms: _43  and  _46
REMARK    8  A    between atoms: _53  and  _55
REMARK                            x       y       z     vdW  Elec       q    Type
REMARK                         _______ _______ _______ _____ _____    ______ ____
ROOT
ATOM     10  C   UNL     1      -9.755  21.362   7.253  0.00  0.00    +0.038 A 
ATOM     11  C   UNL     1      -8.662  20.761   6.579  0.00  0.00    +0.047 A 
ATOM     12  C   UNL     1      -8.024  21.415   5.447  0.00  0.00    +0.035 A 
ATOM     32  C   UNL     1      -8.524  22.684   5.030  0.00  0.00    +0.024 A 
ATOM     33  C   UNL     1      -9.635  23.309   5.704  0.00  0.00    +0.007 A 
ATOM     34  C   UNL     1     -10.270  22.667   6.819  0.00  0.00    -0.029 A 
ATOM     35  C   UNL     1     -11.461  23.380   7.499  0.00  0.00    +0.045 C 
ENDROOT
BRANCH  10   9
ATOM      4  C   UNL     1     -13.121  18.528   9.169  0.00  0.00    +0.077 A 
ATOM      5  C   UNL     1     -13.809  18.398   7.917  0.00  0.00    +0.048 A 
ATOM      6  C   UNL     1     -13.268  19.082   6.805  0.00  0.00    +0.116 A 
ATOM      7  N   UNL     1     -12.123  19.837   6.947  0.00  0.00    -0.223 NA
ATOM      8  C   UNL     1     -11.486  19.942   8.170  0.00  0.00    +0.220 A 
ATOM      9  N   UNL     1     -10.330  20.689   8.334  0.00  0.00    -0.283 N 
ATOM     36  H   UNL     1      -9.893  20.748   9.254  0.00  0.00    +0.155 HD
ATOM     37  N   UNL     1     -11.984  19.300   9.247  0.00  0.00    -0.214 NA
BRANCH   4   3
ATOM      1  C   UNL     1     -13.259  17.224  12.855  0.00  0.00    +0.020 A 
ATOM      2  C   UNL     1     -12.781  17.882  11.660  0.00  0.00    +0.013 A 
ATOM      3  C   UNL     1     -13.568  17.862  10.434  0.00  0.00    +0.019 A 
ATOM     38  C   UNL     1     -14.844  17.163  10.450  0.00  0.00    +0.120 A 
ATOM     39  N   UNL     1     -15.278  16.537  11.614  0.00  0.00    -0.263 NA
ATOM     40  C   UNL     1     -14.528  16.548  12.800  0.00  0.00    +0.111 A 
ENDBRANCH   4   3
ENDBRANCH  10   9
BRANCH  12  13
ATOM     13  N   UNL     1      -6.916  20.850   4.718  0.00  0.00    -0.281 N 
ATOM     14  C   UNL     1      -6.929  19.770   3.850  0.00  0.00    +0.248 C 
ATOM     30  O   UNL     1      -7.862  18.990   3.733  0.00  0.00    -0.270 OA
ATOM     31  H   UNL     1      -6.011  21.300   4.859  0.00  0.00    +0.155 HD
BRANCH  14  15
ATOM     15  C   UNL     1      -5.728  19.512   3.000  0.00  0.00    +0.037 A 
ATOM     16  C   UNL     1      -4.690  18.566   3.418  0.00  0.00    +0.013 A 
ATOM     17  C   UNL     1      -3.533  18.348   2.587  0.00  0.00    +0.005 A 
ATOM     18  C   UNL     1      -3.407  19.078   1.328  0.00  0.00    -0.033 A 
ATOM     28  C   UNL     1      -4.454  20.007   0.935  0.00  0.00    +0.005 A 
ATOM     29  C   UNL     1      -5.589  20.224   1.747  0.00  0.00    +0.013 A 
BRANCH  18  19
ATOM     19  C   UNL     1      -2.196  18.924   0.389  0.00  0.00    +0.119 C 
BRANCH  19  20
ATOM     20  N   UNL     1      -2.110  17.669  -0.415  0.00  0.00    -0.302 NA
ATOM     21  C   UNL     1      -0.777  16.943  -0.207  0.00  0.00    +0.066 C 
ATOM     22  C   UNL     1      -0.713  15.621  -1.038  0.00  0.00    -0.064 C 
ATOM     23  N   UNL     1      -0.930  15.941  -2.518  0.00  0.00    +0.379 N 
ATOM     24  C   UNL     1      -0.812  14.707  -3.309  0.00  0.00    -0.096 C 
ATOM     25  H   UNL     1      -0.112  16.628  -2.839  0.00  0.00    -0.082 HD
ATOM     26  C   UNL     1      -2.252  16.665  -2.734  0.00  0.00    -0.064 C 
ATOM     27  C   UNL     1      -2.317  17.962  -1.881  0.00  0.00    +0.066 C 
ENDBRANCH  19  20
ENDBRANCH  18  19
ENDBRANCH  14  15
ENDBRANCH  12  13
TORSDOF 6
ENDMDL
MODEL 2
REMARK VINA RESULT:      -7.7      1.090      1.686
REMARK  Name = C:\Users\Docking\Desktop\test protocol\1iep_ligandH.pdb
REMARK  8 active torsions:
REMARK  status: ('A' for Active; 'I' for Inactive)
REMARK    1  A    between atoms: _5  and  _11
REMARK    2  A    between atoms: _19  and  _21
REMARK    3  A    between atoms: _22  and  _66
REMARK    4  A    between atoms: _27  and  _30
REMARK    5  A    between atoms: _32  and  _33
REMARK    6  A    between atoms: _38  and  _43
REMARK    7  A    between atoms: _43  and  _46
REMARK    8  A    between atoms: _53  and  _55
REMARK                            x       y       z     vdW  Elec       q    Type
REMARK                         _______ _______ _______ _____ _____    ______ ____
ROOT
ATOM     10  C   UNL     1      -9.314  21.650   7.269  0.00  0.00    +0.038 A 
ATOM     11  C   UNL     1      -8.415  20.949   6.426  0.00  0.00    +0.047 A 
ATOM     12  C   UNL     1      -7.718  21.623   5.343  0.00  0.00    +0.035 A 
ATOM     32  C   UNL     1      -7.958  23.015   5.147  0.00  0.00    +0.024 A 
ATOM     33  C   UNL     1      -8.869  23.743   5.994  0.00  0.00    +0.007 A 
ATOM     34  C   UNL     1      -9.562  23.082   7.063  0.00  0.00    -0.029 A 
ATOM     35  C   UNL     1     -10.533  23.912   7.935  0.00  0.00    +0.045 C 
ENDROOT
BRANCH  10   9
ATOM      4  C   UNL     1     -12.857  18.863   8.918  0.00  0.00    +0.077 A 
ATOM      5  C   UNL     1     -13.496  18.814   7.635  0.00  0.00    +0.048 A 
ATOM      6  C   UNL     1     -12.885  19.526   6.578  0.00  0.00    +0.116 A 
ATOM      7  N   UNL     1     -11.721  20.230   6.800  0.00  0.00    -0.223 NA
ATOM      8  C   UNL     1     -11.132  20.258   8.050  0.00  0.00    +0.220 A 
ATOM      9  N   UNL     1      -9.957  20.953   8.294  0.00  0.00    -0.283 N 
ATOM     36  H   UNL     1      -9.558  20.955   9.233  0.00  0.00    +0.155 HD
ATOM     37  N   UNL     1     -11.697  19.587   9.076  0.00  0.00    -0.214 NA
BRANCH   4   3
ATOM      1  C   UNL     1     -13.208  17.432  12.542  0.00  0.00    +0.020 A 
ATOM      2  C   UNL     1     -12.659  18.125  11.399  0.00  0.00    +0.013 A 
ATOM      3  C   UNL     1     -13.379  18.160  10.132  0.00  0.00    +0.019 A 
ATOM     38  C   UNL     1     -14.663  17.479  10.055  0.00  0.00    +0.120 A 
ATOM     39  N   UNL     1     -15.167  16.819  11.172  0.00  0.00    -0.263 NA
ATOM     40  C   UNL     1     -14.482  16.777  12.395  0.00  0.00    +0.111 A 
ENDBRANCH   4   3
ENDBRANCH  10   9
BRANCH  12  13
ATOM     13  N   UNL     1      -6.799  20.961   4.450  0.00  0.00    -0.281 N 
ATOM     14  C   UNL     1      -7.008  19.804   3.718  0.00  0.00    +0.248 C 
ATOM     30  O   UNL     1      -7.947  19.040   3.886  0.00  0.00    -0.270 OA
ATOM     31  H   UNL     1      -5.884  21.399   4.344  0.00  0.00    +0.155 HD
BRANCH  14  15
ATOM     15  C   UNL     1      -6.024  19.433   2.656  0.00  0.00    +0.037 A 
ATOM     16  C   UNL     1      -6.236  19.813   1.257  0.00  0.00    +0.013 A 
ATOM     17  C   UNL     1      -5.279  19.429   0.250  0.00  0.00    +0.005 A 
ATOM     18  C   UNL     1      -4.100  18.659   0.639  0.00  0.00    -0.033 A 
ATOM     28  C   UNL     1      -3.911  18.300   2.035  0.00  0.00    +0.005 A 
ATOM     29  C   UNL     1      -4.847  18.674   3.025  0.00  0.00    +0.013 A 
BRANCH  18  19
ATOM     19  C   UNL     1      -3.037  18.188  -0.371  0.00  0.00    +0.119 C 
BRANCH  19  20
ATOM     20  N   UNL     1      -1.832  17.497   0.176  0.00  0.00    -0.302 NA
ATOM     21  C   UNL     1      -0.688  18.475   0.459  0.00  0.00    +0.066 C 
ATOM     22  C   UNL     1       0.557  17.738   1.053  0.00  0.00    -0.064 C 
ATOM     23  N   UNL     1       1.008  16.644   0.084  0.00  0.00    +0.379 N 
ATOM     24  C   UNL     1       2.213  15.988   0.611  0.00  0.00    -0.096 C 
ATOM     25  H   UNL     1       1.284  17.137  -0.878  0.00  0.00    -0.082 HD
ATOM     26  C   UNL     1      -0.124  15.669  -0.206  0.00  0.00    -0.064 C 
ATOM     27  C   UNL     1      -1.367  16.415  -0.767  0.00  0.00    +0.066 C 
ENDBRANCH  19  20
ENDBRANCH  18  19
ENDBRANCH  14  15
ENDBRANCH  12  13
TORSDOF 6
ENDMDL
MODEL 3
REMARK VINA RESULT:      -7.7      0.849      1.295
REMARK  Name = C:\Users\Docking\Desktop\test protocol\1iep_ligandH.pdb
REMARK  8 active torsions:
REMARK  status: ('A' for Active; 'I' for Inactive)
REMARK    1  A    between atoms: _5  and  _11
REMARK    2  A    between atoms: _19  and  _21
REMARK    3  A    between atoms: _22  and  _66
REMARK    4  A    between atoms: _27  and  _30
REMARK    5  A    between atoms: _32  and  _33
REMARK    6  A    between atoms: _38  and  _43
REMARK    7  A    between atoms: _43  and  _46
REMARK    8  A    between atoms: _53  and  _55
REMARK                            x       y       z     vdW  Elec       q    Type
REMARK                         _______ _______ _______ _____ _____    ______ ____
ROOT
ATOM     10  C   UNL     1     -10.024  21.080   7.138  0.00  0.00    +0.038 A 
ATOM     11  C   UNL     1      -8.933  20.472   6.466  0.00  0.00    +0.047 A 
ATOM     12  C   UNL     1      -8.063  21.242   5.592  0.00  0.00    +0.035 A 
ATOM     32  C   UNL     1      -8.331  22.633   5.427  0.00  0.00    +0.024 A 
ATOM     33  C   UNL     1      -9.436  23.267   6.101  0.00  0.00    +0.007 A 
ATOM     34  C   UNL     1     -10.300  22.512   6.962  0.00  0.00    -0.029 A 
ATOM     35  C   UNL     1     -11.474  23.243   7.654  0.00  0.00    +0.045 C 
ENDROOT
BRANCH  10   9
ATOM      4  C   UNL     1     -13.980  18.496   7.980  0.00  0.00    +0.077 A 
ATOM      5  C   UNL     1     -14.503  18.760   6.671  0.00  0.00    +0.048 A 
ATOM      6  C   UNL     1     -13.726  19.571   5.813  0.00  0.00    +0.116 A 
ATOM      7  N   UNL     1     -12.518  20.075   6.244  0.00  0.00    -0.223 NA
ATOM      8  C   UNL     1     -12.044  19.803   7.514  0.00  0.00    +0.220 A 
ATOM      9  N   UNL     1     -10.828  20.293   7.965  0.00  0.00    -0.283 N 
ATOM     36  H   UNL     1     -10.517  20.075   8.912  0.00  0.00    +0.155 HD
ATOM     37  N   UNL     1     -12.768  19.032   8.352  0.00  0.00    -0.214 NA
BRANCH   4   3
ATOM      1  C   UNL     1     -16.553  16.130   9.736  0.00  0.00    +0.020 A 
ATOM      2  C   UNL     1     -15.915  16.930   8.716  0.00  0.00    +0.013 A 
ATOM      3  C   UNL     1     -14.683  17.655   9.000  0.00  0.00    +0.019 A 
ATOM     38  C   UNL     1     -14.117  17.547  10.336  0.00  0.00    +0.120 A 
ATOM     39  N   UNL     1     -14.754  16.771  11.299  0.00  0.00    -0.263 NA
ATOM     40  C   UNL     1     -15.942  16.070  11.038  0.00  0.00    +0.111 A 
ENDBRANCH   4   3
ENDBRANCH  10   9
BRANCH  12  13
ATOM     13  N   UNL     1      -6.945  20.677   4.878  0.00  0.00    -0.281 N 
ATOM     14  C   UNL     1      -6.966  19.688   3.909  0.00  0.00    +0.248 C 
ATOM     30  O   UNL     1      -7.934  18.985   3.659  0.00  0.00    -0.270 OA
ATOM     31  H   UNL     1      -6.026  21.052   5.117  0.00  0.00    +0.155 HD
BRANCH  14  15
ATOM     15  C   UNL     1      -5.728  19.433   3.110  0.00  0.00    +0.037 A 
ATOM     16  C   UNL     1      -4.562  18.776   3.705  0.00  0.00    +0.013 A 
ATOM     17  C   UNL     1      -3.375  18.558   2.917  0.00  0.00    +0.005 A 
ATOM     18  C   UNL     1      -3.349  18.997   1.524  0.00  0.00    -0.033 A 
ATOM     28  C   UNL     1      -4.522  19.642   0.958  0.00  0.00    +0.005 A 
ATOM     29  C   UNL     1      -5.687  19.858   1.727  0.00  0.00    +0.013 A 
BRANCH  18  19
ATOM     19  C   UNL     1      -2.118  18.824   0.615  0.00  0.00    +0.119 C 
BRANCH  19  20
ATOM     20  N   UNL     1      -2.064  17.600  -0.238  0.00  0.00    -0.302 NA
ATOM     21  C   UNL     1      -0.702  16.905  -0.162  0.00  0.00    +0.066 C 
ATOM     22  C   UNL     1      -0.671  15.614  -1.043  0.00  0.00    -0.064 C 
ATOM     23  N   UNL     1      -1.012  15.978  -2.489  0.00  0.00    +0.379 N 
ATOM     24  C   UNL     1      -0.927  14.776  -3.331  0.00  0.00    -0.096 C 
ATOM     25  H   UNL     1      -0.240  16.698  -2.847  0.00  0.00    -0.082 HD
ATOM     26  C   UNL     1      -2.365  16.672  -2.574  0.00  0.00    -0.064 C 
ATOM     27  C   UNL     1      -2.394  17.937  -1.672  0.00  0.00    +0.066 C 
ENDBRANCH  19  20
ENDBRANCH  18  19
ENDBRANCH  14  15
ENDBRANCH  12  13
TORSDOF 6
ENDMDL
MODEL 4
REMARK VINA RESULT:      -7.4      1.854      2.381
REMARK  Name = C:\Users\Docking\Desktop\test protocol\1iep_ligandH.pdb
REMARK  8 active torsions:
REMARK  status: ('A' for Active; 'I' for Inactive)
REMARK    1  A    between atoms: _5  and  _11
REMARK    2  A    between atoms: _19  and  _21
REMARK    3  A    between atoms: _22  and  _66
REMARK    4  A    between atoms: _27  and  _30
REMARK    5  A    between atoms: _32  and  _33
REMARK    6  A    between atoms: _38  and  _43
REMARK    7  A    between atoms: _43  and  _46
REMARK    8  A    between atoms: _53  and  _55
REMARK                            x       y       z     vdW  Elec       q    Type
REMARK                         _______ _______ _______ _____ _____    ______ ____
ROOT
ATOM     10  C   UNL     1      -8.523  21.235   6.184  0.00  0.00    +0.038 A 
ATOM     11  C   UNL     1      -7.875  20.612   5.087  0.00  0.00    +0.047 A 
ATOM     12  C   UNL     1      -6.916  21.338   4.269  0.00  0.00    +0.035 A 
ATOM     32  C   UNL     1      -6.639  22.697   4.598  0.00  0.00    +0.024 A 
ATOM     33  C   UNL     1      -7.290  23.347   5.709  0.00  0.00    +0.007 A 
ATOM     34  C   UNL     1      -8.239  22.636   6.518  0.00  0.00    -0.029 A 
ATOM     35  C   UNL     1      -8.912  23.384   7.692  0.00  0.00    +0.045 C 
ENDROOT
BRANCH  10   9
ATOM      4  C   UNL     1     -12.993  19.858   7.262  0.00  0.00    +0.077 A 
ATOM      5  C   UNL     1     -13.562  20.714   6.261  0.00  0.00    +0.048 A 
ATOM      6  C   UNL     1     -12.670  21.498   5.495  0.00  0.00    +0.116 A 
ATOM      7  N   UNL     1     -11.313  21.423   5.721  0.00  0.00    -0.223 NA
ATOM      8  C   UNL     1     -10.797  20.588   6.696  0.00  0.00    +0.220 A 
ATOM      9  N   UNL     1      -9.435  20.491   6.936  0.00  0.00    -0.283 N 
ATOM     36  H   UNL     1      -9.095  19.869   7.669  0.00  0.00    +0.155 HD
ATOM     37  N   UNL     1     -11.628  19.831   7.442  0.00  0.00    -0.214 NA
BRANCH   4   3
ATOM      1  C   UNL     1     -15.430  18.573  10.039  0.00  0.00    +0.020 A 
ATOM      2  C   UNL     1     -14.666  19.477   9.210  0.00  0.00    +0.013 A 
ATOM      3  C   UNL     1     -13.805  18.967   8.150  0.00  0.00    +0.019 A 
ATOM     38  C   UNL     1     -13.739  17.527   7.954  0.00  0.00    +0.120 A 
ATOM     39  N   UNL     1     -14.485  16.681   8.769  0.00  0.00    -0.263 NA
ATOM     40  C   UNL     1     -15.315  17.160   9.793  0.00  0.00    +0.111 A 
ENDBRANCH   4   3
ENDBRANCH  10   9
BRANCH  12  13
ATOM     13  N   UNL     1      -6.232  20.761   3.139  0.00  0.00    -0.281 N 
ATOM     14  C   UNL     1      -5.186  19.853   3.149  0.00  0.00    +0.248 C 
ATOM     30  O   UNL     1      -4.534  19.560   4.141  0.00  0.00    -0.270 OA
ATOM     31  H   UNL     1      -6.559  21.058   2.219  0.00  0.00    +0.155 HD
BRANCH  14  15
ATOM     15  C   UNL     1      -4.798  19.184   1.870  0.00  0.00    +0.037 A 
ATOM     16  C   UNL     1      -3.840  18.075   1.852  0.00  0.00    +0.013 A 
ATOM     17  C   UNL     1      -3.470  17.459   0.603  0.00  0.00    +0.005 A 
ATOM     18  C   UNL     1      -4.060  17.949  -0.640  0.00  0.00    -0.033 A 
ATOM     28  C   UNL     1      -5.012  19.047  -0.593  0.00  0.00    +0.005 A 
ATOM     29  C   UNL     1      -5.376  19.654   0.629  0.00  0.00    +0.013 A 
BRANCH  18  19
ATOM     19  C   UNL     1      -3.708  17.365  -2.021  0.00  0.00    +0.119 C 
BRANCH  19  20
ATOM     20  N   UNL     1      -2.325  16.832  -2.205  0.00  0.00    -0.302 NA
ATOM     21  C   UNL     1      -1.276  17.947  -2.220  0.00  0.00    +0.066 C 
ATOM     22  C   UNL     1       0.167  17.370  -2.391  0.00  0.00    -0.064 C 
ATOM     23  N   UNL     1       0.234  16.546  -3.678  0.00  0.00    +0.379 N 
ATOM     24  C   UNL     1       1.604  16.050  -3.871  0.00  0.00    -0.096 C 
ATOM     25  H   UNL     1      -0.002  17.227  -4.528  0.00  0.00    -0.082 HD
ATOM     26  C   UNL     1      -0.807  15.436  -3.672  0.00  0.00    -0.064 C 
ATOM     27  C   UNL     1      -2.235  16.018  -3.472  0.00  0.00    +0.066 C 
ENDBRANCH  19  20
ENDBRANCH  18  19
ENDBRANCH  14  15
ENDBRANCH  12  13
TORSDOF 6
ENDMDL
MODEL 5
REMARK VINA RESULT:      -7.2     18.222     20.312
REMARK  Name = C:\Users\Docking\Desktop\test protocol\1iep_ligandH.pdb
REMARK  8 active torsions:
REMARK  status: ('A' for Active; 'I' for Inactive)
REMARK    1  A    between atoms: _5  and  _11
REMARK    2  A    between atoms: _19  and  _21
REMARK    3  A    between atoms: _22  and  _66
REMARK    4  A    between atoms: _27  and  _30
REMARK    5  A    between atoms: _32  and  _33
REMARK    6  A    between atoms: _38  and  _43
REMARK    7  A    between atoms: _43  and  _46
REMARK    8  A    between atoms: _53  and  _55
REMARK                            x       y       z     vdW  Elec       q    Type
REMARK                         _______ _______ _______ _____ _____    ______ ____
ROOT
ATOM     10  C   UNL     1     -17.693   2.650  -2.770  0.00  0.00    +0.038 A 
ATOM     11  C   UNL     1     -16.793   2.848  -3.847  0.00  0.00    +0.047 A 
ATOM     12  C   UNL     1     -17.266   2.912  -5.221  0.00  0.00    +0.035 A 
ATOM     32  C   UNL     1     -18.665   2.773  -5.461  0.00  0.00    +0.024 A 
ATOM     33  C   UNL     1     -19.594   2.570  -4.377  0.00  0.00    +0.007 A 
ATOM     34  C   UNL     1     -19.132   2.504  -3.020  0.00  0.00    -0.029 A 
ATOM     35  C   UNL     1     -20.173   2.278  -1.899  0.00  0.00    +0.045 C 
ENDROOT
BRANCH  10   9
ATOM      4  C   UNL     1     -16.160   0.229   1.080  0.00  0.00    +0.077 A 
ATOM      5  C   UNL     1     -16.421  -1.039   0.461  0.00  0.00    +0.048 A 
ATOM      6  C   UNL     1     -16.956  -1.023  -0.847  0.00  0.00    +0.116 A 
ATOM      7  N   UNL     1     -17.208   0.175  -1.478  0.00  0.00    -0.223 NA
ATOM      8  C   UNL     1     -16.946   1.380  -0.851  0.00  0.00    +0.220 A 
ATOM      9  N   UNL     1     -17.184   2.598  -1.470  0.00  0.00    -0.283 N 
ATOM     36  H   UNL     1     -16.985   3.464  -0.971  0.00  0.00    +0.155 HD
ATOM     37  N   UNL     1     -16.436   1.392   0.398  0.00  0.00    -0.214 NA
BRANCH   4   3
ATOM      1  C   UNL     1     -15.174   1.683   4.575  0.00  0.00    +0.020 A 
ATOM      2  C   UNL     1     -15.742   1.591   3.250  0.00  0.00    +0.013 A 
ATOM      3  C   UNL     1     -15.592   0.377   2.457  0.00  0.00    +0.019 A 
ATOM     38  C   UNL     1     -14.856  -0.735   3.040  0.00  0.00    +0.120 A 
ATOM     39  N   UNL     1     -14.319  -0.617   4.318  0.00  0.00    -0.263 NA
ATOM     40  C   UNL     1     -14.456   0.547   5.089  0.00  0.00    +0.111 A 
ENDBRANCH   4   3
ENDBRANCH  10   9
BRANCH  12  13
ATOM     13  N   UNL     1     -16.399   3.103  -6.357  0.00  0.00    -0.281 N 
ATOM     14  C   UNL     1     -15.930   4.297  -6.880  0.00  0.00    +0.248 C 
ATOM     30  O   UNL     1     -16.361   5.400  -6.577  0.00  0.00    -0.270 OA
ATOM     31  H   UNL     1     -16.093   2.254  -6.833  0.00  0.00    +0.155 HD
BRANCH  14  15
ATOM     15  C   UNL     1     -14.835   4.260  -7.896  0.00  0.00    +0.037 A 
ATOM     16  C   UNL     1     -15.046   4.753  -9.259  0.00  0.00    +0.013 A 
ATOM     17  C   UNL     1     -13.978   4.690 -10.225  0.00  0.00    +0.005 A 
ATOM     18  C   UNL     1     -12.687   4.133  -9.829  0.00  0.00    -0.033 A 
ATOM     28  C   UNL     1     -12.502   3.657  -8.468  0.00  0.00    +0.005 A 
ATOM     29  C   UNL     1     -13.548   3.716  -7.519  0.00  0.00    +0.013 A 
BRANCH  18  19
ATOM     19  C   UNL     1     -11.497   4.008 -10.799  0.00  0.00    +0.119 C 
BRANCH  19  20
ATOM     20  N   UNL     1     -10.400   5.013 -10.669  0.00  0.00    -0.302 NA
ATOM     21  C   UNL     1      -9.461   4.692  -9.503  0.00  0.00    +0.066 C 
ATOM     22  C   UNL     1      -8.307   5.740  -9.396  0.00  0.00    -0.064 C 
ATOM     23  N   UNL     1      -8.905   7.139  -9.240  0.00  0.00    +0.379 N 
ATOM     24  C   UNL     1      -7.823   8.121  -9.081  0.00  0.00    -0.096 C 
ATOM     25  H   UNL     1      -9.509   7.146  -8.302  0.00  0.00    -0.082 HD
ATOM     26  C   UNL     1      -9.842   7.466 -10.394  0.00  0.00    -0.064 C 
ATOM     27  C   UNL     1     -10.969   6.401 -10.510  0.00  0.00    +0.066 C 
ENDBRANCH  19  20
ENDBRANCH  18  19
ENDBRANCH  14  15
ENDBRANCH  12  13
TORSDOF 6
ENDMDL
