MODEL 1
REMARK VINA RESULT:      -7.6      0.000      0.000
REMARK  Name = C:\Users\Docking\Desktop\test protocol\1iep_ligandH.pdb
REMARK  8 active torsions:
REMARK  status: ('A' for Active; 'I' for Inactive)
REMARK    1  A    between atoms: _5  and  _11
REMARK    2  A    between atoms: _19  and  _21
REMARK    3  A    between atoms: _22  and  _66
REMARK    4  A    between atoms: _27  and  _30
REMARK    5  A    between atoms: _32  and  _33
REMARK    6  A    between atoms: _38  and  _43
REMARK    7  A    between atoms: _43  and  _46
REMARK    8  A    between atoms: _53  and  _55
REMARK                            x       y       z     vdW  Elec       q    Type
REMARK                         _______ _______ _______ _____ _____    ______ ____
ROOT
ATOM     10  C   UNL     1       9.366 -21.637   7.517  0.00  0.00    +0.038 A 
ATOM     11  C   UNL     1       8.441 -20.954   6.686  0.00  0.00    +0.047 A 
ATOM     12  C   UNL     1       7.789 -21.628   5.574  0.00  0.00    +0.035 A 
ATOM     32  C   UNL     1       8.099 -22.999   5.339  0.00  0.00    +0.024 A 
ATOM     33  C   UNL     1       9.037 -23.708   6.173  0.00  0.00    +0.007 A 
ATOM     34  C   UNL     1       9.686 -23.048   7.270  0.00  0.00    -0.029 A 
ATOM     35  C   UNL     1      10.688 -23.855   8.127  0.00  0.00    +0.045 C 
ENDROOT
BRANCH  10   9
ATOM      4  C   UNL     1      12.767 -18.755   9.297  0.00  0.00    +0.077 A 
ATOM      5  C   UNL     1      13.424 -18.649   8.027  0.00  0.00    +0.048 A 
ATOM      6  C   UNL     1      12.860 -19.357   6.943  0.00  0.00    +0.116 A 
ATOM      7  N   UNL     1      11.722 -20.111   7.126  0.00  0.00    -0.223 NA
ATOM      8  C   UNL     1      11.113 -20.194   8.365  0.00  0.00    +0.220 A 
ATOM      9  N   UNL     1       9.963 -20.941   8.570  0.00  0.00    -0.283 N 
ATOM     36  H   UNL     1       9.548 -20.982   9.501  0.00  0.00    +0.155 HD
ATOM     37  N   UNL     1      11.633 -19.529   9.417  0.00  0.00    -0.214 NA
BRANCH   4   3
ATOM      1  C   UNL     1      12.937 -17.284  12.918  0.00  0.00    +0.020 A 
ATOM      2  C   UNL     1      12.432 -17.963  11.746  0.00  0.00    +0.013 A 
ATOM      3  C   UNL     1      13.240 -18.064  10.538  0.00  0.00    +0.019 A 
ATOM     38  C   UNL     1      14.566 -17.463  10.548  0.00  0.00    +0.120 A 
ATOM     39  N   UNL     1      15.025 -16.815  11.690  0.00  0.00    -0.263 NA
ATOM     40  C   UNL     1      14.255 -16.710  12.858  0.00  0.00    +0.111 A 
ENDBRANCH   4   3
ENDBRANCH  10   9
BRANCH  12  13
ATOM     13  N   UNL     1       6.848 -20.984   4.691  0.00  0.00    -0.281 N 
ATOM     14  C   UNL     1       7.000 -19.787   4.011  0.00  0.00    +0.248 C 
ATOM     30  O   UNL     1       7.889 -18.977   4.227  0.00  0.00    -0.270 OA
ATOM     31  H   UNL     1       5.962 -21.470   4.551  0.00  0.00    +0.155 HD
BRANCH  14  15
ATOM     15  C   UNL     1       6.013 -19.431   2.947  0.00  0.00    +0.037 A 
ATOM     16  C   UNL     1       4.855 -18.581   3.237  0.00  0.00    +0.013 A 
ATOM     17  C   UNL     1       3.909 -18.267   2.196  0.00  0.00    +0.005 A 
ATOM     18  C   UNL     1       4.118 -18.802   0.853  0.00  0.00    -0.033 A 
ATOM     28  C   UNL     1       5.278 -19.638   0.591  0.00  0.00    +0.005 A 
ATOM     29  C   UNL     1       6.207 -19.949   1.609  0.00  0.00    +0.013 A 
BRANCH  18  19
ATOM     19  C   UNL     1       3.149 -18.536  -0.314  0.00  0.00    +0.119 C 
BRANCH  19  20
ATOM     20  N   UNL     1       1.829 -17.923   0.020  0.00  0.00    -0.302 NA
ATOM     21  C   UNL     1       0.661 -18.859  -0.305  0.00  0.00    +0.066 C 
ATOM     22  C   UNL     1      -0.710 -18.211   0.072  0.00  0.00    -0.064 C 
ATOM     23  N   UNL     1      -0.862 -16.880  -0.666  0.00  0.00    +0.379 N 
ATOM     24  C   UNL     1      -2.176 -16.296  -0.359  0.00  0.00    -0.096 C 
ATOM     25  H   UNL     1      -0.834 -17.095  -1.760  0.00  0.00    -0.082 HD
ATOM     26  C   UNL     1       0.296 -15.944  -0.351  0.00  0.00    -0.064 C 
ATOM     27  C   UNL     1       1.656 -16.609  -0.701  0.00  0.00    +0.066 C 
ENDBRANCH  19  20
ENDBRANCH  18  19
ENDBRANCH  14  15
ENDBRANCH  12  13
TORSDOF 6
ENDMDL
MODEL 2
REMARK VINA RESULT:      -7.6      1.631      2.096
REMARK  Name = C:\Users\Docking\Desktop\test protocol\1iep_ligandH.pdb
REMARK  8 active torsions:
REMARK  status: ('A' for Active; 'I' for Inactive)
REMARK    1  A    between atoms: _5  and  _11
REMARK    2  A    between atoms: _19  and  _21
REMARK    3  A    between atoms: _22  and  _66
REMARK    4  A    between atoms: _27  and  _30
REMARK    5  A    between atoms: _32  and  _33
REMARK    6  A    between atoms: _38  and  _43
REMARK    7  A    between atoms: _43  and  _46
REMARK    8  A    between atoms: _53  and  _55
REMARK                            x       y       z     vdW  Elec       q    Type
REMARK                         _______ _______ _______ _____ _____    ______ ____
ROOT
ATOM     10  C   UNL     1       9.601 -21.072   7.774  0.00  0.00    +0.038 A 
ATOM     11  C   UNL     1       8.894 -20.398   6.746  0.00  0.00    +0.047 A 
ATOM     12  C   UNL     1       8.116 -21.134   5.761  0.00  0.00    +0.035 A 
ATOM     32  C   UNL     1       8.079 -22.556   5.855  0.00  0.00    +0.024 A 
ATOM     33  C   UNL     1       8.793 -23.257   6.893  0.00  0.00    +0.007 A 
ATOM     34  C   UNL     1       9.564 -22.536   7.866  0.00  0.00    -0.029 A 
ATOM     35  C   UNL     1      10.314 -23.340   8.953  0.00  0.00    +0.045 C 
ENDROOT
BRANCH  10   9
ATOM      4  C   UNL     1      13.458 -18.503   9.026  0.00  0.00    +0.077 A 
ATOM      5  C   UNL     1      14.081 -18.707   7.751  0.00  0.00    +0.048 A 
ATOM      6  C   UNL     1      13.380 -19.485   6.803  0.00  0.00    +0.116 A 
ATOM      7  N   UNL     1      12.147 -20.014   7.118  0.00  0.00    -0.223 NA
ATOM      8  C   UNL     1      11.574 -19.799   8.358  0.00  0.00    +0.220 A 
ATOM      9  N   UNL     1      10.332 -20.315   8.693  0.00  0.00    -0.283 N 
ATOM     36  H   UNL     1       9.948 -20.141   9.621  0.00  0.00    +0.155 HD
ATOM     37  N   UNL     1      12.225 -19.061   9.281  0.00  0.00    -0.214 NA
BRANCH   4   3
ATOM      1  C   UNL     1      14.192 -16.919  12.527  0.00  0.00    +0.020 A 
ATOM      2  C   UNL     1      13.561 -17.711  11.496  0.00  0.00    +0.013 A 
ATOM      3  C   UNL     1      14.072 -17.701  10.132  0.00  0.00    +0.019 A 
ATOM     38  C   UNL     1      15.232 -16.872   9.840  0.00  0.00    +0.120 A 
ATOM     39  N   UNL     1      15.818 -16.119  10.853  0.00  0.00    -0.263 NA
ATOM     40  C   UNL     1      15.334 -16.119  12.170  0.00  0.00    +0.111 A 
ENDBRANCH   4   3
ENDBRANCH  10   9
BRANCH  12  13
ATOM     13  N   UNL     1       7.384 -20.505   4.690  0.00  0.00    -0.281 N 
ATOM     14  C   UNL     1       6.161 -20.880   4.159  0.00  0.00    +0.248 C 
ATOM     30  O   UNL     1       5.608 -21.947   4.384  0.00  0.00    -0.270 OA
ATOM     31  H   UNL     1       7.821 -19.683   4.272  0.00  0.00    +0.155 HD
BRANCH  14  15
ATOM     15  C   UNL     1       5.457 -19.942   3.234  0.00  0.00    +0.037 A 
ATOM     16  C   UNL     1       4.499 -18.954   3.737  0.00  0.00    +0.013 A 
ATOM     17  C   UNL     1       3.820 -18.072   2.821  0.00  0.00    +0.005 A 
ATOM     18  C   UNL     1       4.099 -18.173   1.390  0.00  0.00    -0.033 A 
ATOM     28  C   UNL     1       5.058 -19.158   0.919  0.00  0.00    +0.005 A 
ATOM     29  C   UNL     1       5.724 -20.025   1.814  0.00  0.00    +0.013 A 
BRANCH  18  19
ATOM     19  C   UNL     1       3.406 -17.287   0.338  0.00  0.00    +0.119 C 
BRANCH  19  20
ATOM     20  N   UNL     1       3.071 -17.917  -0.973  0.00  0.00    -0.302 NA
ATOM     21  C   UNL     1       3.889 -17.321  -2.123  0.00  0.00    +0.066 C 
ATOM     22  C   UNL     1       3.542 -18.008  -3.484  0.00  0.00    -0.064 C 
ATOM     23  N   UNL     1       2.043 -17.868  -3.755  0.00  0.00    +0.379 N 
ATOM     24  C   UNL     1       1.723 -18.461  -5.061  0.00  0.00    -0.096 C 
ATOM     25  H   UNL     1       1.810 -16.779  -3.812  0.00  0.00    -0.082 HD
ATOM     26  C   UNL     1       1.223 -18.455  -2.616  0.00  0.00    -0.064 C 
ATOM     27  C   UNL     1       1.596 -17.786  -1.263  0.00  0.00    +0.066 C 
ENDBRANCH  19  20
ENDBRANCH  18  19
ENDBRANCH  14  15
ENDBRANCH  12  13
TORSDOF 6
ENDMDL
MODEL 3
REMARK VINA RESULT:      -7.5     20.495     21.967
REMARK  Name = C:\Users\Docking\Desktop\test protocol\1iep_ligandH.pdb
REMARK  8 active torsions:
REMARK  status: ('A' for Active; 'I' for Inactive)
REMARK    1  A    between atoms: _5  and  _11
REMARK    2  A    between atoms: _19  and  _21
REMARK    3  A    between atoms: _22  and  _66
REMARK    4  A    between atoms: _27  and  _30
REMARK    5  A    between atoms: _32  and  _33
REMARK    6  A    between atoms: _38  and  _43
REMARK    7  A    between atoms: _43  and  _46
REMARK    8  A    between atoms: _53  and  _55
REMARK                            x       y       z     vdW  Elec       q    Type
REMARK                         _______ _______ _______ _____ _____    ______ ____
ROOT
ATOM     10  C   UNL     1      14.605  -0.497   5.116  0.00  0.00    +0.038 A 
ATOM     11  C   UNL     1      14.769  -0.838   3.749  0.00  0.00    +0.047 A 
ATOM     12  C   UNL     1      16.090  -1.058   3.182  0.00  0.00    +0.035 A 
ATOM     32  C   UNL     1      17.223  -0.925   4.036  0.00  0.00    +0.024 A 
ATOM     33  C   UNL     1      17.075  -0.578   5.428  0.00  0.00    +0.007 A 
ATOM     34  C   UNL     1      15.774  -0.357   5.993  0.00  0.00    -0.029 A 
ATOM     35  C   UNL     1      15.675   0.019   7.489  0.00  0.00    +0.045 C 
ENDROOT
BRANCH  10   9
ATOM      4  C   UNL     1      10.481   1.951   5.310  0.00  0.00    +0.077 A 
ATOM      5  C   UNL     1      10.949   2.929   4.371  0.00  0.00    +0.048 A 
ATOM      6  C   UNL     1      12.260   2.770   3.867  0.00  0.00    +0.116 A 
ATOM      7  N   UNL     1      13.035   1.708   4.279  0.00  0.00    -0.223 NA
ATOM      8  C   UNL     1      12.554   0.783   5.187  0.00  0.00    +0.220 A 
ATOM      9  N   UNL     1      13.313  -0.297   5.608  0.00  0.00    -0.283 N 
ATOM     36  H   UNL     1      12.925  -0.953   6.285  0.00  0.00    +0.155 HD
ATOM     37  N   UNL     1      11.306   0.914   5.683  0.00  0.00    -0.214 NA
BRANCH   4   3
ATOM      1  C   UNL     1       7.537   1.678   7.871  0.00  0.00    +0.020 A 
ATOM      2  C   UNL     1       8.873   1.633   7.323  0.00  0.00    +0.013 A 
ATOM      3  C   UNL     1       9.118   1.980   5.928  0.00  0.00    +0.019 A 
ATOM     38  C   UNL     1       7.981   2.373   5.110  0.00  0.00    +0.120 A 
ATOM     39  N   UNL     1       6.705   2.406   5.665  0.00  0.00    -0.263 NA
ATOM     40  C   UNL     1       6.457   2.072   7.005  0.00  0.00    +0.111 A 
ENDBRANCH   4   3
ENDBRANCH  10   9
BRANCH  12  13
ATOM     13  N   UNL     1      16.319  -1.399   1.800  0.00  0.00    -0.281 N 
ATOM     14  C   UNL     1      16.762  -0.571   0.781  0.00  0.00    +0.248 C 
ATOM     30  O   UNL     1      16.826   0.647   0.858  0.00  0.00    -0.270 OA
ATOM     31  H   UNL     1      16.131  -2.367   1.541  0.00  0.00    +0.155 HD
BRANCH  14  15
ATOM     15  C   UNL     1      17.182  -1.184  -0.516  0.00  0.00    +0.037 A 
ATOM     16  C   UNL     1      18.577  -1.143  -0.960  0.00  0.00    +0.013 A 
ATOM     17  C   UNL     1      18.952  -1.727  -2.223  0.00  0.00    +0.005 A 
ATOM     18  C   UNL     1      17.928  -2.358  -3.052  0.00  0.00    -0.033 A 
ATOM     28  C   UNL     1      16.552  -2.390  -2.585  0.00  0.00    +0.005 A 
ATOM     29  C   UNL     1      16.181  -1.818  -1.348  0.00  0.00    +0.013 A 
BRANCH  18  19
ATOM     19  C   UNL     1      18.234  -2.988  -4.424  0.00  0.00    +0.119 C 
BRANCH  19  20
ATOM     20  N   UNL     1      17.073  -3.277  -5.318  0.00  0.00    -0.302 NA
ATOM     21  C   UNL     1      17.158  -4.675  -5.937  0.00  0.00    +0.066 C 
ATOM     22  C   UNL     1      15.925  -4.969  -6.851  0.00  0.00    -0.064 C 
ATOM     23  N   UNL     1      15.834  -3.899  -7.940  0.00  0.00    +0.379 N 
ATOM     24  C   UNL     1      14.710  -4.205  -8.836  0.00  0.00    -0.096 C 
ATOM     25  H   UNL     1      16.771  -3.950  -8.543  0.00  0.00    -0.082 HD
ATOM     26  C   UNL     1      15.752  -2.505  -7.334  0.00  0.00    -0.064 C 
ATOM     27  C   UNL     1      16.967  -2.234  -6.404  0.00  0.00    +0.066 C 
ENDBRANCH  19  20
ENDBRANCH  18  19
ENDBRANCH  14  15
ENDBRANCH  12  13
TORSDOF 6
ENDMDL
MODEL 4
REMARK VINA RESULT:      -7.5     20.534     21.997
REMARK  Name = C:\Users\Docking\Desktop\test protocol\1iep_ligandH.pdb
REMARK  8 active torsions:
REMARK  status: ('A' for Active; 'I' for Inactive)
REMARK    1  A    between atoms: _5  and  _11
REMARK    2  A    between atoms: _19  and  _21
REMARK    3  A    between atoms: _22  and  _66
REMARK    4  A    between atoms: _27  and  _30
REMARK    5  A    between atoms: _32  and  _33
REMARK    6  A    between atoms: _38  and  _43
REMARK    7  A    between atoms: _43  and  _46
REMARK    8  A    between atoms: _53  and  _55
REMARK                            x       y       z     vdW  Elec       q    Type
REMARK                         _______ _______ _______ _____ _____    ______ ____
ROOT
ATOM     10  C   UNL     1      14.919  -0.733   4.836  0.00  0.00    +0.038 A 
ATOM     11  C   UNL     1      14.921  -0.905   3.428  0.00  0.00    +0.047 A 
ATOM     12  C   UNL     1      16.164  -1.075   2.692  0.00  0.00    +0.035 A 
ATOM     32  C   UNL     1      17.388  -1.068   3.423  0.00  0.00    +0.024 A 
ATOM     33  C   UNL     1      17.404  -0.894   4.854  0.00  0.00    +0.007 A 
ATOM     34  C   UNL     1      16.181  -0.723   5.585  0.00  0.00    -0.029 A 
ATOM     35  C   UNL     1      16.259  -0.534   7.118  0.00  0.00    +0.045 C 
ENDROOT
BRANCH  10   9
ATOM      4  C   UNL     1      11.240   1.959   6.338  0.00  0.00    +0.077 A 
ATOM      5  C   UNL     1      11.817   3.155   5.795  0.00  0.00    +0.048 A 
ATOM      6  C   UNL     1      13.064   3.035   5.143  0.00  0.00    +0.116 A 
ATOM      7  N   UNL     1      13.680   1.806   5.046  0.00  0.00    -0.223 NA
ATOM      8  C   UNL     1      13.098   0.673   5.583  0.00  0.00    +0.220 A 
ATOM      9  N   UNL     1      13.696  -0.575   5.491  0.00  0.00    -0.283 N 
ATOM     36  H   UNL     1      13.237  -1.385   5.906  0.00  0.00    +0.155 HD
ATOM     37  N   UNL     1      11.907   0.761   6.212  0.00  0.00    -0.214 NA
BRANCH   4   3
ATOM      1  C   UNL     1       7.457   1.417   7.169  0.00  0.00    +0.020 A 
ATOM      2  C   UNL     1       8.700   1.431   6.435  0.00  0.00    +0.013 A 
ATOM      3  C   UNL     1       9.925   1.922   7.053  0.00  0.00    +0.019 A 
ATOM     38  C   UNL     1       9.857   2.395   8.428  0.00  0.00    +0.120 A 
ATOM     39  N   UNL     1       8.645   2.370   9.110  0.00  0.00    -0.263 NA
ATOM     40  C   UNL     1       7.459   1.901   8.525  0.00  0.00    +0.111 A 
ENDBRANCH   4   3
ENDBRANCH  10   9
BRANCH  12  13
ATOM     13  N   UNL     1      16.229  -1.245   1.262  0.00  0.00    -0.281 N 
ATOM     14  C   UNL     1      16.283  -0.261   0.289  0.00  0.00    +0.248 C 
ATOM     30  O   UNL     1      16.067   0.925   0.492  0.00  0.00    -0.270 OA
ATOM     31  H   UNL     1      16.236  -2.208   0.926  0.00  0.00    +0.155 HD
BRANCH  14  15
ATOM     15  C   UNL     1      16.610  -0.651  -1.116  0.00  0.00    +0.037 A 
ATOM     16  C   UNL     1      16.578  -2.053  -1.542  0.00  0.00    +0.013 A 
ATOM     17  C   UNL     1      16.914  -2.404  -2.899  0.00  0.00    +0.005 A 
ATOM     18  C   UNL     1      17.284  -1.350  -3.841  0.00  0.00    -0.033 A 
ATOM     28  C   UNL     1      17.302   0.032  -3.394  0.00  0.00    +0.005 A 
ATOM     29  C   UNL     1      16.974   0.380  -2.064  0.00  0.00    +0.013 A 
BRANCH  18  19
ATOM     19  C   UNL     1      17.678  -1.636  -5.303  0.00  0.00    +0.119 C 
BRANCH  19  20
ATOM     20  N   UNL     1      17.086  -2.846  -5.947  0.00  0.00    -0.302 NA
ATOM     21  C   UNL     1      18.127  -3.947  -6.167  0.00  0.00    +0.066 C 
ATOM     22  C   UNL     1      17.486  -5.214  -6.821  0.00  0.00    -0.064 C 
ATOM     23  N   UNL     1      16.824  -4.823  -8.143  0.00  0.00    +0.379 N 
ATOM     24  C   UNL     1      16.271  -6.022  -8.789  0.00  0.00    -0.096 C 
ATOM     25  H   UNL     1      17.618  -4.415  -8.811  0.00  0.00    -0.082 HD
ATOM     26  C   UNL     1      15.789  -3.726  -7.934  0.00  0.00    -0.064 C 
ATOM     27  C   UNL     1      16.430  -2.483  -7.257  0.00  0.00    +0.066 C 
ENDBRANCH  19  20
ENDBRANCH  18  19
ENDBRANCH  14  15
ENDBRANCH  12  13
TORSDOF 6
ENDMDL
MODEL 5
REMARK VINA RESULT:      -7.4     20.716     22.427
REMARK  Name = C:\Users\Docking\Desktop\test protocol\1iep_ligandH.pdb
REMARK  8 active torsions:
REMARK  status: ('A' for Active; 'I' for Inactive)
REMARK    1  A    between atoms: _5  and  _11
REMARK    2  A    between atoms: _19  and  _21
REMARK    3  A    between atoms: _22  and  _66
REMARK    4  A    between atoms: _27  and  _30
REMARK    5  A    between atoms: _32  and  _33
REMARK    6  A    between atoms: _38  and  _43
REMARK    7  A    between atoms: _43  and  _46
REMARK    8  A    between atoms: _53  and  _55
REMARK                            x       y       z     vdW  Elec       q    Type
REMARK                         _______ _______ _______ _____ _____    ______ ____
ROOT
ATOM     10  C   UNL     1      15.025  -0.713   4.412  0.00  0.00    +0.038 A 
ATOM     11  C   UNL     1      15.033  -0.921   3.009  0.00  0.00    +0.047 A 
ATOM     12  C   UNL     1      16.280  -1.082   2.278  0.00  0.00    +0.035 A 
ATOM     32  C   UNL     1      17.503  -1.027   3.009  0.00  0.00    +0.024 A 
ATOM     33  C   UNL     1      17.514  -0.814   4.435  0.00  0.00    +0.007 A 
ATOM     34  C   UNL     1      16.286  -0.653   5.161  0.00  0.00    -0.029 A 
ATOM     35  C   UNL     1      16.358  -0.422   6.688  0.00  0.00    +0.045 C 
ENDROOT
BRANCH  10   9
ATOM      4  C   UNL     1      11.089   1.807   5.503  0.00  0.00    +0.077 A 
ATOM      5  C   UNL     1      11.527   2.936   4.733  0.00  0.00    +0.048 A 
ATOM      6  C   UNL     1      12.774   2.831   4.078  0.00  0.00    +0.116 A 
ATOM      7  N   UNL     1      13.519   1.677   4.190  0.00  0.00    -0.223 NA
ATOM      8  C   UNL     1      13.069   0.607   4.942  0.00  0.00    +0.220 A 
ATOM      9  N   UNL     1      13.798  -0.566   5.062  0.00  0.00    -0.283 N 
ATOM     36  H   UNL     1      13.435  -1.329   5.632  0.00  0.00    +0.155 HD
ATOM     37  N   UNL     1      11.882   0.684   5.579  0.00  0.00    -0.214 NA
BRANCH   4   3
ATOM      1  C   UNL     1       7.294   1.445   6.377  0.00  0.00    +0.020 A 
ATOM      2  C   UNL     1       8.517   1.474   5.609  0.00  0.00    +0.013 A 
ATOM      3  C   UNL     1       9.793   1.765   6.251  0.00  0.00    +0.019 A 
ATOM     38  C   UNL     1       9.796   2.024   7.683  0.00  0.00    +0.120 A 
ATOM     39  N   UNL     1       8.602   1.991   8.396  0.00  0.00    -0.263 NA
ATOM     40  C   UNL     1       7.368   1.713   7.789  0.00  0.00    +0.111 A 
ENDBRANCH   4   3
ENDBRANCH  10   9
BRANCH  12  13
ATOM     13  N   UNL     1      16.350  -1.288   0.853  0.00  0.00    -0.281 N 
ATOM     14  C   UNL     1      16.418  -0.329  -0.144  0.00  0.00    +0.248 C 
ATOM     30  O   UNL     1      16.212   0.864   0.029  0.00  0.00    -0.270 OA
ATOM     31  H   UNL     1      16.350  -2.259   0.541  0.00  0.00    +0.155 HD
BRANCH  14  15
ATOM     15  C   UNL     1      16.748  -0.757  -1.537  0.00  0.00    +0.037 A 
ATOM     16  C   UNL     1      16.610  -2.155  -1.955  0.00  0.00    +0.013 A 
ATOM     17  C   UNL     1      16.952  -2.544  -3.300  0.00  0.00    +0.005 A 
ATOM     18  C   UNL     1      17.432  -1.533  -4.239  0.00  0.00    -0.033 A 
ATOM     28  C   UNL     1      17.554  -0.153  -3.799  0.00  0.00    +0.005 A 
ATOM     29  C   UNL     1      17.222   0.232  -2.481  0.00  0.00    +0.013 A 
BRANCH  18  19
ATOM     19  C   UNL     1      17.840  -1.863  -5.687  0.00  0.00    +0.119 C 
BRANCH  19  20
ATOM     20  N   UNL     1      18.951  -2.841  -5.879  0.00  0.00    -0.302 NA
ATOM     21  C   UNL     1      18.431  -4.265  -6.100  0.00  0.00    +0.066 C 
ATOM     22  C   UNL     1      19.606  -5.272  -6.322  0.00  0.00    -0.064 C 
ATOM     23  N   UNL     1      20.552  -5.221  -5.120  0.00  0.00    +0.379 N 
ATOM     24  C   UNL     1      21.626  -6.208  -5.299  0.00  0.00    -0.096 C 
ATOM     25  H   UNL     1      19.968  -5.516  -4.218  0.00  0.00    -0.082 HD
ATOM     26  C   UNL     1      21.071  -3.808  -4.892  0.00  0.00    -0.064 C 
ATOM     27  C   UNL     1      19.895  -2.810  -4.702  0.00  0.00    +0.066 C 
ENDBRANCH  19  20
ENDBRANCH  18  19
ENDBRANCH  14  15
ENDBRANCH  12  13
TORSDOF 6
ENDMDL
