MODEL 1
REMARK VINA RESULT:      -7.7      0.000      0.000
REMARK  Name = C:\Users\Docking\Desktop\test protocol\1iep_ligandH.pdb
REMARK  8 active torsions:
REMARK  status: ('A' for Active; 'I' for Inactive)
REMARK    1  A    between atoms: _5  and  _11
REMARK    2  A    between atoms: _19  and  _21
REMARK    3  A    between atoms: _22  and  _66
REMARK    4  A    between atoms: _27  and  _30
REMARK    5  A    between atoms: _32  and  _33
REMARK    6  A    between atoms: _38  and  _43
REMARK    7  A    between atoms: _43  and  _46
REMARK    8  A    between atoms: _53  and  _55
REMARK                            x       y       z     vdW  Elec       q    Type
REMARK                         _______ _______ _______ _____ _____    ______ ____
ROOT
ATOM     10  C   UNL     1      -6.188 -22.205 -30.475  0.00  0.00    +0.038 A 
ATOM     11  C   UNL     1      -5.504 -21.366 -29.558  0.00  0.00    +0.047 A 
ATOM     12  C   UNL     1      -4.785 -21.921 -28.422  0.00  0.00    +0.035 A 
ATOM     32  C   UNL     1      -4.781 -23.336 -28.251  0.00  0.00    +0.024 A 
ATOM     33  C   UNL     1      -5.471 -24.204 -29.172  0.00  0.00    +0.007 A 
ATOM     34  C   UNL     1      -6.184 -23.662 -30.294  0.00  0.00    -0.029 A 
ATOM     35  C   UNL     1      -6.911 -24.639 -31.246  0.00  0.00    +0.045 C 
ENDROOT
BRANCH  10   9
ATOM      4  C   UNL     1     -10.009 -20.021 -32.389  0.00  0.00    +0.077 A 
ATOM      5  C   UNL     1     -10.734 -20.076 -31.152  0.00  0.00    +0.048 A 
ATOM      6  C   UNL     1     -10.091 -20.682 -30.049  0.00  0.00    +0.116 A 
ATOM      7  N   UNL     1      -8.817 -21.190 -30.184  0.00  0.00    -0.223 NA
ATOM      8  C   UNL     1      -8.146 -21.121 -31.392  0.00  0.00    +0.220 A 
ATOM      9  N   UNL     1      -6.862 -21.619 -31.548  0.00  0.00    -0.283 N 
ATOM     36  H   UNL     1      -6.404 -21.556 -32.457  0.00  0.00    +0.155 HD
ATOM     37  N   UNL     1      -8.740 -20.550 -32.460  0.00  0.00    -0.214 NA
BRANCH   4   3
ATOM      1  C   UNL     1     -12.430 -18.462 -35.036  0.00  0.00    +0.020 A 
ATOM      2  C   UNL     1     -11.956 -19.051 -33.805  0.00  0.00    +0.013 A 
ATOM      3  C   UNL     1     -10.553 -19.410 -33.642  0.00  0.00    +0.019 A 
ATOM     38  C   UNL     1      -9.648 -19.158 -34.754  0.00  0.00    +0.120 A 
ATOM     39  N   UNL     1     -10.133 -18.591 -35.928  0.00  0.00    -0.263 NA
ATOM     40  C   UNL     1     -11.482 -18.243 -36.097  0.00  0.00    +0.111 A 
ENDBRANCH   4   3
ENDBRANCH  10   9
BRANCH  12  13
ATOM     13  N   UNL     1      -4.080 -21.118 -27.454  0.00  0.00    -0.281 N 
ATOM     14  C   UNL     1      -4.544 -20.005 -26.770  0.00  0.00    +0.248 C 
ATOM     30  O   UNL     1      -5.569 -19.401 -27.048  0.00  0.00    -0.270 OA
ATOM     31  H   UNL     1      -3.123 -21.404 -27.247  0.00  0.00    +0.155 HD
BRANCH  14  15
ATOM     15  C   UNL     1      -3.746 -19.479 -25.622  0.00  0.00    +0.037 A 
ATOM     16  C   UNL     1      -2.676 -18.498 -25.825  0.00  0.00    +0.013 A 
ATOM     17  C   UNL     1      -1.910 -18.020 -24.702  0.00  0.00    +0.005 A 
ATOM     18  C   UNL     1      -2.212 -18.521 -23.363  0.00  0.00    -0.033 A 
ATOM     28  C   UNL     1      -3.282 -19.490 -23.189  0.00  0.00    +0.005 A 
ATOM     29  C   UNL     1      -4.034 -19.962 -24.288  0.00  0.00    +0.013 A 
BRANCH  18  19
ATOM     19  C   UNL     1      -1.432 -18.082 -22.110  0.00  0.00    +0.119 C 
BRANCH  19  20
ATOM     20  N   UNL     1      -2.152 -18.136 -20.803  0.00  0.00    -0.302 NA
ATOM     21  C   UNL     1      -2.110 -16.793 -20.068  0.00  0.00    +0.066 C 
ATOM     22  C   UNL     1      -2.888 -16.861 -18.713  0.00  0.00    -0.064 C 
ATOM     23  N   UNL     1      -2.296 -17.973 -17.844  0.00  0.00    +0.379 N 
ATOM     24  C   UNL     1      -2.987 -18.001 -16.547  0.00  0.00    -0.096 C 
ATOM     25  H   UNL     1      -1.227 -17.720 -17.653  0.00  0.00    -0.082 HD
ATOM     26  C   UNL     1      -2.332 -19.311 -18.568  0.00  0.00    -0.064 C 
ATOM     27  C   UNL     1      -1.582 -19.225 -19.927  0.00  0.00    +0.066 C 
ENDBRANCH  19  20
ENDBRANCH  18  19
ENDBRANCH  14  15
ENDBRANCH  12  13
TORSDOF 6
ENDMDL
MODEL 2
REMARK VINA RESULT:      -7.6      2.030      2.689
REMARK  Name = C:\Users\Docking\Desktop\test protocol\1iep_ligandH.pdb
REMARK  8 active torsions:
REMARK  status: ('A' for Active; 'I' for Inactive)
REMARK    1  A    between atoms: _5  and  _11
REMARK    2  A    between atoms: _19  and  _21
REMARK    3  A    between atoms: _22  and  _66
REMARK    4  A    between atoms: _27  and  _30
REMARK    5  A    between atoms: _32  and  _33
REMARK    6  A    between atoms: _38  and  _43
REMARK    7  A    between atoms: _43  and  _46
REMARK    8  A    between atoms: _53  and  _55
REMARK                            x       y       z     vdW  Elec       q    Type
REMARK                         _______ _______ _______ _____ _____    ______ ____
ROOT
ATOM     10  C   UNL     1      -5.221 -21.671 -29.196  0.00  0.00    +0.038 A 
ATOM     11  C   UNL     1      -4.889 -20.972 -28.008  0.00  0.00    +0.047 A 
ATOM     12  C   UNL     1      -3.873 -21.476 -27.097  0.00  0.00    +0.035 A 
ATOM     32  C   UNL     1      -3.214 -22.696 -27.428  0.00  0.00    +0.024 A 
ATOM     33  C   UNL     1      -3.540 -23.420 -28.631  0.00  0.00    +0.007 A 
ATOM     34  C   UNL     1      -4.542 -22.929 -29.533  0.00  0.00    -0.029 A 
ATOM     35  C   UNL     1      -4.856 -23.750 -30.805  0.00  0.00    +0.045 C 
ENDROOT
BRANCH  10   9
ATOM      4  C   UNL     1      -9.734 -21.450 -30.816  0.00  0.00    +0.077 A 
ATOM      5  C   UNL     1     -10.164 -22.497 -29.935  0.00  0.00    +0.048 A 
ATOM      6  C   UNL     1      -9.192 -23.071 -29.086  0.00  0.00    +0.116 A 
ATOM      7  N   UNL     1      -7.889 -22.624 -29.124  0.00  0.00    -0.223 NA
ATOM      8  C   UNL     1      -7.507 -21.613 -29.986  0.00  0.00    +0.220 A 
ATOM      9  N   UNL     1      -6.204 -21.141 -30.035  0.00  0.00    -0.283 N 
ATOM     36  H   UNL     1      -5.960 -20.399 -30.691  0.00  0.00    +0.155 HD
ATOM     37  N   UNL     1      -8.416 -21.049 -30.808  0.00  0.00    -0.214 NA
BRANCH   4   3
ATOM      1  C   UNL     1     -12.039 -20.638 -33.870  0.00  0.00    +0.020 A 
ATOM      2  C   UNL     1     -11.162 -21.365 -32.982  0.00  0.00    +0.013 A 
ATOM      3  C   UNL     1     -10.644 -20.742 -31.771  0.00  0.00    +0.019 A 
ATOM     38  C   UNL     1     -11.038 -19.370 -31.484  0.00  0.00    +0.120 A 
ATOM     39  N   UNL     1     -11.882 -18.694 -32.359  0.00  0.00    -0.263 NA
ATOM     40  C   UNL     1     -12.385 -19.283 -33.528  0.00  0.00    +0.111 A 
ENDBRANCH   4   3
ENDBRANCH  10   9
BRANCH  12  13
ATOM     13  N   UNL     1      -3.500 -20.814 -25.872  0.00  0.00    -0.281 N 
ATOM     14  C   UNL     1      -2.755 -19.656 -25.723  0.00  0.00    +0.248 C 
ATOM     30  O   UNL     1      -2.113 -19.127 -26.618  0.00  0.00    -0.270 OA
ATOM     31  H   UNL     1      -3.824 -21.252 -25.009  0.00  0.00    +0.155 HD
BRANCH  14  15
ATOM     15  C   UNL     1      -2.705 -18.997 -24.382  0.00  0.00    +0.037 A 
ATOM     16  C   UNL     1      -1.942 -17.763 -24.170  0.00  0.00    +0.013 A 
ATOM     17  C   UNL     1      -1.897 -17.158 -22.863  0.00  0.00    +0.005 A 
ATOM     18  C   UNL     1      -2.617 -17.784 -21.757  0.00  0.00    -0.033 A 
ATOM     28  C   UNL     1      -3.370 -19.005 -21.997  0.00  0.00    +0.005 A 
ATOM     29  C   UNL     1      -3.416 -19.602 -23.277  0.00  0.00    +0.013 A 
BRANCH  18  19
ATOM     19  C   UNL     1      -2.607 -17.219 -20.325  0.00  0.00    +0.119 C 
BRANCH  19  20
ATOM     20  N   UNL     1      -1.402 -16.443 -19.905  0.00  0.00    -0.302 NA
ATOM     21  C   UNL     1      -0.198 -17.351 -19.638  0.00  0.00    +0.066 C 
ATOM     22  C   UNL     1       1.060 -16.521 -19.222  0.00  0.00    -0.064 C 
ATOM     23  N   UNL     1       0.728 -15.684 -17.985  0.00  0.00    +0.379 N 
ATOM     24  C   UNL     1       1.926 -14.946 -17.557  0.00  0.00    -0.096 C 
ATOM     25  H   UNL     1       0.452 -16.387 -17.165  0.00  0.00    -0.082 HD
ATOM     26  C   UNL     1      -0.470 -14.780 -18.241  0.00  0.00    -0.064 C 
ATOM     27  C   UNL     1      -1.706 -15.612 -18.682  0.00  0.00    +0.066 C 
ENDBRANCH  19  20
ENDBRANCH  18  19
ENDBRANCH  14  15
ENDBRANCH  12  13
TORSDOF 6
ENDMDL
MODEL 3
REMARK VINA RESULT:      -7.4      2.164     12.746
REMARK  Name = C:\Users\Docking\Desktop\test protocol\1iep_ligandH.pdb
REMARK  8 active torsions:
REMARK  status: ('A' for Active; 'I' for Inactive)
REMARK    1  A    between atoms: _5  and  _11
REMARK    2  A    between atoms: _19  and  _21
REMARK    3  A    between atoms: _22  and  _66
REMARK    4  A    between atoms: _27  and  _30
REMARK    5  A    between atoms: _32  and  _33
REMARK    6  A    between atoms: _38  and  _43
REMARK    7  A    between atoms: _43  and  _46
REMARK    8  A    between atoms: _53  and  _55
REMARK                            x       y       z     vdW  Elec       q    Type
REMARK                         _______ _______ _______ _____ _____    ______ ____
ROOT
ATOM     10  C   UNL     1      -1.255 -17.955 -24.072  0.00  0.00    +0.038 A 
ATOM     11  C   UNL     1      -2.272 -18.468 -24.917  0.00  0.00    +0.047 A 
ATOM     12  C   UNL     1      -1.947 -19.301 -26.065  0.00  0.00    +0.035 A 
ATOM     32  C   UNL     1      -0.575 -19.594 -26.320  0.00  0.00    +0.024 A 
ATOM     33  C   UNL     1       0.471 -19.080 -25.471  0.00  0.00    +0.007 A 
ATOM     34  C   UNL     1       0.156 -18.255 -24.340  0.00  0.00    -0.029 A 
ATOM     35  C   UNL     1       1.319 -17.726 -23.468  0.00  0.00    +0.045 C 
ENDROOT
BRANCH  10   9
ATOM      4  C   UNL     1      -2.360 -17.372 -19.438  0.00  0.00    +0.077 A 
ATOM      5  C   UNL     1      -2.216 -18.773 -19.166  0.00  0.00    +0.048 A 
ATOM      6  C   UNL     1      -1.864 -19.611 -20.248  0.00  0.00    +0.116 A 
ATOM      7  N   UNL     1      -1.672 -19.076 -21.503  0.00  0.00    -0.223 NA
ATOM      8  C   UNL     1      -1.820 -17.721 -21.731  0.00  0.00    +0.220 A 
ATOM      9  N   UNL     1      -1.625 -17.160 -22.984  0.00  0.00    -0.283 N 
ATOM     36  H   UNL     1      -1.751 -16.157 -23.113  0.00  0.00    +0.155 HD
ATOM     37  N   UNL     1      -2.158 -16.900 -20.715  0.00  0.00    -0.214 NA
BRANCH   4   3
ATOM      1  C   UNL     1      -4.401 -15.108 -16.985  0.00  0.00    +0.020 A 
ATOM      2  C   UNL     1      -4.102 -16.098 -17.995  0.00  0.00    +0.013 A 
ATOM      3  C   UNL     1      -2.726 -16.359 -18.398  0.00  0.00    +0.019 A 
ATOM     38  C   UNL     1      -1.667 -15.596 -17.754  0.00  0.00    +0.120 A 
ATOM     39  N   UNL     1      -1.985 -14.649 -16.786  0.00  0.00    -0.263 NA
ATOM     40  C   UNL     1      -3.306 -14.388 -16.391  0.00  0.00    +0.111 A 
ENDBRANCH   4   3
ENDBRANCH  10   9
BRANCH  12  13
ATOM     13  N   UNL     1      -2.935 -19.844 -26.963  0.00  0.00    -0.281 N 
ATOM     14  C   UNL     1      -3.231 -21.177 -27.199  0.00  0.00    +0.248 C 
ATOM     30  O   UNL     1      -2.540 -22.114 -26.829  0.00  0.00    -0.270 OA
ATOM     31  H   UNL     1      -3.483 -19.163 -27.489  0.00  0.00    +0.155 HD
BRANCH  14  15
ATOM     15  C   UNL     1      -4.466 -21.516 -27.970  0.00  0.00    +0.037 A 
ATOM     16  C   UNL     1      -4.697 -22.872 -28.476  0.00  0.00    +0.013 A 
ATOM     17  C   UNL     1      -5.888 -23.169 -29.231  0.00  0.00    +0.005 A 
ATOM     18  C   UNL     1      -6.859 -22.106 -29.485  0.00  0.00    -0.033 A 
ATOM     28  C   UNL     1      -6.607 -20.772 -28.967  0.00  0.00    +0.005 A 
ATOM     29  C   UNL     1      -5.440 -20.477 -28.227  0.00  0.00    +0.013 A 
BRANCH  18  19
ATOM     19  C   UNL     1      -8.147 -22.328 -30.299  0.00  0.00    +0.119 C 
BRANCH  19  20
ATOM     20  N   UNL     1      -9.142 -21.214 -30.321  0.00  0.00    -0.302 NA
ATOM     21  C   UNL     1     -10.513 -21.658 -29.803  0.00  0.00    +0.066 C 
ATOM     22  C   UNL     1     -11.535 -20.475 -29.812  0.00  0.00    -0.064 C 
ATOM     23  N   UNL     1     -11.648 -19.913 -31.230  0.00  0.00    +0.379 N 
ATOM     24  C   UNL     1     -12.651 -18.839 -31.253  0.00  0.00    -0.096 C 
ATOM     25  H   UNL     1     -12.015 -20.733 -31.890  0.00  0.00    -0.082 HD
ATOM     26  C   UNL     1     -10.289 -19.471 -31.754  0.00  0.00    -0.064 C 
ATOM     27  C   UNL     1      -9.273 -20.647 -31.713  0.00  0.00    +0.066 C 
ENDBRANCH  19  20
ENDBRANCH  18  19
ENDBRANCH  14  15
ENDBRANCH  12  13
TORSDOF 6
ENDMDL
MODEL 4
REMARK VINA RESULT:      -7.4      5.931     14.521
REMARK  Name = C:\Users\Docking\Desktop\test protocol\1iep_ligandH.pdb
REMARK  8 active torsions:
REMARK  status: ('A' for Active; 'I' for Inactive)
REMARK    1  A    between atoms: _5  and  _11
REMARK    2  A    between atoms: _19  and  _21
REMARK    3  A    between atoms: _22  and  _66
REMARK    4  A    between atoms: _27  and  _30
REMARK    5  A    between atoms: _32  and  _33
REMARK    6  A    between atoms: _38  and  _43
REMARK    7  A    between atoms: _43  and  _46
REMARK    8  A    between atoms: _53  and  _55
REMARK                            x       y       z     vdW  Elec       q    Type
REMARK                         _______ _______ _______ _____ _____    ______ ____
ROOT
ATOM     10  C   UNL     1      -4.280 -15.135 -16.255  0.00  0.00    +0.038 A 
ATOM     11  C   UNL     1      -4.112 -15.672 -17.557  0.00  0.00    +0.047 A 
ATOM     12  C   UNL     1      -2.787 -15.887 -18.117  0.00  0.00    +0.035 A 
ATOM     32  C   UNL     1      -1.654 -15.545 -17.323  0.00  0.00    +0.024 A 
ATOM     33  C   UNL     1      -1.806 -14.996 -15.998  0.00  0.00    +0.007 A 
ATOM     34  C   UNL     1      -3.111 -14.780 -15.441  0.00  0.00    -0.029 A 
ATOM     35  C   UNL     1      -3.215 -14.183 -14.018  0.00  0.00    +0.045 C 
ENDROOT
BRANCH  10   9
ATOM      4  C   UNL     1      -8.163 -16.651 -13.876  0.00  0.00    +0.077 A 
ATOM      5  C   UNL     1      -7.571 -17.930 -13.607  0.00  0.00    +0.048 A 
ATOM      6  C   UNL     1      -6.269 -18.160 -14.104  0.00  0.00    +0.116 A 
ATOM      7  N   UNL     1      -5.616 -17.177 -14.816  0.00  0.00    -0.223 NA
ATOM      8  C   UNL     1      -6.216 -15.956 -15.060  0.00  0.00    +0.220 A 
ATOM      9  N   UNL     1      -5.575 -14.950 -15.767  0.00  0.00    -0.283 N 
ATOM     36  H   UNL     1      -6.055 -14.065 -15.932  0.00  0.00    +0.155 HD
ATOM     37  N   UNL     1      -7.460 -15.712 -14.597  0.00  0.00    -0.214 NA
BRANCH   4   3
ATOM      1  C   UNL     1     -11.993 -15.863 -13.798  0.00  0.00    +0.020 A 
ATOM      2  C   UNL     1     -10.694 -16.253 -14.294  0.00  0.00    +0.013 A 
ATOM      3  C   UNL     1      -9.531 -16.256 -13.415  0.00  0.00    +0.019 A 
ATOM     38  C   UNL     1      -9.720 -15.858 -12.028  0.00  0.00    +0.120 A 
ATOM     39  N   UNL     1     -10.983 -15.487 -11.579  0.00  0.00    -0.263 NA
ATOM     40  C   UNL     1     -12.109 -15.478 -12.416  0.00  0.00    +0.111 A 
ENDBRANCH   4   3
ENDBRANCH  10   9
BRANCH  12  13
ATOM     13  N   UNL     1      -2.554 -16.422 -19.436  0.00  0.00    -0.281 N 
ATOM     14  C   UNL     1      -2.651 -17.740 -19.849  0.00  0.00    +0.248 C 
ATOM     30  O   UNL     1      -2.745 -18.696 -19.093  0.00  0.00    -0.270 OA
ATOM     31  H   UNL     1      -2.286 -15.746 -20.151  0.00  0.00    +0.155 HD
BRANCH  14  15
ATOM     15  C   UNL     1      -2.625 -18.042 -21.312  0.00  0.00    +0.037 A 
ATOM     16  C   UNL     1      -1.866 -17.208 -22.247  0.00  0.00    +0.013 A 
ATOM     17  C   UNL     1      -1.871 -17.511 -23.656  0.00  0.00    +0.005 A 
ATOM     18  C   UNL     1      -2.639 -18.656 -24.139  0.00  0.00    -0.033 A 
ATOM     28  C   UNL     1      -3.379 -19.471 -23.189  0.00  0.00    +0.005 A 
ATOM     29  C   UNL     1      -3.376 -19.176 -21.808  0.00  0.00    +0.013 A 
BRANCH  18  19
ATOM     19  C   UNL     1      -2.719 -19.042 -25.628  0.00  0.00    +0.119 C 
BRANCH  19  20
ATOM     20  N   UNL     1      -2.765 -20.498 -25.956  0.00  0.00    -0.302 NA
ATOM     21  C   UNL     1      -1.384 -21.047 -26.329  0.00  0.00    +0.066 C 
ATOM     22  C   UNL     1      -1.447 -22.576 -26.647  0.00  0.00    -0.064 C 
ATOM     23  N   UNL     1      -2.449 -22.818 -27.777  0.00  0.00    +0.379 N 
ATOM     24  C   UNL     1      -2.467 -24.248 -28.118  0.00  0.00    -0.096 C 
ATOM     25  H   UNL     1      -2.089 -22.261 -28.673  0.00  0.00    -0.082 HD
ATOM     26  C   UNL     1      -3.824 -22.273 -27.416  0.00  0.00    -0.064 C 
ATOM     27  C   UNL     1      -3.745 -20.760 -27.073  0.00  0.00    +0.066 C 
ENDBRANCH  19  20
ENDBRANCH  18  19
ENDBRANCH  14  15
ENDBRANCH  12  13
TORSDOF 6
ENDMDL
MODEL 5
REMARK VINA RESULT:      -7.2      5.261     10.904
REMARK  Name = C:\Users\Docking\Desktop\test protocol\1iep_ligandH.pdb
REMARK  8 active torsions:
REMARK  status: ('A' for Active; 'I' for Inactive)
REMARK    1  A    between atoms: _5  and  _11
REMARK    2  A    between atoms: _19  and  _21
REMARK    3  A    between atoms: _22  and  _66
REMARK    4  A    between atoms: _27  and  _30
REMARK    5  A    between atoms: _32  and  _33
REMARK    6  A    between atoms: _38  and  _43
REMARK    7  A    between atoms: _43  and  _46
REMARK    8  A    between atoms: _53  and  _55
REMARK                            x       y       z     vdW  Elec       q    Type
REMARK                         _______ _______ _______ _____ _____    ______ ____
ROOT
ATOM     10  C   UNL     1      -2.033 -17.240 -21.558  0.00  0.00    +0.038 A 
ATOM     11  C   UNL     1      -2.937 -17.185 -20.466  0.00  0.00    +0.047 A 
ATOM     12  C   UNL     1      -2.529 -16.649 -19.177  0.00  0.00    +0.035 A 
ATOM     32  C   UNL     1      -1.192 -16.175 -19.035  0.00  0.00    +0.024 A 
ATOM     33  C   UNL     1      -0.260 -16.224 -20.134  0.00  0.00    +0.007 A 
ATOM     34  C   UNL     1      -0.656 -16.754 -21.407  0.00  0.00    -0.029 A 
ATOM     35  C   UNL     1       0.387 -16.788 -22.548  0.00  0.00    +0.045 C 
ENDROOT
BRANCH  10   9
ATOM      4  C   UNL     1      -2.871 -20.915 -24.529  0.00  0.00    +0.077 A 
ATOM      5  C   UNL     1      -2.352 -21.869 -23.590  0.00  0.00    +0.048 A 
ATOM      6  C   UNL     1      -1.873 -21.371 -22.357  0.00  0.00    +0.116 A 
ATOM      7  N   UNL     1      -1.915 -20.020 -22.093  0.00  0.00    -0.223 NA
ATOM      8  C   UNL     1      -2.420 -19.127 -23.021  0.00  0.00    +0.220 A 
ATOM      9  N   UNL     1      -2.479 -17.764 -22.773  0.00  0.00    -0.283 N 
ATOM     36  H   UNL     1      -2.851 -17.138 -23.486  0.00  0.00    +0.155 HD
ATOM     37  N   UNL     1      -2.882 -19.577 -24.206  0.00  0.00    -0.214 NA
BRANCH   4   3
ATOM      1  C   UNL     1      -3.557 -22.794 -27.890  0.00  0.00    +0.020 A 
ATOM      2  C   UNL     1      -2.999 -22.481 -26.595  0.00  0.00    +0.013 A 
ATOM      3  C   UNL     1      -3.416 -21.286 -25.873  0.00  0.00    +0.019 A 
ATOM     38  C   UNL     1      -4.409 -20.422 -26.493  0.00  0.00    +0.120 A 
ATOM     39  N   UNL     1      -4.928 -20.748 -27.742  0.00  0.00    -0.263 NA
ATOM     40  C   UNL     1      -4.533 -21.894 -28.448  0.00  0.00    +0.111 A 
ENDBRANCH   4   3
ENDBRANCH  10   9
BRANCH  12  13
ATOM     13  N   UNL     1      -3.401 -16.575 -18.031  0.00  0.00    -0.281 N 
ATOM     14  C   UNL     1      -3.823 -15.443 -17.354  0.00  0.00    +0.248 C 
ATOM     30  O   UNL     1      -3.342 -14.329 -17.502  0.00  0.00    -0.270 OA
ATOM     31  H   UNL     1      -3.748 -17.466 -17.675  0.00  0.00    +0.155 HD
BRANCH  14  15
ATOM     15  C   UNL     1      -4.931 -15.568 -16.358  0.00  0.00    +0.037 A 
ATOM     16  C   UNL     1      -5.248 -14.477 -15.433  0.00  0.00    +0.013 A 
ATOM     17  C   UNL     1      -6.310 -14.631 -14.471  0.00  0.00    +0.005 A 
ATOM     18  C   UNL     1      -7.064 -15.882 -14.430  0.00  0.00    -0.033 A 
ATOM     28  C   UNL     1      -6.731 -16.946 -15.362  0.00  0.00    +0.005 A 
ATOM     29  C   UNL     1      -5.690 -16.799 -16.306  0.00  0.00    +0.013 A 
BRANCH  18  19
ATOM     19  C   UNL     1      -8.200 -16.141 -13.422  0.00  0.00    +0.119 C 
BRANCH  19  20
ATOM     20  N   UNL     1      -9.421 -16.834 -13.931  0.00  0.00    -0.302 NA
ATOM     21  C   UNL     1     -10.680 -15.980 -13.759  0.00  0.00    +0.066 C 
ATOM     22  C   UNL     1     -11.944 -16.710 -14.318  0.00  0.00    -0.064 C 
ATOM     23  N   UNL     1     -12.104 -18.058 -13.613  0.00  0.00    +0.379 N 
ATOM     24  C   UNL     1     -13.324 -18.722 -14.094  0.00  0.00    -0.096 C 
ATOM     25  H   UNL     1     -12.235 -17.857 -12.524  0.00  0.00    -0.082 HD
ATOM     26  C   UNL     1     -10.855 -18.913 -13.777  0.00  0.00    -0.064 C 
ATOM     27  C   UNL     1      -9.600 -18.166 -13.246  0.00  0.00    +0.066 C 
ENDBRANCH  19  20
ENDBRANCH  18  19
ENDBRANCH  14  15
ENDBRANCH  12  13
TORSDOF 6
ENDMDL
