MODEL 1
REMARK VINA RESULT:     -11.6      0.000      0.000
REMARK  Name = C:\Users\Docking\Desktop\test protocol\1iep_ligandH.pdb
REMARK  8 active torsions:
REMARK  status: ('A' for Active; 'I' for Inactive)
REMARK    1  A    between atoms: _5  and  _11
REMARK    2  A    between atoms: _19  and  _21
REMARK    3  A    between atoms: _22  and  _66
REMARK    4  A    between atoms: _27  and  _30
REMARK    5  A    between atoms: _32  and  _33
REMARK    6  A    between atoms: _38  and  _43
REMARK    7  A    between atoms: _43  and  _46
REMARK    8  A    between atoms: _53  and  _55
REMARK                            x       y       z     vdW  Elec       q    Type
REMARK                         _______ _______ _______ _____ _____    ______ ____
ROOT
ATOM     10  C   UNL     1      -7.013  16.222  25.553  0.00  0.00    +0.038 A 
ATOM     11  C   UNL     1      -6.487  17.509  25.278  0.00  0.00    +0.047 A 
ATOM     12  C   UNL     1      -6.897  18.254  24.097  0.00  0.00    +0.035 A 
ATOM     32  C   UNL     1      -7.848  17.657  23.219  0.00  0.00    +0.024 A 
ATOM     33  C   UNL     1      -8.393  16.349  23.483  0.00  0.00    +0.007 A 
ATOM     34  C   UNL     1      -7.990  15.609  24.645  0.00  0.00    -0.029 A 
ATOM     35  C   UNL     1      -8.603  14.207  24.874  0.00  0.00    +0.045 C 
ENDROOT
BRANCH  10   9
ATOM      4  C   UNL     1      -3.884  13.458  27.920  0.00  0.00    +0.077 A 
ATOM      5  C   UNL     1      -3.046  13.315  26.764  0.00  0.00    +0.048 A 
ATOM      6  C   UNL     1      -3.460  13.962  25.579  0.00  0.00    +0.116 A 
ATOM      7  N   UNL     1      -4.626  14.696  25.561  0.00  0.00    -0.223 NA
ATOM      8  C   UNL     1      -5.412  14.812  26.693  0.00  0.00    +0.220 A 
ATOM      9  N   UNL     1      -6.584  15.552  26.701  0.00  0.00    -0.283 N 
ATOM     36  H   UNL     1      -7.140  15.607  27.554  0.00  0.00    +0.155 HD
ATOM     37  N   UNL     1      -5.039  14.202  27.838  0.00  0.00    -0.214 NA
BRANCH   4   3
ATOM      1  C   UNL     1      -4.153  12.282  31.641  0.00  0.00    +0.020 A 
ATOM      2  C   UNL     1      -4.494  12.899  30.380  0.00  0.00    +0.013 A 
ATOM      3  C   UNL     1      -3.579  12.836  29.248  0.00  0.00    +0.019 A 
ATOM     38  C   UNL     1      -2.317  12.135  29.425  0.00  0.00    +0.120 A 
ATOM     39  N   UNL     1      -2.014  11.551  30.651  0.00  0.00    -0.263 NA
ATOM     40  C   UNL     1      -2.886  11.607  31.749  0.00  0.00    +0.111 A 
ENDBRANCH   4   3
ENDBRANCH  10   9
BRANCH  12  13
ATOM     13  N   UNL     1      -6.390  19.561  23.761  0.00  0.00    -0.281 N 
ATOM     14  C   UNL     1      -6.400  20.187  22.526  0.00  0.00    +0.248 C 
ATOM     30  O   UNL     1      -6.656  19.628  21.470  0.00  0.00    -0.270 OA
ATOM     31  H   UNL     1      -5.973  20.090  24.528  0.00  0.00    +0.155 HD
BRANCH  14  15
ATOM     15  C   UNL     1      -6.063  21.642  22.450  0.00  0.00    +0.037 A 
ATOM     16  C   UNL     1      -6.235  22.522  23.608  0.00  0.00    +0.013 A 
ATOM     17  C   UNL     1      -5.918  23.925  23.504  0.00  0.00    +0.005 A 
ATOM     18  C   UNL     1      -5.426  24.455  22.234  0.00  0.00    -0.033 A 
ATOM     28  C   UNL     1      -5.260  23.558  21.103  0.00  0.00    +0.005 A 
ATOM     29  C   UNL     1      -5.570  22.183  21.202  0.00  0.00    +0.013 A 
BRANCH  18  19
ATOM     19  C   UNL     1      -5.083  25.942  22.026  0.00  0.00    +0.119 C 
BRANCH  19  20
ATOM     20  N   UNL     1      -5.390  26.878  23.148  0.00  0.00    -0.302 NA
ATOM     21  C   UNL     1      -6.825  27.407  23.078  0.00  0.00    +0.066 C 
ATOM     22  C   UNL     1      -7.137  28.368  24.272  0.00  0.00    -0.064 C 
ATOM     23  N   UNL     1      -6.133  29.522  24.269  0.00  0.00    +0.379 N 
ATOM     24  C   UNL     1      -6.458  30.458  25.355  0.00  0.00    -0.096 C 
ATOM     25  H   UNL     1      -6.250  30.069  23.305  0.00  0.00    -0.082 HD
ATOM     26  C   UNL     1      -4.703  29.005  24.335  0.00  0.00    -0.064 C 
ATOM     27  C   UNL     1      -4.414  28.028  23.161  0.00  0.00    +0.066 C 
ENDBRANCH  19  20
ENDBRANCH  18  19
ENDBRANCH  14  15
ENDBRANCH  12  13
TORSDOF 6
ENDMDL
MODEL 2
REMARK VINA RESULT:     -11.3      1.761      2.644
REMARK  Name = C:\Users\Docking\Desktop\test protocol\1iep_ligandH.pdb
REMARK  8 active torsions:
REMARK  status: ('A' for Active; 'I' for Inactive)
REMARK    1  A    between atoms: _5  and  _11
REMARK    2  A    between atoms: _19  and  _21
REMARK    3  A    between atoms: _22  and  _66
REMARK    4  A    between atoms: _27  and  _30
REMARK    5  A    between atoms: _32  and  _33
REMARK    6  A    between atoms: _38  and  _43
REMARK    7  A    between atoms: _43  and  _46
REMARK    8  A    between atoms: _53  and  _55
REMARK                            x       y       z     vdW  Elec       q    Type
REMARK                         _______ _______ _______ _____ _____    ______ ____
ROOT
ATOM     10  C   UNL     1      -6.981  17.152  23.727  0.00  0.00    +0.038 A 
ATOM     11  C   UNL     1      -6.360  18.427  23.721  0.00  0.00    +0.047 A 
ATOM     12  C   UNL     1      -7.104  19.625  23.365  0.00  0.00    +0.035 A 
ATOM     32  C   UNL     1      -8.481  19.488  23.022  0.00  0.00    +0.024 A 
ATOM     33  C   UNL     1      -9.128  18.200  23.022  0.00  0.00    +0.007 A 
ATOM     34  C   UNL     1      -8.398  17.014  23.370  0.00  0.00    -0.029 A 
ATOM     35  C   UNL     1      -9.141  15.658  23.346  0.00  0.00    +0.045 C 
ENDROOT
BRANCH  10   9
ATOM      4  C   UNL     1      -5.665  13.727  26.821  0.00  0.00    +0.077 A 
ATOM      5  C   UNL     1      -6.551  14.221  27.836  0.00  0.00    +0.048 A 
ATOM      6  C   UNL     1      -7.323  15.363  27.524  0.00  0.00    +0.116 A 
ATOM      7  N   UNL     1      -7.209  15.958  26.286  0.00  0.00    -0.223 NA
ATOM      8  C   UNL     1      -6.344  15.457  25.331  0.00  0.00    +0.220 A 
ATOM      9  N   UNL     1      -6.219  16.035  24.077  0.00  0.00    -0.283 N 
ATOM     36  H   UNL     1      -5.564  15.640  23.403  0.00  0.00    +0.155 HD
ATOM     37  N   UNL     1      -5.595  14.369  25.605  0.00  0.00    -0.214 NA
BRANCH   4   3
ATOM      1  C   UNL     1      -4.278  10.071  26.739  0.00  0.00    +0.020 A 
ATOM      2  C   UNL     1      -5.163  11.196  26.543  0.00  0.00    +0.013 A 
ATOM      3  C   UNL     1      -4.787  12.528  26.999  0.00  0.00    +0.019 A 
ATOM     38  C   UNL     1      -3.497  12.689  27.654  0.00  0.00    +0.120 A 
ATOM     39  N   UNL     1      -2.666  11.588  27.830  0.00  0.00    -0.263 NA
ATOM     40  C   UNL     1      -3.018  10.301  27.397  0.00  0.00    +0.111 A 
ENDBRANCH   4   3
ENDBRANCH  10   9
BRANCH  12  13
ATOM     13  N   UNL     1      -6.525  20.945  23.333  0.00  0.00    -0.281 N 
ATOM     14  C   UNL     1      -6.112  21.668  22.226  0.00  0.00    +0.248 C 
ATOM     30  O   UNL     1      -5.981  21.200  21.105  0.00  0.00    -0.270 OA
ATOM     31  H   UNL     1      -6.404  21.402  24.237  0.00  0.00    +0.155 HD
BRANCH  14  15
ATOM     15  C   UNL     1      -5.784  23.117  22.391  0.00  0.00    +0.037 A 
ATOM     16  C   UNL     1      -5.245  23.905  21.280  0.00  0.00    +0.013 A 
ATOM     17  C   UNL     1      -4.921  25.297  21.471  0.00  0.00    +0.005 A 
ATOM     18  C   UNL     1      -5.136  25.909  22.779  0.00  0.00    -0.033 A 
ATOM     28  C   UNL     1      -5.677  25.105  23.863  0.00  0.00    +0.005 A 
ATOM     29  C   UNL     1      -5.995  23.741  23.680  0.00  0.00    +0.013 A 
BRANCH  18  19
ATOM     19  C   UNL     1      -4.799  27.382  23.079  0.00  0.00    +0.119 C 
BRANCH  19  20
ATOM     20  N   UNL     1      -5.916  28.259  23.541  0.00  0.00    -0.302 NA
ATOM     21  C   UNL     1      -6.142  29.445  22.598  0.00  0.00    +0.066 C 
ATOM     22  C   UNL     1      -7.329  30.339  23.084  0.00  0.00    -0.064 C 
ATOM     23  N   UNL     1      -7.049  30.825  24.507  0.00  0.00    +0.379 N 
ATOM     24  C   UNL     1      -8.135  31.713  24.945  0.00  0.00    -0.096 C 
ATOM     25  H   UNL     1      -6.110  31.425  24.481  0.00  0.00    -0.082 HD
ATOM     26  C   UNL     1      -6.820  29.652  25.450  0.00  0.00    -0.064 C 
ATOM     27  C   UNL     1      -5.658  28.753  24.943  0.00  0.00    +0.066 C 
ENDBRANCH  19  20
ENDBRANCH  18  19
ENDBRANCH  14  15
ENDBRANCH  12  13
TORSDOF 6
ENDMDL
MODEL 3
REMARK VINA RESULT:     -11.0      5.136     16.474
REMARK  Name = C:\Users\Docking\Desktop\test protocol\1iep_ligandH.pdb
REMARK  8 active torsions:
REMARK  status: ('A' for Active; 'I' for Inactive)
REMARK    1  A    between atoms: _5  and  _11
REMARK    2  A    between atoms: _19  and  _21
REMARK    3  A    between atoms: _22  and  _66
REMARK    4  A    between atoms: _27  and  _30
REMARK    5  A    between atoms: _32  and  _33
REMARK    6  A    between atoms: _38  and  _43
REMARK    7  A    between atoms: _43  and  _46
REMARK    8  A    between atoms: _53  and  _55
REMARK                            x       y       z     vdW  Elec       q    Type
REMARK                         _______ _______ _______ _____ _____    ______ ____
ROOT
ATOM     10  C   UNL     1      -4.127  31.502  22.236  0.00  0.00    +0.038 A 
ATOM     11  C   UNL     1      -4.480  30.130  22.179  0.00  0.00    +0.047 A 
ATOM     12  C   UNL     1      -3.781  29.139  22.982  0.00  0.00    +0.035 A 
ATOM     32  C   UNL     1      -2.728  29.582  23.835  0.00  0.00    +0.024 A 
ATOM     33  C   UNL     1      -2.356  30.973  23.905  0.00  0.00    +0.007 A 
ATOM     34  C   UNL     1      -3.041  31.954  23.113  0.00  0.00    -0.029 A 
ATOM     35  C   UNL     1      -2.595  33.431  23.224  0.00  0.00    +0.045 C 
ENDROOT
BRANCH  10   9
ATOM      4  C   UNL     1      -7.512  34.851  21.625  0.00  0.00    +0.077 A 
ATOM      5  C   UNL     1      -7.929  34.764  22.995  0.00  0.00    +0.048 A 
ATOM      6  C   UNL     1      -7.251  33.840  23.822  0.00  0.00    +0.116 A 
ATOM      7  N   UNL     1      -6.234  33.066  23.307  0.00  0.00    -0.223 NA
ATOM      8  C   UNL     1      -5.858  33.173  21.981  0.00  0.00    +0.220 A 
ATOM      9  N   UNL     1      -4.832  32.411  21.443  0.00  0.00    -0.283 N 
ATOM     36  H   UNL     1      -4.590  32.514  20.458  0.00  0.00    +0.155 HD
ATOM     37  N   UNL     1      -6.490  34.047  21.170  0.00  0.00    -0.214 NA
BRANCH   4   3
ATOM      1  C   UNL     1     -10.113  36.869  19.513  0.00  0.00    +0.020 A 
ATOM      2  C   UNL     1      -9.569  35.956  20.492  0.00  0.00    +0.013 A 
ATOM      3  C   UNL     1      -8.128  35.782  20.628  0.00  0.00    +0.019 A 
ATOM     38  C   UNL     1      -7.259  36.552  19.751  0.00  0.00    +0.120 A 
ATOM     39  N   UNL     1      -7.812  37.422  18.817  0.00  0.00    -0.263 NA
ATOM     40  C   UNL     1      -9.196  37.597  18.676  0.00  0.00    +0.111 A 
ENDBRANCH   4   3
ENDBRANCH  10   9
BRANCH  12  13
ATOM     13  N   UNL     1      -4.089  27.731  22.959  0.00  0.00    -0.281 N 
ATOM     14  C   UNL     1      -5.298  27.119  23.246  0.00  0.00    +0.248 C 
ATOM     30  O   UNL     1      -6.247  27.678  23.776  0.00  0.00    -0.270 OA
ATOM     31  H   UNL     1      -3.323  27.109  22.700  0.00  0.00    +0.155 HD
BRANCH  14  15
ATOM     15  C   UNL     1      -5.474  25.674  22.908  0.00  0.00    +0.037 A 
ATOM     16  C   UNL     1      -5.884  24.700  23.924  0.00  0.00    +0.013 A 
ATOM     17  C   UNL     1      -6.030  23.309  23.576  0.00  0.00    +0.005 A 
ATOM     18  C   UNL     1      -5.767  22.883  22.203  0.00  0.00    -0.033 A 
ATOM     28  C   UNL     1      -5.367  23.871  21.214  0.00  0.00    +0.005 A 
ATOM     29  C   UNL     1      -5.222  25.235  21.552  0.00  0.00    +0.013 A 
BRANCH  18  19
ATOM     19  C   UNL     1      -5.877  21.416  21.747  0.00  0.00    +0.119 C 
BRANCH  19  20
ATOM     20  N   UNL     1      -6.609  20.474  22.646  0.00  0.00    -0.302 NA
ATOM     21  C   UNL     1      -5.933  19.102  22.712  0.00  0.00    +0.066 C 
ATOM     22  C   UNL     1      -6.699  18.136  23.673  0.00  0.00    -0.064 C 
ATOM     23  N   UNL     1      -8.151  18.003  23.209  0.00  0.00    +0.379 N 
ATOM     24  C   UNL     1      -8.858  17.050  24.076  0.00  0.00    -0.096 C 
ATOM     25  H   UNL     1      -8.138  17.577  22.178  0.00  0.00    -0.082 HD
ATOM     26  C   UNL     1      -8.829  19.364  23.137  0.00  0.00    -0.064 C 
ATOM     27  C   UNL     1      -8.044  20.325  22.202  0.00  0.00    +0.066 C 
ENDBRANCH  19  20
ENDBRANCH  18  19
ENDBRANCH  14  15
ENDBRANCH  12  13
TORSDOF 6
ENDMDL
MODEL 4
REMARK VINA RESULT:     -11.0      2.885     13.417
REMARK  Name = C:\Users\Docking\Desktop\test protocol\1iep_ligandH.pdb
REMARK  8 active torsions:
REMARK  status: ('A' for Active; 'I' for Inactive)
REMARK    1  A    between atoms: _5  and  _11
REMARK    2  A    between atoms: _19  and  _21
REMARK    3  A    between atoms: _22  and  _66
REMARK    4  A    between atoms: _27  and  _30
REMARK    5  A    between atoms: _32  and  _33
REMARK    6  A    between atoms: _38  and  _43
REMARK    7  A    between atoms: _43  and  _46
REMARK    8  A    between atoms: _53  and  _55
REMARK                            x       y       z     vdW  Elec       q    Type
REMARK                         _______ _______ _______ _____ _____    ______ ____
ROOT
ATOM     10  C   UNL     1      -7.282  17.210  24.971  0.00  0.00    +0.038 A 
ATOM     11  C   UNL     1      -6.313  16.344  25.540  0.00  0.00    +0.047 A 
ATOM     12  C   UNL     1      -6.573  14.921  25.692  0.00  0.00    +0.035 A 
ATOM     32  C   UNL     1      -7.830  14.413  25.251  0.00  0.00    +0.024 A 
ATOM     33  C   UNL     1      -8.826  15.280  24.671  0.00  0.00    +0.007 A 
ATOM     34  C   UNL     1      -8.576  16.685  24.521  0.00  0.00    -0.029 A 
ATOM     35  C   UNL     1      -9.683  17.567  23.899  0.00  0.00    +0.045 C 
ENDROOT
BRANCH  10   9
ATOM      4  C   UNL     1      -6.173  21.082  22.359  0.00  0.00    +0.077 A 
ATOM      5  C   UNL     1      -6.171  20.330  21.137  0.00  0.00    +0.048 A 
ATOM      6  C   UNL     1      -6.453  18.948  21.225  0.00  0.00    +0.116 A 
ATOM      7  N   UNL     1      -6.716  18.372  22.449  0.00  0.00    -0.223 NA
ATOM      8  C   UNL     1      -6.709  19.126  23.608  0.00  0.00    +0.220 A 
ATOM      9  N   UNL     1      -6.979  18.568  24.849  0.00  0.00    -0.283 N 
ATOM     36  H   UNL     1      -6.956  19.157  25.681  0.00  0.00    +0.155 HD
ATOM     37  N   UNL     1      -6.441  20.447  23.551  0.00  0.00    -0.214 NA
BRANCH   4   3
ATOM      1  C   UNL     1      -5.190  24.745  21.404  0.00  0.00    +0.020 A 
ATOM      2  C   UNL     1      -5.442  23.328  21.283  0.00  0.00    +0.013 A 
ATOM      3  C   UNL     1      -5.897  22.552  22.429  0.00  0.00    +0.019 A 
ATOM     38  C   UNL     1      -6.091  23.246  23.694  0.00  0.00    +0.120 A 
ATOM     39  N   UNL     1      -5.839  24.611  23.781  0.00  0.00    -0.263 NA
ATOM     40  C   UNL     1      -5.398  25.368  22.685  0.00  0.00    +0.111 A 
ENDBRANCH   4   3
ENDBRANCH  10   9
BRANCH  12  13
ATOM     13  N   UNL     1      -5.632  13.994  26.269  0.00  0.00    -0.281 N 
ATOM     14  C   UNL     1      -4.282  13.865  25.987  0.00  0.00    +0.248 C 
ATOM     30  O   UNL     1      -3.722  14.387  25.034  0.00  0.00    -0.270 OA
ATOM     31  H   UNL     1      -6.006  13.356  26.972  0.00  0.00    +0.155 HD
BRANCH  14  15
ATOM     15  C   UNL     1      -3.434  13.022  26.884  0.00  0.00    +0.037 A 
ATOM     16  C   UNL     1      -3.443  11.561  26.786  0.00  0.00    +0.013 A 
ATOM     17  C   UNL     1      -2.628  10.771  27.675  0.00  0.00    +0.005 A 
ATOM     18  C   UNL     1      -1.796  11.443  28.670  0.00  0.00    -0.033 A 
ATOM     28  C   UNL     1      -1.802  12.894  28.743  0.00  0.00    +0.005 A 
ATOM     29  C   UNL     1      -2.600  13.672  27.873  0.00  0.00    +0.013 A 
BRANCH  18  19
ATOM     19  C   UNL     1      -0.912  10.679  29.674  0.00  0.00    +0.119 C 
BRANCH  19  20
ATOM     20  N   UNL     1      -0.161   9.495  29.160  0.00  0.00    -0.302 NA
ATOM     21  C   UNL     1      -0.730   8.178  29.695  0.00  0.00    +0.066 C 
ATOM     22  C   UNL     1       0.053   6.948  29.130  0.00  0.00    -0.064 C 
ATOM     23  N   UNL     1       1.534   7.083  29.487  0.00  0.00    +0.379 N 
ATOM     24  C   UNL     1       2.264   5.900  29.008  0.00  0.00    -0.096 C 
ATOM     25  H   UNL     1       1.614   7.101  30.599  0.00  0.00    -0.082 HD
ATOM     26  C   UNL     1       2.108   8.391  28.961  0.00  0.00    -0.064 C 
ATOM     27  C   UNL     1       1.304   9.605  29.506  0.00  0.00    +0.066 C 
ENDBRANCH  19  20
ENDBRANCH  18  19
ENDBRANCH  14  15
ENDBRANCH  12  13
TORSDOF 6
ENDMDL
MODEL 5
REMARK VINA RESULT:     -10.7      5.140     14.904
REMARK  Name = C:\Users\Docking\Desktop\test protocol\1iep_ligandH.pdb
REMARK  8 active torsions:
REMARK  status: ('A' for Active; 'I' for Inactive)
REMARK    1  A    between atoms: _5  and  _11
REMARK    2  A    between atoms: _19  and  _21
REMARK    3  A    between atoms: _22  and  _66
REMARK    4  A    between atoms: _27  and  _30
REMARK    5  A    between atoms: _32  and  _33
REMARK    6  A    between atoms: _38  and  _43
REMARK    7  A    between atoms: _43  and  _46
REMARK    8  A    between atoms: _53  and  _55
REMARK                            x       y       z     vdW  Elec       q    Type
REMARK                         _______ _______ _______ _____ _____    ______ ____
ROOT
ATOM     10  C   UNL     1      -6.250  30.066  22.728  0.00  0.00    +0.038 A 
ATOM     11  C   UNL     1      -6.310  28.660  22.554  0.00  0.00    +0.047 A 
ATOM     12  C   UNL     1      -5.102  27.850  22.548  0.00  0.00    +0.035 A 
ATOM     32  C   UNL     1      -3.849  28.504  22.724  0.00  0.00    +0.024 A 
ATOM     33  C   UNL     1      -3.769  29.933  22.901  0.00  0.00    +0.007 A 
ATOM     34  C   UNL     1      -4.957  30.738  22.906  0.00  0.00    -0.029 A 
ATOM     35  C   UNL     1      -4.810  32.266  23.093  0.00  0.00    +0.045 C 
ENDROOT
BRANCH  10   9
ATOM      4  C   UNL     1      -9.934  32.161  24.980  0.00  0.00    +0.077 A 
ATOM      5  C   UNL     1      -9.460  31.745  26.268  0.00  0.00    +0.048 A 
ATOM      6  C   UNL     1      -8.269  30.987  26.307  0.00  0.00    +0.116 A 
ATOM      7  N   UNL     1      -7.608  30.675  25.139  0.00  0.00    -0.223 NA
ATOM      8  C   UNL     1      -8.093  31.091  23.912  0.00  0.00    +0.220 A 
ATOM      9  N   UNL     1      -7.441  30.795  22.725  0.00  0.00    -0.283 N 
ATOM     36  H   UNL     1      -7.835  31.114  21.841  0.00  0.00    +0.155 HD
ATOM     37  N   UNL     1      -9.230  31.814  23.848  0.00  0.00    -0.214 NA
BRANCH   4   3
ATOM      1  C   UNL     1     -13.468  33.338  23.783  0.00  0.00    +0.020 A 
ATOM      2  C   UNL     1     -12.289  32.518  23.948  0.00  0.00    +0.013 A 
ATOM      3  C   UNL     1     -11.177  32.970  24.774  0.00  0.00    +0.019 A 
ATOM     38  C   UNL     1     -11.291  34.266  25.426  0.00  0.00    +0.120 A 
ATOM     39  N   UNL     1     -12.437  35.034  25.248  0.00  0.00    -0.263 NA
ATOM     40  C   UNL     1     -13.513  34.610  24.453  0.00  0.00    +0.111 A 
ENDBRANCH   4   3
ENDBRANCH  10   9
BRANCH  12  13
ATOM     13  N   UNL     1      -5.101  26.419  22.367  0.00  0.00    -0.281 N 
ATOM     14  C   UNL     1      -5.432  25.444  23.294  0.00  0.00    +0.248 C 
ATOM     30  O   UNL     1      -5.575  25.647  24.490  0.00  0.00    -0.270 OA
ATOM     31  H   UNL     1      -4.823  26.085  21.445  0.00  0.00    +0.155 HD
BRANCH  14  15
ATOM     15  C   UNL     1      -5.617  24.036  22.826  0.00  0.00    +0.037 A 
ATOM     16  C   UNL     1      -5.287  23.642  21.454  0.00  0.00    +0.013 A 
ATOM     17  C   UNL     1      -5.491  22.282  21.023  0.00  0.00    +0.005 A 
ATOM     18  C   UNL     1      -6.028  21.304  21.967  0.00  0.00    -0.033 A 
ATOM     28  C   UNL     1      -6.342  21.721  23.324  0.00  0.00    +0.005 A 
ATOM     29  C   UNL     1      -6.144  23.054  23.749  0.00  0.00    +0.013 A 
BRANCH  18  19
ATOM     19  C   UNL     1      -6.298  19.836  21.588  0.00  0.00    +0.119 C 
BRANCH  19  20
ATOM     20  N   UNL     1      -7.094  19.017  22.550  0.00  0.00    -0.302 NA
ATOM     21  C   UNL     1      -7.149  17.543  22.140  0.00  0.00    +0.066 C 
ATOM     22  C   UNL     1      -7.967  16.696  23.170  0.00  0.00    -0.064 C 
ATOM     23  N   UNL     1      -9.377  17.276  23.297  0.00  0.00    +0.379 N 
ATOM     24  C   UNL     1     -10.167  16.449  24.220  0.00  0.00    -0.096 C 
ATOM     25  H   UNL     1      -9.858  17.218  22.293  0.00  0.00    -0.082 HD
ATOM     26  C   UNL     1      -9.331  18.743  23.701  0.00  0.00    -0.064 C 
ATOM     27  C   UNL     1      -8.491  19.570  22.688  0.00  0.00    +0.066 C 
ENDBRANCH  19  20
ENDBRANCH  18  19
ENDBRANCH  14  15
ENDBRANCH  12  13
TORSDOF 6
ENDMDL
