MODEL 1
REMARK VINA RESULT:      -9.4      0.000      0.000
REMARK  Name = C:\Users\Docking\Desktop\test protocol\1iep_ligandH.pdb
REMARK  8 active torsions:
REMARK  status: ('A' for Active; 'I' for Inactive)
REMARK    1  A    between atoms: _5  and  _11
REMARK    2  A    between atoms: _19  and  _21
REMARK    3  A    between atoms: _22  and  _66
REMARK    4  A    between atoms: _27  and  _30
REMARK    5  A    between atoms: _32  and  _33
REMARK    6  A    between atoms: _38  and  _43
REMARK    7  A    between atoms: _43  and  _46
REMARK    8  A    between atoms: _53  and  _55
REMARK                            x       y       z     vdW  Elec       q    Type
REMARK                         _______ _______ _______ _____ _____    ______ ____
ROOT
ATOM     10  C   UNL     1      33.335  -3.149  55.136  0.00  0.00    +0.038 A 
ATOM     11  C   UNL     1      33.617  -1.855  54.628  0.00  0.00    +0.047 A 
ATOM     12  C   UNL     1      34.886  -1.561  53.982  0.00  0.00    +0.035 A 
ATOM     32  C   UNL     1      35.845  -2.609  53.867  0.00  0.00    +0.024 A 
ATOM     33  C   UNL     1      35.575  -3.930  54.379  0.00  0.00    +0.007 A 
ATOM     34  C   UNL     1      34.326  -4.226  55.020  0.00  0.00    -0.029 A 
ATOM     35  C   UNL     1      34.094  -5.658  55.555  0.00  0.00    +0.045 C 
ENDROOT
BRANCH  10   9
ATOM      4  C   UNL     1      28.767  -4.619  55.032  0.00  0.00    +0.077 A 
ATOM      5  C   UNL     1      28.839  -4.936  53.635  0.00  0.00    +0.048 A 
ATOM      6  C   UNL     1      30.067  -4.699  52.978  0.00  0.00    +0.116 A 
ATOM      7  N   UNL     1      31.137  -4.184  53.677  0.00  0.00    -0.223 NA
ATOM      8  C   UNL     1      31.034  -3.888  55.024  0.00  0.00    +0.220 A 
ATOM      9  N   UNL     1      32.100  -3.376  55.748  0.00  0.00    -0.283 N 
ATOM     36  H   UNL     1      31.981  -3.164  56.738  0.00  0.00    +0.155 HD
ATOM     37  N   UNL     1      29.871  -4.103  55.673  0.00  0.00    -0.214 NA
BRANCH   4   3
ATOM      1  C   UNL     1      25.220  -5.732  56.248  0.00  0.00    +0.020 A 
ATOM      2  C   UNL     1      26.381  -5.571  55.404  0.00  0.00    +0.013 A 
ATOM      3  C   UNL     1      27.539  -4.816  55.866  0.00  0.00    +0.019 A 
ATOM     38  C   UNL     1      27.490  -4.232  57.198  0.00  0.00    +0.120 A 
ATOM     39  N   UNL     1      26.357  -4.403  57.988  0.00  0.00    -0.263 NA
ATOM     40  C   UNL     1      25.236  -5.126  57.554  0.00  0.00    +0.111 A 
ENDBRANCH   4   3
ENDBRANCH  10   9
BRANCH  12  13
ATOM     13  N   UNL     1      35.231  -0.264  53.454  0.00  0.00    -0.281 N 
ATOM     14  C   UNL     1      35.860   0.782  54.110  0.00  0.00    +0.248 C 
ATOM     30  O   UNL     1      36.030   0.838  55.318  0.00  0.00    -0.270 OA
ATOM     31  H   UNL     1      34.982  -0.097  52.479  0.00  0.00    +0.155 HD
BRANCH  14  15
ATOM     15  C   UNL     1      36.359   1.940  53.308  0.00  0.00    +0.037 A 
ATOM     16  C   UNL     1      37.792   2.225  53.195  0.00  0.00    +0.013 A 
ATOM     17  C   UNL     1      38.246   3.359  52.429  0.00  0.00    +0.005 A 
ATOM     18  C   UNL     1      37.264   4.216  51.769  0.00  0.00    -0.033 A 
ATOM     28  C   UNL     1      35.850   3.907  51.893  0.00  0.00    +0.005 A 
ATOM     29  C   UNL     1      35.401   2.798  52.643  0.00  0.00    +0.013 A 
BRANCH  18  19
ATOM     19  C   UNL     1      37.657   5.459  50.949  0.00  0.00    +0.119 C 
BRANCH  19  20
ATOM     20  N   UNL     1      37.555   5.359  49.462  0.00  0.00    -0.302 NA
ATOM     21  C   UNL     1      38.870   4.903  48.825  0.00  0.00    +0.066 C 
ATOM     22  C   UNL     1      38.738   4.781  47.272  0.00  0.00    -0.064 C 
ATOM     23  N   UNL     1      38.294   6.125  46.694  0.00  0.00    +0.379 N 
ATOM     24  C   UNL     1      38.225   6.030  45.228  0.00  0.00    -0.096 C 
ATOM     25  H   UNL     1      39.076   6.878  46.948  0.00  0.00    -0.082 HD
ATOM     26  C   UNL     1      36.987   6.587  47.324  0.00  0.00    -0.064 C 
ATOM     27  C   UNL     1      37.121   6.677  48.870  0.00  0.00    +0.066 C 
ENDBRANCH  19  20
ENDBRANCH  18  19
ENDBRANCH  14  15
ENDBRANCH  12  13
TORSDOF 6
ENDMDL
MODEL 2
REMARK VINA RESULT:      -8.8      6.928     12.324
REMARK  Name = C:\Users\Docking\Desktop\test protocol\1iep_ligandH.pdb
REMARK  8 active torsions:
REMARK  status: ('A' for Active; 'I' for Inactive)
REMARK    1  A    between atoms: _5  and  _11
REMARK    2  A    between atoms: _19  and  _21
REMARK    3  A    between atoms: _22  and  _66
REMARK    4  A    between atoms: _27  and  _30
REMARK    5  A    between atoms: _32  and  _33
REMARK    6  A    between atoms: _38  and  _43
REMARK    7  A    between atoms: _43  and  _46
REMARK    8  A    between atoms: _53  and  _55
REMARK                            x       y       z     vdW  Elec       q    Type
REMARK                         _______ _______ _______ _____ _____    ______ ____
ROOT
ATOM     10  C   UNL     1      34.896  -3.910  54.172  0.00  0.00    +0.038 A 
ATOM     11  C   UNL     1      35.753  -4.822  53.505  0.00  0.00    +0.047 A 
ATOM     12  C   UNL     1      35.807  -6.224  53.890  0.00  0.00    +0.035 A 
ATOM     32  C   UNL     1      34.971  -6.663  54.958  0.00  0.00    +0.024 A 
ATOM     33  C   UNL     1      34.095  -5.749  55.648  0.00  0.00    +0.007 A 
ATOM     34  C   UNL     1      34.039  -4.365  55.274  0.00  0.00    -0.029 A 
ATOM     35  C   UNL     1      33.086  -3.429  56.053  0.00  0.00    +0.045 C 
ENDROOT
BRANCH  10   9
ATOM      4  C   UNL     1      36.460   0.619  54.452  0.00  0.00    +0.077 A 
ATOM      5  C   UNL     1      37.356   0.305  55.527  0.00  0.00    +0.048 A 
ATOM      6  C   UNL     1      37.379  -1.032  55.983  0.00  0.00    +0.116 A 
ATOM      7  N   UNL     1      36.563  -1.976  55.401  0.00  0.00    -0.223 NA
ATOM      8  C   UNL     1      35.708  -1.640  54.367  0.00  0.00    +0.220 A 
ATOM      9  N   UNL     1      34.884  -2.575  53.760  0.00  0.00    -0.283 N 
ATOM     36  H   UNL     1      34.263  -2.286  53.006  0.00  0.00    +0.155 HD
ATOM     37  N   UNL     1      35.666  -0.370  53.914  0.00  0.00    -0.214 NA
BRANCH   4   3
ATOM      1  C   UNL     1      35.187   3.672  52.364  0.00  0.00    +0.020 A 
ATOM      2  C   UNL     1      35.274   2.336  52.908  0.00  0.00    +0.013 A 
ATOM      3  C   UNL     1      36.323   1.986  53.858  0.00  0.00    +0.019 A 
ATOM     38  C   UNL     1      37.274   3.020  54.240  0.00  0.00    +0.120 A 
ATOM     39  N   UNL     1      37.165   4.297  53.699  0.00  0.00    -0.263 NA
ATOM     40  C   UNL     1      36.161   4.644  52.782  0.00  0.00    +0.111 A 
ENDBRANCH   4   3
ENDBRANCH  10   9
BRANCH  12  13
ATOM     13  N   UNL     1      36.663  -7.194  53.255  0.00  0.00    -0.281 N 
ATOM     14  C   UNL     1      36.301  -8.211  52.386  0.00  0.00    +0.248 C 
ATOM     30  O   UNL     1      35.151  -8.574  52.189  0.00  0.00    -0.270 OA
ATOM     31  H   UNL     1      37.657  -7.123  53.472  0.00  0.00    +0.155 HD
BRANCH  14  15
ATOM     15  C   UNL     1      37.371  -8.937  51.638  0.00  0.00    +0.037 A 
ATOM     16  C   UNL     1      37.610 -10.367  51.851  0.00  0.00    +0.013 A 
ATOM     17  C   UNL     1      38.661 -11.040  51.129  0.00  0.00    +0.005 A 
ATOM     18  C   UNL     1      39.480 -10.283  50.186  0.00  0.00    -0.033 A 
ATOM     28  C   UNL     1      39.219  -8.867  49.990  0.00  0.00    +0.005 A 
ATOM     29  C   UNL     1      38.190  -8.204  50.697  0.00  0.00    +0.013 A 
BRANCH  18  19
ATOM     19  C   UNL     1      40.636 -10.915  49.388  0.00  0.00    +0.119 C 
BRANCH  19  20
ATOM     20  N   UNL     1      40.273 -11.784  48.229  0.00  0.00    -0.302 NA
ATOM     21  C   UNL     1      38.897 -11.431  47.656  0.00  0.00    +0.066 C 
ATOM     22  C   UNL     1      38.543 -12.334  46.430  0.00  0.00    -0.064 C 
ATOM     23  N   UNL     1      38.594 -13.804  46.851  0.00  0.00    +0.379 N 
ATOM     24  C   UNL     1      38.205 -14.653  45.716  0.00  0.00    -0.096 C 
ATOM     25  H   UNL     1      37.839 -13.951  47.658  0.00  0.00    -0.082 HD
ATOM     26  C   UNL     1      39.958 -14.162  47.425  0.00  0.00    -0.064 C 
ATOM     27  C   UNL     1      40.313 -13.239  48.624  0.00  0.00    +0.066 C 
ENDBRANCH  19  20
ENDBRANCH  18  19
ENDBRANCH  14  15
ENDBRANCH  12  13
TORSDOF 6
ENDMDL
MODEL 3
REMARK VINA RESULT:      -8.4      8.614     13.899
REMARK  Name = C:\Users\Docking\Desktop\test protocol\1iep_ligandH.pdb
REMARK  8 active torsions:
REMARK  status: ('A' for Active; 'I' for Inactive)
REMARK    1  A    between atoms: _5  and  _11
REMARK    2  A    between atoms: _19  and  _21
REMARK    3  A    between atoms: _22  and  _66
REMARK    4  A    between atoms: _27  and  _30
REMARK    5  A    between atoms: _32  and  _33
REMARK    6  A    between atoms: _38  and  _43
REMARK    7  A    between atoms: _43  and  _46
REMARK    8  A    between atoms: _53  and  _55
REMARK                            x       y       z     vdW  Elec       q    Type
REMARK                         _______ _______ _______ _____ _____    ______ ____
ROOT
ATOM     10  C   UNL     1      39.546  -9.798  49.083  0.00  0.00    +0.038 A 
ATOM     11  C   UNL     1      38.835  -8.839  49.849  0.00  0.00    +0.047 A 
ATOM     12  C   UNL     1      38.307  -9.168  51.164  0.00  0.00    +0.035 A 
ATOM     32  C   UNL     1      38.526 -10.482  51.671  0.00  0.00    +0.024 A 
ATOM     33  C   UNL     1      39.246 -11.469  50.905  0.00  0.00    +0.007 A 
ATOM     34  C   UNL     1      39.766 -11.152  49.606  0.00  0.00    -0.029 A 
ATOM     35  C   UNL     1      40.525 -12.251  48.828  0.00  0.00    +0.045 C 
ENDROOT
BRANCH  10   9
ATOM      4  C   UNL     1      38.894  -8.576  44.488  0.00  0.00    +0.077 A 
ATOM      5  C   UNL     1      37.470  -8.712  44.592  0.00  0.00    +0.048 A 
ATOM      6  C   UNL     1      36.945  -9.105  45.844  0.00  0.00    +0.116 A 
ATOM      7  N   UNL     1      37.792  -9.342  46.906  0.00  0.00    -0.223 NA
ATOM      8  C   UNL     1      39.161  -9.203  46.770  0.00  0.00    +0.220 A 
ATOM      9  N   UNL     1      40.030  -9.428  47.827  0.00  0.00    -0.283 N 
ATOM     36  H   UNL     1      41.035  -9.322  47.684  0.00  0.00    +0.155 HD
ATOM     37  N   UNL     1      39.687  -8.830  45.585  0.00  0.00    -0.214 NA
BRANCH   4   3
ATOM      1  C   UNL     1      40.098  -6.523  41.384  0.00  0.00    +0.020 A 
ATOM      2  C   UNL     1      39.392  -6.871  42.595  0.00  0.00    +0.013 A 
ATOM      3  C   UNL     1      39.598  -8.165  43.232  0.00  0.00    +0.019 A 
ATOM     38  C   UNL     1      40.534  -9.092  42.613  0.00  0.00    +0.120 A 
ATOM     39  N   UNL     1      41.198  -8.730  41.445  0.00  0.00    -0.263 NA
ATOM     40  C   UNL     1      41.006  -7.488  40.822  0.00  0.00    +0.111 A 
ENDBRANCH   4   3
ENDBRANCH  10   9
BRANCH  12  13
ATOM     13  N   UNL     1      37.570  -8.239  51.984  0.00  0.00    -0.281 N 
ATOM     14  C   UNL     1      36.398  -7.571  51.671  0.00  0.00    +0.248 C 
ATOM     30  O   UNL     1      35.917  -7.508  50.549  0.00  0.00    -0.270 OA
ATOM     31  H   UNL     1      37.960  -8.051  52.908  0.00  0.00    +0.155 HD
BRANCH  14  15
ATOM     15  C   UNL     1      35.660  -6.857  52.757  0.00  0.00    +0.037 A 
ATOM     16  C   UNL     1      35.790  -7.266  54.158  0.00  0.00    +0.013 A 
ATOM     17  C   UNL     1      35.054  -6.571  55.185  0.00  0.00    +0.005 A 
ATOM     18  C   UNL     1      34.182  -5.460  54.814  0.00  0.00    -0.033 A 
ATOM     28  C   UNL     1      34.076  -5.072  53.417  0.00  0.00    +0.005 A 
ATOM     29  C   UNL     1      34.795  -5.751  52.408  0.00  0.00    +0.013 A 
BRANCH  18  19
ATOM     19  C   UNL     1      33.343  -4.675  55.840  0.00  0.00    +0.119 C 
BRANCH  19  20
ATOM     20  N   UNL     1      31.859  -4.719  55.686  0.00  0.00    -0.302 NA
ATOM     21  C   UNL     1      31.190  -3.443  56.206  0.00  0.00    +0.066 C 
ATOM     22  C   UNL     1      29.639  -3.496  56.016  0.00  0.00    -0.064 C 
ATOM     23  N   UNL     1      29.082  -4.729  56.731  0.00  0.00    +0.379 N 
ATOM     24  C   UNL     1      27.618  -4.751  56.604  0.00  0.00    -0.096 C 
ATOM     25  H   UNL     1      29.326  -4.631  57.814  0.00  0.00    -0.082 HD
ATOM     26  C   UNL     1      29.744  -6.002  56.222  0.00  0.00    -0.064 C 
ATOM     27  C   UNL     1      31.288  -5.927  56.388  0.00  0.00    +0.066 C 
ENDBRANCH  19  20
ENDBRANCH  18  19
ENDBRANCH  14  15
ENDBRANCH  12  13
TORSDOF 6
ENDMDL
MODEL 4
REMARK VINA RESULT:      -8.0      6.803     11.788
REMARK  Name = C:\Users\Docking\Desktop\test protocol\1iep_ligandH.pdb
REMARK  8 active torsions:
REMARK  status: ('A' for Active; 'I' for Inactive)
REMARK    1  A    between atoms: _5  and  _11
REMARK    2  A    between atoms: _19  and  _21
REMARK    3  A    between atoms: _22  and  _66
REMARK    4  A    between atoms: _27  and  _30
REMARK    5  A    between atoms: _32  and  _33
REMARK    6  A    between atoms: _38  and  _43
REMARK    7  A    between atoms: _43  and  _46
REMARK    8  A    between atoms: _53  and  _55
REMARK                            x       y       z     vdW  Elec       q    Type
REMARK                         _______ _______ _______ _____ _____    ______ ____
ROOT
ATOM     10  C   UNL     1      33.769  -2.788  53.092  0.00  0.00    +0.038 A 
ATOM     11  C   UNL     1      34.586  -3.808  52.542  0.00  0.00    +0.047 A 
ATOM     12  C   UNL     1      34.198  -5.208  52.621  0.00  0.00    +0.035 A 
ATOM     32  C   UNL     1      32.969  -5.533  53.266  0.00  0.00    +0.024 A 
ATOM     33  C   UNL     1      32.127  -4.509  53.832  0.00  0.00    +0.007 A 
ATOM     34  C   UNL     1      32.506  -3.127  53.759  0.00  0.00    -0.029 A 
ATOM     35  C   UNL     1      31.567  -2.071  54.389  0.00  0.00    +0.045 C 
ENDROOT
BRANCH  10   9
ATOM      4  C   UNL     1      36.405   0.944  54.561  0.00  0.00    +0.077 A 
ATOM      5  C   UNL     1      36.971   0.194  55.645  0.00  0.00    +0.048 A 
ATOM      6  C   UNL     1      36.552  -1.148  55.794  0.00  0.00    +0.116 A 
ATOM      7  N   UNL     1      35.635  -1.688  54.919  0.00  0.00    -0.223 NA
ATOM      8  C   UNL     1      35.108  -0.936  53.885  0.00  0.00    +0.220 A 
ATOM      9  N   UNL     1      34.190  -1.461  52.988  0.00  0.00    -0.283 N 
ATOM     36  H   UNL     1      33.819  -0.871  52.243  0.00  0.00    +0.155 HD
ATOM     37  N   UNL     1      35.490   0.348  53.722  0.00  0.00    -0.214 NA
BRANCH   4   3
ATOM      1  C   UNL     1      37.728   4.184  52.814  0.00  0.00    +0.020 A 
ATOM      2  C   UNL     1      37.417   2.792  53.045  0.00  0.00    +0.013 A 
ATOM      3  C   UNL     1      36.750   2.372  54.272  0.00  0.00    +0.019 A 
ATOM     38  C   UNL     1      36.409   3.393  55.251  0.00  0.00    +0.120 A 
ATOM     39  N   UNL     1      36.722   4.725  55.001  0.00  0.00    -0.263 NA
ATOM     40  C   UNL     1      37.365   5.141  53.826  0.00  0.00    +0.111 A 
ENDBRANCH   4   3
ENDBRANCH  10   9
BRANCH  12  13
ATOM     13  N   UNL     1      34.991  -6.288  52.087  0.00  0.00    -0.281 N 
ATOM     14  C   UNL     1      34.927  -6.846  50.821  0.00  0.00    +0.248 C 
ATOM     30  O   UNL     1      34.028  -6.641  50.020  0.00  0.00    -0.270 OA
ATOM     31  H   UNL     1      35.683  -6.690  52.720  0.00  0.00    +0.155 HD
BRANCH  14  15
ATOM     15  C   UNL     1      36.013  -7.777  50.387  0.00  0.00    +0.037 A 
ATOM     16  C   UNL     1      35.935  -8.493  49.111  0.00  0.00    +0.013 A 
ATOM     17  C   UNL     1      36.988  -9.399  48.724  0.00  0.00    +0.005 A 
ATOM     18  C   UNL     1      38.130  -9.591  49.615  0.00  0.00    -0.033 A 
ATOM     28  C   UNL     1      38.185  -8.863  50.872  0.00  0.00    +0.005 A 
ATOM     29  C   UNL     1      37.154  -7.976  51.255  0.00  0.00    +0.013 A 
BRANCH  18  19
ATOM     19  C   UNL     1      39.289 -10.553  49.293  0.00  0.00    +0.119 C 
BRANCH  19  20
ATOM     20  N   UNL     1      39.641 -10.742  47.854  0.00  0.00    -0.302 NA
ATOM     21  C   UNL     1      39.830 -12.219  47.498  0.00  0.00    +0.066 C 
ATOM     22  C   UNL     1      40.176 -12.400  45.984  0.00  0.00    -0.064 C 
ATOM     23  N   UNL     1      41.435 -11.597  45.652  0.00  0.00    +0.379 N 
ATOM     24  C   UNL     1      41.796 -11.811  44.243  0.00  0.00    -0.096 C 
ATOM     25  H   UNL     1      42.266 -11.997  46.279  0.00  0.00    -0.082 HD
ATOM     26  C   UNL     1      41.257 -10.127  46.006  0.00  0.00    -0.064 C 
ATOM     27  C   UNL     1      40.884  -9.961  47.505  0.00  0.00    +0.066 C 
ENDBRANCH  19  20
ENDBRANCH  18  19
ENDBRANCH  14  15
ENDBRANCH  12  13
TORSDOF 6
ENDMDL
MODEL 5
REMARK VINA RESULT:      -7.9     15.123     22.040
REMARK  Name = C:\Users\Docking\Desktop\test protocol\1iep_ligandH.pdb
REMARK  8 active torsions:
REMARK  status: ('A' for Active; 'I' for Inactive)
REMARK    1  A    between atoms: _5  and  _11
REMARK    2  A    between atoms: _19  and  _21
REMARK    3  A    between atoms: _22  and  _66
REMARK    4  A    between atoms: _27  and  _30
REMARK    5  A    between atoms: _32  and  _33
REMARK    6  A    between atoms: _38  and  _43
REMARK    7  A    between atoms: _43  and  _46
REMARK    8  A    between atoms: _53  and  _55
REMARK                            x       y       z     vdW  Elec       q    Type
REMARK                         _______ _______ _______ _____ _____    ______ ____
ROOT
ATOM     10  C   UNL     1      36.933  19.915  56.075  0.00  0.00    +0.038 A 
ATOM     11  C   UNL     1      36.496  19.084  55.011  0.00  0.00    +0.047 A 
ATOM     12  C   UNL     1      35.796  17.836  55.270  0.00  0.00    +0.035 A 
ATOM     32  C   UNL     1      35.555  17.465  56.625  0.00  0.00    +0.024 A 
ATOM     33  C   UNL     1      35.992  18.297  57.719  0.00  0.00    +0.007 A 
ATOM     34  C   UNL     1      36.686  19.528  57.469  0.00  0.00    -0.029 A 
ATOM     35  C   UNL     1      37.138  20.377  58.680  0.00  0.00    +0.045 C 
ENDROOT
BRANCH  10   9
ATOM      4  C   UNL     1      40.921  22.392  55.078  0.00  0.00    +0.077 A 
ATOM      5  C   UNL     1      41.748  21.226  55.204  0.00  0.00    +0.048 A 
ATOM      6  C   UNL     1      41.109  20.010  55.533  0.00  0.00    +0.116 A 
ATOM      7  N   UNL     1      39.744  19.974  55.720  0.00  0.00    -0.223 NA
ATOM      8  C   UNL     1      38.976  21.117  55.593  0.00  0.00    +0.220 A 
ATOM      9  N   UNL     1      37.601  21.102  55.769  0.00  0.00    -0.283 N 
ATOM     36  H   UNL     1      37.071  21.968  55.673  0.00  0.00    +0.155 HD
ATOM     37  N   UNL     1      39.563  22.291  55.280  0.00  0.00    -0.214 NA
BRANCH   4   3
ATOM      1  C   UNL     1      41.758  25.692  53.151  0.00  0.00    +0.020 A 
ATOM      2  C   UNL     1      41.227  24.378  53.435  0.00  0.00    +0.013 A 
ATOM      3  C   UNL     1      41.449  23.750  54.731  0.00  0.00    +0.019 A 
ATOM     38  C   UNL     1      42.217  24.483  55.726  0.00  0.00    +0.120 A 
ATOM     39  N   UNL     1      42.717  25.745  55.423  0.00  0.00    -0.263 NA
ATOM     40  C   UNL     1      42.512  26.360  54.179  0.00  0.00    +0.111 A 
ENDBRANCH   4   3
ENDBRANCH  10   9
BRANCH  12  13
ATOM     13  N   UNL     1      35.336  16.948  54.232  0.00  0.00    -0.281 N 
ATOM     14  C   UNL     1      35.541  17.057  52.866  0.00  0.00    +0.248 C 
ATOM     30  O   UNL     1      35.972  18.056  52.309  0.00  0.00    -0.270 OA
ATOM     31  H   UNL     1      34.794  16.141  54.541  0.00  0.00    +0.155 HD
BRANCH  14  15
ATOM     15  C   UNL     1      35.204  15.893  51.990  0.00  0.00    +0.037 A 
ATOM     16  C   UNL     1      34.065  15.022  52.288  0.00  0.00    +0.013 A 
ATOM     17  C   UNL     1      33.773  13.896  51.437  0.00  0.00    +0.005 A 
ATOM     18  C   UNL     1      34.622  13.636  50.277  0.00  0.00    -0.033 A 
ATOM     28  C   UNL     1      35.743  14.519  50.002  0.00  0.00    +0.005 A 
ATOM     29  C   UNL     1      36.033  15.623  50.835  0.00  0.00    +0.013 A 
BRANCH  18  19
ATOM     19  C   UNL     1      34.397  12.445  49.326  0.00  0.00    +0.119 C 
BRANCH  19  20
ATOM     20  N   UNL     1      34.783  12.631  47.895  0.00  0.00    -0.302 NA
ATOM     21  C   UNL     1      33.624  13.175  47.054  0.00  0.00    +0.066 C 
ATOM     22  C   UNL     1      34.051  13.384  45.565  0.00  0.00    -0.064 C 
ATOM     23  N   UNL     1      34.561  12.061  44.993  0.00  0.00    +0.379 N 
ATOM     24  C   UNL     1      34.909  12.241  43.576  0.00  0.00    -0.096 C 
ATOM     25  H   UNL     1      33.725  11.325  45.045  0.00  0.00    -0.082 HD
ATOM     26  C   UNL     1      35.712  11.512  45.825  0.00  0.00    -0.064 C 
ATOM     27  C   UNL     1      35.286  11.335  47.309  0.00  0.00    +0.066 C 
ENDBRANCH  19  20
ENDBRANCH  18  19
ENDBRANCH  14  15
ENDBRANCH  12  13
TORSDOF 6
ENDMDL
