MODEL 1
REMARK VINA RESULT:      -7.6      0.000      0.000
REMARK  Name = C:\Users\Docking\Desktop\test protocol\1iep_ligandH.pdb
REMARK  8 active torsions:
REMARK  status: ('A' for Active; 'I' for Inactive)
REMARK    1  A    between atoms: _5  and  _11
REMARK    2  A    between atoms: _19  and  _21
REMARK    3  A    between atoms: _22  and  _66
REMARK    4  A    between atoms: _27  and  _30
REMARK    5  A    between atoms: _32  and  _33
REMARK    6  A    between atoms: _38  and  _43
REMARK    7  A    between atoms: _43  and  _46
REMARK    8  A    between atoms: _53  and  _55
REMARK                            x       y       z     vdW  Elec       q    Type
REMARK                         _______ _______ _______ _____ _____    ______ ____
ROOT
ATOM     10  C   UNL     1      -6.703 -28.832   0.190  0.00  0.00    +0.038 A 
ATOM     11  C   UNL     1      -7.878 -28.786  -0.603  0.00  0.00    +0.047 A 
ATOM     12  C   UNL     1      -8.061 -29.686  -1.731  0.00  0.00    +0.035 A 
ATOM     32  C   UNL     1      -7.028 -30.624  -2.021  0.00  0.00    +0.024 A 
ATOM     33  C   UNL     1      -5.826 -30.685  -1.226  0.00  0.00    +0.007 A 
ATOM     34  C   UNL     1      -5.639 -29.797  -0.114  0.00  0.00    -0.029 A 
ATOM     35  C   UNL     1      -4.328 -29.903   0.700  0.00  0.00    +0.045 C 
ENDROOT
BRANCH  10   9
ATOM      4  C   UNL     1      -5.152 -24.722   2.123  0.00  0.00    +0.077 A 
ATOM      5  C   UNL     1      -4.511 -24.322   0.904  0.00  0.00    +0.048 A 
ATOM      6  C   UNL     1      -4.597 -25.206  -0.195  0.00  0.00    +0.116 A 
ATOM      7  N   UNL     1      -5.277 -26.398  -0.073  0.00  0.00    -0.223 NA
ATOM      8  C   UNL     1      -5.883 -26.754   1.118  0.00  0.00    +0.220 A 
ATOM      9  N   UNL     1      -6.579 -27.944   1.261  0.00  0.00    -0.283 N 
ATOM     36  H   UNL     1      -7.006 -28.174   2.158  0.00  0.00    +0.155 HD
ATOM     37  N   UNL     1      -5.814 -25.928   2.182  0.00  0.00    -0.214 NA
BRANCH   4   3
ATOM      1  C   UNL     1      -5.920 -23.392   5.721  0.00  0.00    +0.020 A 
ATOM      2  C   UNL     1      -5.957 -24.225   4.540  0.00  0.00    +0.013 A 
ATOM      3  C   UNL     1      -5.152 -23.894   3.371  0.00  0.00    +0.019 A 
ATOM     38  C   UNL     1      -4.314 -22.707   3.429  0.00  0.00    +0.120 A 
ATOM     39  N   UNL     1      -4.300 -21.923   4.579  0.00  0.00    -0.263 NA
ATOM     40  C   UNL     1      -5.071 -22.230   5.709  0.00  0.00    +0.111 A 
ENDBRANCH   4   3
ENDBRANCH  10   9
BRANCH  12  13
ATOM     13  N   UNL     1      -9.229 -29.679  -2.576  0.00  0.00    -0.281 N 
ATOM     14  C   UNL     1      -9.808 -28.598  -3.220  0.00  0.00    +0.248 C 
ATOM     30  O   UNL     1      -9.532 -27.430  -2.992  0.00  0.00    -0.270 OA
ATOM     31  H   UNL     1      -9.683 -30.582  -2.718  0.00  0.00    +0.155 HD
BRANCH  14  15
ATOM     15  C   UNL     1     -10.855 -28.851  -4.256  0.00  0.00    +0.037 A 
ATOM     16  C   UNL     1     -12.255 -28.483  -4.027  0.00  0.00    +0.013 A 
ATOM     17  C   UNL     1     -13.248 -28.753  -5.036  0.00  0.00    +0.005 A 
ATOM     18  C   UNL     1     -12.844 -29.394  -6.285  0.00  0.00    -0.033 A 
ATOM     28  C   UNL     1     -11.448 -29.744  -6.488  0.00  0.00    +0.005 A 
ATOM     29  C   UNL     1     -10.472 -29.481  -5.501  0.00  0.00    +0.013 A 
BRANCH  18  19
ATOM     19  C   UNL     1     -13.839 -29.739  -7.409  0.00  0.00    +0.119 C 
BRANCH  19  20
ATOM     20  N   UNL     1     -14.247 -28.633  -8.325  0.00  0.00    -0.302 NA
ATOM     21  C   UNL     1     -15.650 -28.849  -8.898  0.00  0.00    +0.066 C 
ATOM     22  C   UNL     1     -16.070 -27.671  -9.836  0.00  0.00    -0.064 C 
ATOM     23  N   UNL     1     -15.042 -27.527 -10.960  0.00  0.00    +0.379 N 
ATOM     24  C   UNL     1     -15.464 -26.458 -11.877  0.00  0.00    -0.096 C 
ATOM     25  H   UNL     1     -15.034 -28.483 -11.535  0.00  0.00    -0.082 HD
ATOM     26  C   UNL     1     -13.643 -27.315 -10.399  0.00  0.00    -0.064 C 
ATOM     27  C   UNL     1     -13.248 -28.476  -9.445  0.00  0.00    +0.066 C 
ENDBRANCH  19  20
ENDBRANCH  18  19
ENDBRANCH  14  15
ENDBRANCH  12  13
TORSDOF 6
ENDMDL
MODEL 2
REMARK VINA RESULT:      -7.3      1.812      2.451
REMARK  Name = C:\Users\Docking\Desktop\test protocol\1iep_ligandH.pdb
REMARK  8 active torsions:
REMARK  status: ('A' for Active; 'I' for Inactive)
REMARK    1  A    between atoms: _5  and  _11
REMARK    2  A    between atoms: _19  and  _21
REMARK    3  A    between atoms: _22  and  _66
REMARK    4  A    between atoms: _27  and  _30
REMARK    5  A    between atoms: _32  and  _33
REMARK    6  A    between atoms: _38  and  _43
REMARK    7  A    between atoms: _43  and  _46
REMARK    8  A    between atoms: _53  and  _55
REMARK                            x       y       z     vdW  Elec       q    Type
REMARK                         _______ _______ _______ _____ _____    ______ ____
ROOT
ATOM     10  C   UNL     1      -7.620 -28.918  -0.568  0.00  0.00    +0.038 A 
ATOM     11  C   UNL     1      -8.403 -28.727  -1.736  0.00  0.00    +0.047 A 
ATOM     12  C   UNL     1      -8.905 -29.860  -2.498  0.00  0.00    +0.035 A 
ATOM     32  C   UNL     1      -8.593 -31.173  -2.041  0.00  0.00    +0.024 A 
ATOM     33  C   UNL     1      -7.798 -31.385  -0.857  0.00  0.00    +0.007 A 
ATOM     34  C   UNL     1      -7.298 -30.272  -0.102  0.00  0.00    -0.029 A 
ATOM     35  C   UNL     1      -6.446 -30.558   1.156  0.00  0.00    +0.045 C 
ENDROOT
BRANCH  10   9
ATOM      4  C   UNL     1      -4.325 -25.545   0.326  0.00  0.00    +0.077 A 
ATOM      5  C   UNL     1      -3.424 -26.082  -0.652  0.00  0.00    +0.048 A 
ATOM      6  C   UNL     1      -3.843 -27.232  -1.359  0.00  0.00    +0.116 A 
ATOM      7  N   UNL     1      -5.074 -27.793  -1.099  0.00  0.00    -0.223 NA
ATOM      8  C   UNL     1      -5.919 -27.251  -0.147  0.00  0.00    +0.220 A 
ATOM      9  N   UNL     1      -7.165 -27.794   0.125  0.00  0.00    -0.283 N 
ATOM     36  H   UNL     1      -7.755 -27.369   0.840  0.00  0.00    +0.155 HD
ATOM     37  N   UNL     1      -5.541 -26.154   0.542  0.00  0.00    -0.214 NA
BRANCH   4   3
ATOM      1  C   UNL     1      -2.726 -23.103   2.931  0.00  0.00    +0.020 A 
ATOM      2  C   UNL     1      -2.974 -24.300   2.160  0.00  0.00    +0.013 A 
ATOM      3  C   UNL     1      -4.026 -24.332   1.152  0.00  0.00    +0.019 A 
ATOM     38  C   UNL     1      -4.814 -23.127   0.946  0.00  0.00    +0.120 A 
ATOM     39  N   UNL     1      -4.554 -21.990   1.703  0.00  0.00    -0.263 NA
ATOM     40  C   UNL     1      -3.545 -21.947   2.678  0.00  0.00    +0.111 A 
ENDBRANCH   4   3
ENDBRANCH  10   9
BRANCH  12  13
ATOM     13  N   UNL     1      -9.697 -29.728  -3.696  0.00  0.00    -0.281 N 
ATOM     14  C   UNL     1     -11.048 -29.442  -3.796  0.00  0.00    +0.248 C 
ATOM     30  O   UNL     1     -11.831 -29.466  -2.858  0.00  0.00    -0.270 OA
ATOM     31  H   UNL     1      -9.201 -29.863  -4.577  0.00  0.00    +0.155 HD
BRANCH  14  15
ATOM     15  C   UNL     1     -11.615 -29.092  -5.134  0.00  0.00    +0.037 A 
ATOM     16  C   UNL     1     -10.785 -29.115  -6.341  0.00  0.00    +0.013 A 
ATOM     17  C   UNL     1     -11.352 -28.756  -7.616  0.00  0.00    +0.005 A 
ATOM     18  C   UNL     1     -12.760 -28.373  -7.691  0.00  0.00    -0.033 A 
ATOM     28  C   UNL     1     -13.563 -28.365  -6.479  0.00  0.00    +0.005 A 
ATOM     29  C   UNL     1     -13.009 -28.714  -5.227  0.00  0.00    +0.013 A 
BRANCH  18  19
ATOM     19  C   UNL     1     -13.444 -27.956  -9.007  0.00  0.00    +0.119 C 
BRANCH  19  20
ATOM     20  N   UNL     1     -14.915 -28.190  -9.117  0.00  0.00    -0.302 NA
ATOM     21  C   UNL     1     -15.244 -29.663  -9.376  0.00  0.00    +0.066 C 
ATOM     22  C   UNL     1     -16.787 -29.895  -9.466  0.00  0.00    -0.064 C 
ATOM     23  N   UNL     1     -17.369 -29.008 -10.568  0.00  0.00    +0.379 N 
ATOM     24  C   UNL     1     -18.811 -29.266 -10.695  0.00  0.00    -0.096 C 
ATOM     25  H   UNL     1     -16.887 -29.304 -11.529  0.00  0.00    -0.082 HD
ATOM     26  C   UNL     1     -17.045 -27.542 -10.320  0.00  0.00    -0.064 C 
ATOM     27  C   UNL     1     -15.510 -27.328 -10.203  0.00  0.00    +0.066 C 
ENDBRANCH  19  20
ENDBRANCH  18  19
ENDBRANCH  14  15
ENDBRANCH  12  13
TORSDOF 6
ENDMDL
MODEL 3
REMARK VINA RESULT:      -7.3     10.179     14.805
REMARK  Name = C:\Users\Docking\Desktop\test protocol\1iep_ligandH.pdb
REMARK  8 active torsions:
REMARK  status: ('A' for Active; 'I' for Inactive)
REMARK    1  A    between atoms: _5  and  _11
REMARK    2  A    between atoms: _19  and  _21
REMARK    3  A    between atoms: _22  and  _66
REMARK    4  A    between atoms: _27  and  _30
REMARK    5  A    between atoms: _32  and  _33
REMARK    6  A    between atoms: _38  and  _43
REMARK    7  A    between atoms: _43  and  _46
REMARK    8  A    between atoms: _53  and  _55
REMARK                            x       y       z     vdW  Elec       q    Type
REMARK                         _______ _______ _______ _____ _____    ______ ____
ROOT
ATOM     10  C   UNL     1     -19.393 -28.935  -6.723  0.00  0.00    +0.038 A 
ATOM     11  C   UNL     1     -19.422 -28.261  -5.475  0.00  0.00    +0.047 A 
ATOM     12  C   UNL     1     -20.074 -28.851  -4.317  0.00  0.00    +0.035 A 
ATOM     32  C   UNL     1     -20.684 -30.131  -4.464  0.00  0.00    +0.024 A 
ATOM     33  C   UNL     1     -20.665 -30.829  -5.725  0.00  0.00    +0.007 A 
ATOM     34  C   UNL     1     -20.025 -30.251  -6.872  0.00  0.00    -0.029 A 
ATOM     35  C   UNL     1     -20.040 -31.042  -8.201  0.00  0.00    +0.045 C 
ENDROOT
BRANCH  10   9
ATOM      4  C   UNL     1     -15.473 -27.929  -9.304  0.00  0.00    +0.077 A 
ATOM      5  C   UNL     1     -14.624 -28.665  -8.412  0.00  0.00    +0.048 A 
ATOM      6  C   UNL     1     -15.235 -29.282  -7.297  0.00  0.00    +0.116 A 
ATOM      7  N   UNL     1     -16.593 -29.165  -7.099  0.00  0.00    -0.223 NA
ATOM      8  C   UNL     1     -17.383 -28.446  -7.978  0.00  0.00    +0.220 A 
ATOM      9  N   UNL     1     -18.752 -28.322  -7.802  0.00  0.00    -0.283 N 
ATOM     36  H   UNL     1     -19.299 -27.776  -8.469  0.00  0.00    +0.155 HD
ATOM     37  N   UNL     1     -16.824 -27.846  -9.049  0.00  0.00    -0.214 NA
BRANCH   4   3
ATOM      1  C   UNL     1     -15.335 -25.904 -12.648  0.00  0.00    +0.020 A 
ATOM      2  C   UNL     1     -15.865 -26.571 -11.481  0.00  0.00    +0.013 A 
ATOM      3  C   UNL     1     -14.977 -27.224 -10.528  0.00  0.00    +0.019 A 
ATOM     38  C   UNL     1     -13.545 -27.183 -10.787  0.00  0.00    +0.120 A 
ATOM     39  N   UNL     1     -13.064 -26.534 -11.919  0.00  0.00    -0.263 NA
ATOM     40  C   UNL     1     -13.909 -25.904 -12.844  0.00  0.00    +0.111 A 
ENDBRANCH   4   3
ENDBRANCH  10   9
BRANCH  12  13
ATOM     13  N   UNL     1     -20.143 -28.211  -3.027  0.00  0.00    -0.281 N 
ATOM     14  C   UNL     1     -19.247 -28.315  -1.975  0.00  0.00    +0.248 C 
ATOM     30  O   UNL     1     -18.355 -29.147  -1.907  0.00  0.00    -0.270 OA
ATOM     31  H   UNL     1     -20.951 -27.608  -2.869  0.00  0.00    +0.155 HD
BRANCH  14  15
ATOM     15  C   UNL     1     -19.368 -27.366  -0.827  0.00  0.00    +0.037 A 
ATOM     16  C   UNL     1     -18.806 -26.015  -0.895  0.00  0.00    +0.013 A 
ATOM     17  C   UNL     1     -18.922 -25.125   0.234  0.00  0.00    +0.005 A 
ATOM     18  C   UNL     1     -19.605 -25.585   1.440  0.00  0.00    -0.033 A 
ATOM     28  C   UNL     1     -20.158 -26.928   1.479  0.00  0.00    +0.005 A 
ATOM     29  C   UNL     1     -20.046 -27.803   0.375  0.00  0.00    +0.013 A 
BRANCH  18  19
ATOM     19  C   UNL     1     -19.757 -24.711   2.699  0.00  0.00    +0.119 C 
BRANCH  19  20
ATOM     20  N   UNL     1     -20.731 -23.581   2.634  0.00  0.00    -0.302 NA
ATOM     21  C   UNL     1     -21.152 -23.104   4.027  0.00  0.00    +0.066 C 
ATOM     22  C   UNL     1     -22.154 -21.907   3.940  0.00  0.00    -0.064 C 
ATOM     23  N   UNL     1     -23.374 -22.325   3.118  0.00  0.00    +0.379 N 
ATOM     24  C   UNL     1     -24.344 -21.221   3.083  0.00  0.00    -0.096 C 
ATOM     25  H   UNL     1     -23.857 -23.183   3.642  0.00  0.00    -0.082 HD
ATOM     26  C   UNL     1     -22.964 -22.803   1.733  0.00  0.00    -0.064 C 
ATOM     27  C   UNL     1     -21.946 -23.974   1.830  0.00  0.00    +0.066 C 
ENDBRANCH  19  20
ENDBRANCH  18  19
ENDBRANCH  14  15
ENDBRANCH  12  13
TORSDOF 6
ENDMDL
MODEL 4
REMARK VINA RESULT:      -7.3     10.149     11.592
REMARK  Name = C:\Users\Docking\Desktop\test protocol\1iep_ligandH.pdb
REMARK  8 active torsions:
REMARK  status: ('A' for Active; 'I' for Inactive)
REMARK    1  A    between atoms: _5  and  _11
REMARK    2  A    between atoms: _19  and  _21
REMARK    3  A    between atoms: _22  and  _66
REMARK    4  A    between atoms: _27  and  _30
REMARK    5  A    between atoms: _32  and  _33
REMARK    6  A    between atoms: _38  and  _43
REMARK    7  A    between atoms: _43  and  _46
REMARK    8  A    between atoms: _53  and  _55
REMARK                            x       y       z     vdW  Elec       q    Type
REMARK                         _______ _______ _______ _____ _____    ______ ____
ROOT
ATOM     10  C   UNL     1     -20.323 -28.538  -3.877  0.00  0.00    +0.038 A 
ATOM     11  C   UNL     1     -19.231 -28.163  -4.701  0.00  0.00    +0.047 A 
ATOM     12  C   UNL     1     -19.317 -28.255  -6.150  0.00  0.00    +0.035 A 
ATOM     32  C   UNL     1     -20.531 -28.730  -6.727  0.00  0.00    +0.024 A 
ATOM     33  C   UNL     1     -21.650 -29.115  -5.903  0.00  0.00    +0.007 A 
ATOM     34  C   UNL     1     -21.570 -29.029  -4.473  0.00  0.00    -0.029 A 
ATOM     35  C   UNL     1     -22.799 -29.462  -3.640  0.00  0.00    +0.045 C 
ENDROOT
BRANCH  10   9
ATOM      4  C   UNL     1     -19.139 -26.094   0.082  0.00  0.00    +0.077 A 
ATOM      5  C   UNL     1     -18.735 -24.946  -0.677  0.00  0.00    +0.048 A 
ATOM      6  C   UNL     1     -18.840 -25.027  -2.083  0.00  0.00    +0.116 A 
ATOM      7  N   UNL     1     -19.316 -26.176  -2.677  0.00  0.00    -0.223 NA
ATOM      8  C   UNL     1     -19.696 -27.266  -1.916  0.00  0.00    +0.220 A 
ATOM      9  N   UNL     1     -20.186 -28.429  -2.491  0.00  0.00    -0.283 N 
ATOM     36  H   UNL     1     -20.448 -29.214  -1.895  0.00  0.00    +0.155 HD
ATOM     37  N   UNL     1     -19.604 -27.214  -0.571  0.00  0.00    -0.214 NA
BRANCH   4   3
ATOM      1  C   UNL     1     -19.097 -25.096   3.864  0.00  0.00    +0.020 A 
ATOM      2  C   UNL     1     -19.148 -24.977   2.425  0.00  0.00    +0.013 A 
ATOM      3  C   UNL     1     -19.090 -26.161   1.577  0.00  0.00    +0.019 A 
ATOM     38  C   UNL     1     -18.981 -27.461   2.221  0.00  0.00    +0.120 A 
ATOM     39  N   UNL     1     -18.933 -27.545   3.609  0.00  0.00    -0.263 NA
ATOM     40  C   UNL     1     -18.986 -26.412   4.435  0.00  0.00    +0.111 A 
ENDBRANCH   4   3
ENDBRANCH  10   9
BRANCH  12  13
ATOM     13  N   UNL     1     -18.239 -27.897  -7.038  0.00  0.00    -0.281 N 
ATOM     14  C   UNL     1     -17.068 -28.596  -7.281  0.00  0.00    +0.248 C 
ATOM     30  O   UNL     1     -16.671 -29.536  -6.607  0.00  0.00    -0.270 OA
ATOM     31  H   UNL     1     -18.352 -27.022  -7.550  0.00  0.00    +0.155 HD
BRANCH  14  15
ATOM     15  C   UNL     1     -16.206 -28.184  -8.430  0.00  0.00    +0.037 A 
ATOM     16  C   UNL     1     -16.790 -27.708  -9.687  0.00  0.00    +0.013 A 
ATOM     17  C   UNL     1     -15.936 -27.333 -10.786  0.00  0.00    +0.005 A 
ATOM     18  C   UNL     1     -14.487 -27.431 -10.632  0.00  0.00    -0.033 A 
ATOM     28  C   UNL     1     -13.933 -27.901  -9.373  0.00  0.00    +0.005 A 
ATOM     29  C   UNL     1     -14.767 -28.271  -8.294  0.00  0.00    +0.013 A 
BRANCH  18  19
ATOM     19  C   UNL     1     -13.500 -27.071 -11.758  0.00  0.00    +0.119 C 
BRANCH  19  20
ATOM     20  N   UNL     1     -14.044 -26.324 -12.932  0.00  0.00    -0.302 NA
ATOM     21  C   UNL     1     -14.301 -27.243 -14.129  0.00  0.00    +0.066 C 
ATOM     22  C   UNL     1     -14.891 -26.449 -15.340  0.00  0.00    -0.064 C 
ATOM     23  N   UNL     1     -13.933 -25.319 -15.720  0.00  0.00    +0.379 N 
ATOM     24  C   UNL     1     -14.457 -24.606 -16.895  0.00  0.00    -0.096 C 
ATOM     25  H   UNL     1     -12.962 -25.782 -16.011  0.00  0.00    -0.082 HD
ATOM     26  C   UNL     1     -13.670 -24.402 -14.534  0.00  0.00    -0.064 C 
ATOM     27  C   UNL     1     -13.112 -25.206 -13.327  0.00  0.00    +0.066 C 
ENDBRANCH  19  20
ENDBRANCH  18  19
ENDBRANCH  14  15
ENDBRANCH  12  13
TORSDOF 6
ENDMDL
MODEL 5
REMARK VINA RESULT:      -7.3      2.315     13.046
REMARK  Name = C:\Users\Docking\Desktop\test protocol\1iep_ligandH.pdb
REMARK  8 active torsions:
REMARK  status: ('A' for Active; 'I' for Inactive)
REMARK    1  A    between atoms: _5  and  _11
REMARK    2  A    between atoms: _19  and  _21
REMARK    3  A    between atoms: _22  and  _66
REMARK    4  A    between atoms: _27  and  _30
REMARK    5  A    between atoms: _32  and  _33
REMARK    6  A    between atoms: _38  and  _43
REMARK    7  A    between atoms: _43  and  _46
REMARK    8  A    between atoms: _53  and  _55
REMARK                            x       y       z     vdW  Elec       q    Type
REMARK                         _______ _______ _______ _____ _____    ______ ____
ROOT
ATOM     10  C   UNL     1     -14.165 -28.778  -6.518  0.00  0.00    +0.038 A 
ATOM     11  C   UNL     1     -13.039 -28.749  -5.656  0.00  0.00    +0.047 A 
ATOM     12  C   UNL     1     -12.956 -29.623  -4.497  0.00  0.00    +0.035 A 
ATOM     32  C   UNL     1     -14.037 -30.517  -4.246  0.00  0.00    +0.024 A 
ATOM     33  C   UNL     1     -15.190 -30.559  -5.110  0.00  0.00    +0.007 A 
ATOM     34  C   UNL     1     -15.279 -29.698  -6.254  0.00  0.00    -0.029 A 
ATOM     35  C   UNL     1     -16.541 -29.782  -7.143  0.00  0.00    +0.045 C 
ENDROOT
BRANCH  10   9
ATOM      4  C   UNL     1     -13.453 -27.827 -11.168  0.00  0.00    +0.077 A 
ATOM      5  C   UNL     1     -12.959 -29.149 -11.424  0.00  0.00    +0.048 A 
ATOM      6  C   UNL     1     -12.898 -30.041 -10.330  0.00  0.00    +0.116 A 
ATOM      7  N   UNL     1     -13.303 -29.631  -9.079  0.00  0.00    -0.223 NA
ATOM      8  C   UNL     1     -13.773 -28.348  -8.866  0.00  0.00    +0.220 A 
ATOM      9  N   UNL     1     -14.193 -27.917  -7.617  0.00  0.00    -0.283 N 
ATOM     36  H   UNL     1     -14.526 -26.960  -7.500  0.00  0.00    +0.155 HD
ATOM     37  N   UNL     1     -13.840 -27.477  -9.894  0.00  0.00    -0.214 NA
BRANCH   4   3
ATOM      1  C   UNL     1     -12.769 -25.550 -14.275  0.00  0.00    +0.020 A 
ATOM      2  C   UNL     1     -12.598 -26.585 -13.281  0.00  0.00    +0.013 A 
ATOM      3  C   UNL     1     -13.582 -26.771 -12.222  0.00  0.00    +0.019 A 
ATOM     38  C   UNL     1     -14.737 -25.886 -12.196  0.00  0.00    +0.120 A 
ATOM     39  N   UNL     1     -14.874 -24.897 -13.166  0.00  0.00    -0.263 NA
ATOM     40  C   UNL     1     -13.933 -24.708 -14.189  0.00  0.00    +0.111 A 
ENDBRANCH   4   3
ENDBRANCH  10   9
BRANCH  12  13
ATOM     13  N   UNL     1     -11.841 -29.632  -3.582  0.00  0.00    -0.281 N 
ATOM     14  C   UNL     1     -10.593 -30.205  -3.765  0.00  0.00    +0.248 C 
ATOM     30  O   UNL     1     -10.317 -30.986  -4.664  0.00  0.00    -0.270 OA
ATOM     31  H   UNL     1     -11.990 -29.157  -2.691  0.00  0.00    +0.155 HD
BRANCH  14  15
ATOM     15  C   UNL     1      -9.498 -29.874  -2.803  0.00  0.00    +0.037 A 
ATOM     16  C   UNL     1      -8.726 -30.928  -2.140  0.00  0.00    +0.013 A 
ATOM     17  C   UNL     1      -7.686 -30.581  -1.203  0.00  0.00    +0.005 A 
ATOM     18  C   UNL     1      -7.412 -29.173  -0.926  0.00  0.00    -0.033 A 
ATOM     28  C   UNL     1      -8.190 -28.149  -1.602  0.00  0.00    +0.005 A 
ATOM     29  C   UNL     1      -9.211 -28.484  -2.520  0.00  0.00    +0.013 A 
BRANCH  18  19
ATOM     19  C   UNL     1      -6.336 -28.712   0.074  0.00  0.00    +0.119 C 
BRANCH  19  20
ATOM     20  N   UNL     1      -5.843 -27.308  -0.050  0.00  0.00    -0.302 NA
ATOM     21  C   UNL     1      -4.571 -27.218  -0.898  0.00  0.00    +0.066 C 
ATOM     22  C   UNL     1      -4.082 -25.740  -1.037  0.00  0.00    -0.064 C 
ATOM     23  N   UNL     1      -3.849 -25.150   0.355  0.00  0.00    +0.379 N 
ATOM     24  C   UNL     1      -3.334 -23.779   0.227  0.00  0.00    -0.096 C 
ATOM     25  H   UNL     1      -3.061 -25.762   0.854  0.00  0.00    -0.082 HD
ATOM     26  C   UNL     1      -5.108 -25.237   1.206  0.00  0.00    -0.064 C 
ATOM     27  C   UNL     1      -5.602 -26.707   1.313  0.00  0.00    +0.066 C 
ENDBRANCH  19  20
ENDBRANCH  18  19
ENDBRANCH  14  15
ENDBRANCH  12  13
TORSDOF 6
ENDMDL
