MODEL 1
REMARK VINA RESULT:      -7.0      0.000      0.000
REMARK  Name = C:\Users\Docking\Desktop\test protocol\1iep_ligandH.pdb
REMARK  8 active torsions:
REMARK  status: ('A' for Active; 'I' for Inactive)
REMARK    1  A    between atoms: _5  and  _11
REMARK    2  A    between atoms: _19  and  _21
REMARK    3  A    between atoms: _22  and  _66
REMARK    4  A    between atoms: _27  and  _30
REMARK    5  A    between atoms: _32  and  _33
REMARK    6  A    between atoms: _38  and  _43
REMARK    7  A    between atoms: _43  and  _46
REMARK    8  A    between atoms: _53  and  _55
REMARK                            x       y       z     vdW  Elec       q    Type
REMARK                         _______ _______ _______ _____ _____    ______ ____
ROOT
ATOM     10  C   UNL     1     -14.110   2.606 -21.211  0.00  0.00    +0.038 A 
ATOM     11  C   UNL     1     -14.509   1.456 -20.484  0.00  0.00    +0.047 A 
ATOM     12  C   UNL     1     -15.572   0.589 -20.969  0.00  0.00    +0.035 A 
ATOM     32  C   UNL     1     -16.206   0.923 -22.201  0.00  0.00    +0.024 A 
ATOM     33  C   UNL     1     -15.814   2.089 -22.953  0.00  0.00    +0.007 A 
ATOM     34  C   UNL     1     -14.768   2.949 -22.478  0.00  0.00    -0.029 A 
ATOM     35  C   UNL     1     -14.393   4.189 -23.323  0.00  0.00    +0.045 C 
ENDROOT
BRANCH  10   9
ATOM      4  C   UNL     1      -9.468   3.712 -20.692  0.00  0.00    +0.077 A 
ATOM      5  C   UNL     1      -9.052   2.592 -21.487  0.00  0.00    +0.048 A 
ATOM      6  C   UNL     1     -10.063   1.752 -22.005  0.00  0.00    +0.116 A 
ATOM      7  N   UNL     1     -11.389   2.021 -21.742  0.00  0.00    -0.223 NA
ATOM      8  C   UNL     1     -11.756   3.108 -20.970  0.00  0.00    +0.220 A 
ATOM      9  N   UNL     1     -13.084   3.402 -20.699  0.00  0.00    -0.283 N 
ATOM     36  H   UNL     1     -13.313   4.209 -20.119  0.00  0.00    +0.155 HD
ATOM     37  N   UNL     1     -10.809   3.925 -20.462  0.00  0.00    -0.214 NA
BRANCH   4   3
ATOM      1  C   UNL     1      -6.341   5.293 -18.954  0.00  0.00    +0.020 A 
ATOM      2  C   UNL     1      -7.221   4.306 -19.537  0.00  0.00    +0.013 A 
ATOM      3  C   UNL     1      -8.518   4.692 -20.078  0.00  0.00    +0.019 A 
ATOM     38  C   UNL     1      -8.897   6.096 -20.015  0.00  0.00    +0.120 A 
ATOM     39  N   UNL     1      -8.029   7.023 -19.447  0.00  0.00    -0.263 NA
ATOM     40  C   UNL     1      -6.779   6.663 -18.921  0.00  0.00    +0.111 A 
ENDBRANCH   4   3
ENDBRANCH  10   9
BRANCH  12  13
ATOM     13  N   UNL     1     -16.026  -0.587 -20.269  0.00  0.00    -0.281 N 
ATOM     14  C   UNL     1     -15.461  -1.852 -20.276  0.00  0.00    +0.248 C 
ATOM     30  O   UNL     1     -14.598  -2.220 -21.059  0.00  0.00    -0.270 OA
ATOM     31  H   UNL     1     -16.864  -0.473 -19.700  0.00  0.00    +0.155 HD
BRANCH  14  15
ATOM     15  C   UNL     1     -15.935  -2.859 -19.278  0.00  0.00    +0.037 A 
ATOM     16  C   UNL     1     -15.010  -3.477 -18.325  0.00  0.00    +0.013 A 
ATOM     17  C   UNL     1     -15.490  -4.458 -17.384  0.00  0.00    +0.005 A 
ATOM     18  C   UNL     1     -16.903  -4.827 -17.392  0.00  0.00    -0.033 A 
ATOM     28  C   UNL     1     -17.800  -4.195 -18.346  0.00  0.00    +0.005 A 
ATOM     29  C   UNL     1     -17.333  -3.234 -19.270  0.00  0.00    +0.013 A 
BRANCH  18  19
ATOM     19  C   UNL     1     -17.498  -5.880 -16.439  0.00  0.00    +0.119 C 
BRANCH  19  20
ATOM     20  N   UNL     1     -17.810  -7.223 -17.013  0.00  0.00    -0.302 NA
ATOM     21  C   UNL     1     -18.177  -8.240 -15.928  0.00  0.00    +0.066 C 
ATOM     22  C   UNL     1     -18.523  -9.634 -16.547  0.00  0.00    -0.064 C 
ATOM     23  N   UNL     1     -17.336 -10.129 -17.375  0.00  0.00    +0.379 N 
ATOM     24  C   UNL     1     -17.635 -11.465 -17.911  0.00  0.00    -0.096 C 
ATOM     25  H   UNL     1     -16.463 -10.228 -16.688  0.00  0.00    -0.082 HD
ATOM     26  C   UNL     1     -16.962  -9.123 -18.454  0.00  0.00    -0.064 C 
ATOM     27  C   UNL     1     -16.650  -7.734 -17.830  0.00  0.00    +0.066 C 
ENDBRANCH  19  20
ENDBRANCH  18  19
ENDBRANCH  14  15
ENDBRANCH  12  13
TORSDOF 6
ENDMDL
MODEL 2
REMARK VINA RESULT:      -6.9      1.829      2.516
REMARK  Name = C:\Users\Docking\Desktop\test protocol\1iep_ligandH.pdb
REMARK  8 active torsions:
REMARK  status: ('A' for Active; 'I' for Inactive)
REMARK    1  A    between atoms: _5  and  _11
REMARK    2  A    between atoms: _19  and  _21
REMARK    3  A    between atoms: _22  and  _66
REMARK    4  A    between atoms: _27  and  _30
REMARK    5  A    between atoms: _32  and  _33
REMARK    6  A    between atoms: _38  and  _43
REMARK    7  A    between atoms: _43  and  _46
REMARK    8  A    between atoms: _53  and  _55
REMARK                            x       y       z     vdW  Elec       q    Type
REMARK                         _______ _______ _______ _____ _____    ______ ____
ROOT
ATOM     10  C   UNL     1     -15.184   1.719 -20.797  0.00  0.00    +0.038 A 
ATOM     11  C   UNL     1     -15.390   0.457 -20.183  0.00  0.00    +0.047 A 
ATOM     12  C   UNL     1     -16.511  -0.390 -20.559  0.00  0.00    +0.035 A 
ATOM     32  C   UNL     1     -17.403   0.079 -21.567  0.00  0.00    +0.024 A 
ATOM     33  C   UNL     1     -17.210   1.359 -22.202  0.00  0.00    +0.007 A 
ATOM     34  C   UNL     1     -16.107   2.200 -21.833  0.00  0.00    -0.029 A 
ATOM     35  C   UNL     1     -15.952   3.566 -22.541  0.00  0.00    +0.045 C 
ENDROOT
BRANCH  10   9
ATOM      4  C   UNL     1     -10.563   2.982 -21.085  0.00  0.00    +0.077 A 
ATOM      5  C   UNL     1     -10.297   2.002 -22.099  0.00  0.00    +0.048 A 
ATOM      6  C   UNL     1     -11.375   1.189 -22.514  0.00  0.00    +0.116 A 
ATOM      7  N   UNL     1     -12.622   1.351 -21.950  0.00  0.00    -0.223 NA
ATOM      8  C   UNL     1     -12.844   2.304 -20.973  0.00  0.00    +0.220 A 
ATOM      9  N   UNL     1     -14.091   2.491 -20.397  0.00  0.00    -0.283 N 
ATOM     36  H   UNL     1     -14.212   3.199 -19.674  0.00  0.00    +0.155 HD
ATOM     37  N   UNL     1     -11.830   3.093 -20.558  0.00  0.00    -0.214 NA
BRANCH   4   3
ATOM      1  C   UNL     1      -7.300   4.408 -19.466  0.00  0.00    +0.020 A 
ATOM      2  C   UNL     1      -8.266   3.461 -19.974  0.00  0.00    +0.013 A 
ATOM      3  C   UNL     1      -9.527   3.918 -20.545  0.00  0.00    +0.019 A 
ATOM     38  C   UNL     1      -9.781   5.350 -20.588  0.00  0.00    +0.120 A 
ATOM     39  N   UNL     1      -8.832   6.238 -20.090  0.00  0.00    -0.263 NA
ATOM     40  C   UNL     1      -7.616   5.810 -19.537  0.00  0.00    +0.111 A 
ENDBRANCH   4   3
ENDBRANCH  10   9
BRANCH  12  13
ATOM     13  N   UNL     1     -16.774  -1.677 -19.964  0.00  0.00    -0.281 N 
ATOM     14  C   UNL     1     -15.863  -2.668 -19.641  0.00  0.00    +0.248 C 
ATOM     30  O   UNL     1     -14.698  -2.684 -20.012  0.00  0.00    -0.270 OA
ATOM     31  H   UNL     1     -17.752  -1.882 -19.757  0.00  0.00    +0.155 HD
BRANCH  14  15
ATOM     15  C   UNL     1     -16.313  -3.815 -18.794  0.00  0.00    +0.037 A 
ATOM     16  C   UNL     1     -16.051  -3.844 -17.353  0.00  0.00    +0.013 A 
ATOM     17  C   UNL     1     -16.481  -4.970 -16.563  0.00  0.00    +0.005 A 
ATOM     18  C   UNL     1     -17.180  -6.077 -17.213  0.00  0.00    -0.033 A 
ATOM     28  C   UNL     1     -17.431  -6.019 -18.643  0.00  0.00    +0.005 A 
ATOM     29  C   UNL     1     -17.010  -4.917 -19.421  0.00  0.00    +0.013 A 
BRANCH  18  19
ATOM     19  C   UNL     1     -17.656  -7.328 -16.451  0.00  0.00    +0.119 C 
BRANCH  19  20
ATOM     20  N   UNL     1     -18.678  -7.129 -15.380  0.00  0.00    -0.302 NA
ATOM     21  C   UNL     1     -19.263  -8.456 -14.891  0.00  0.00    +0.066 C 
ATOM     22  C   UNL     1     -20.313  -8.231 -13.755  0.00  0.00    -0.064 C 
ATOM     23  N   UNL     1     -21.420  -7.306 -14.263  0.00  0.00    +0.379 N 
ATOM     24  C   UNL     1     -22.439  -7.139 -13.217  0.00  0.00    -0.096 C 
ATOM     25  H   UNL     1     -21.907  -7.807 -15.132  0.00  0.00    -0.082 HD
ATOM     26  C   UNL     1     -20.847  -5.984 -14.754  0.00  0.00    -0.064 C 
ATOM     27  C   UNL     1     -19.783  -6.221 -15.863  0.00  0.00    +0.066 C 
ENDBRANCH  19  20
ENDBRANCH  18  19
ENDBRANCH  14  15
ENDBRANCH  12  13
TORSDOF 6
ENDMDL
MODEL 3
REMARK VINA RESULT:      -6.9      2.148     12.851
REMARK  Name = C:\Users\Docking\Desktop\test protocol\1iep_ligandH.pdb
REMARK  8 active torsions:
REMARK  status: ('A' for Active; 'I' for Inactive)
REMARK    1  A    between atoms: _5  and  _11
REMARK    2  A    between atoms: _19  and  _21
REMARK    3  A    between atoms: _22  and  _66
REMARK    4  A    between atoms: _27  and  _30
REMARK    5  A    between atoms: _32  and  _33
REMARK    6  A    between atoms: _38  and  _43
REMARK    7  A    between atoms: _43  and  _46
REMARK    8  A    between atoms: _53  and  _55
REMARK                            x       y       z     vdW  Elec       q    Type
REMARK                         _______ _______ _______ _____ _____    ______ ____
ROOT
ATOM     10  C   UNL     1     -15.725   0.515 -20.718  0.00  0.00    +0.038 A 
ATOM     11  C   UNL     1     -14.606   1.270 -20.281  0.00  0.00    +0.047 A 
ATOM     12  C   UNL     1     -14.126   2.413 -21.042  0.00  0.00    +0.035 A 
ATOM     32  C   UNL     1     -14.812   2.760 -22.243  0.00  0.00    +0.024 A 
ATOM     33  C   UNL     1     -15.949   2.003 -22.702  0.00  0.00    +0.007 A 
ATOM     34  C   UNL     1     -16.426   0.873 -21.956  0.00  0.00    -0.029 A 
ATOM     35  C   UNL     1     -17.646   0.094 -22.499  0.00  0.00    +0.045 C 
ENDROOT
BRANCH  10   9
ATOM      4  C   UNL     1     -15.627  -4.144 -19.569  0.00  0.00    +0.077 A 
ATOM      5  C   UNL     1     -14.683  -4.441 -20.607  0.00  0.00    +0.048 A 
ATOM      6  C   UNL     1     -14.253  -3.368 -21.420  0.00  0.00    +0.116 A 
ATOM      7  N   UNL     1     -14.738  -2.097 -21.201  0.00  0.00    -0.223 NA
ATOM      8  C   UNL     1     -15.649  -1.845 -20.191  0.00  0.00    +0.220 A 
ATOM      9  N   UNL     1     -16.143  -0.573 -19.948  0.00  0.00    -0.283 N 
ATOM     36  H   UNL     1     -16.819  -0.430 -19.198  0.00  0.00    +0.155 HD
ATOM     37  N   UNL     1     -16.076  -2.853 -19.402  0.00  0.00    -0.214 NA
BRANCH   4   3
ATOM      1  C   UNL     1     -17.391  -5.854 -16.524  0.00  0.00    +0.020 A 
ATOM      2  C   UNL     1     -16.883  -4.824 -17.401  0.00  0.00    +0.013 A 
ATOM      3  C   UNL     1     -16.173  -5.171 -18.625  0.00  0.00    +0.019 A 
ATOM     38  C   UNL     1     -15.993  -6.581 -18.937  0.00  0.00    +0.120 A 
ATOM     39  N   UNL     1     -16.492  -7.551 -18.073  0.00  0.00    -0.263 NA
ATOM     40  C   UNL     1     -17.175  -7.229 -16.891  0.00  0.00    +0.111 A 
ENDBRANCH   4   3
ENDBRANCH  10   9
BRANCH  12  13
ATOM     13  N   UNL     1     -12.991   3.212 -20.653  0.00  0.00    -0.281 N 
ATOM     14  C   UNL     1     -11.654   2.986 -20.935  0.00  0.00    +0.248 C 
ATOM     30  O   UNL     1     -11.210   1.942 -21.388  0.00  0.00    -0.270 OA
ATOM     31  H   UNL     1     -13.198   4.044 -20.101  0.00  0.00    +0.155 HD
BRANCH  14  15
ATOM     15  C   UNL     1     -10.665   4.073 -20.662  0.00  0.00    +0.037 A 
ATOM     16  C   UNL     1      -9.263   3.768 -20.366  0.00  0.00    +0.013 A 
ATOM     17  C   UNL     1      -8.334   4.835 -20.089  0.00  0.00    +0.005 A 
ATOM     18  C   UNL     1      -8.804   6.218 -20.110  0.00  0.00    -0.033 A 
ATOM     28  C   UNL     1     -10.199   6.492 -20.412  0.00  0.00    +0.005 A 
ATOM     29  C   UNL     1     -11.113   5.449 -20.683  0.00  0.00    +0.013 A 
BRANCH  18  19
ATOM     19  C   UNL     1      -7.887   7.418 -19.806  0.00  0.00    +0.119 C 
BRANCH  19  20
ATOM     20  N   UNL     1      -7.872   7.929 -18.403  0.00  0.00    -0.302 NA
ATOM     21  C   UNL     1      -8.693   9.212 -18.250  0.00  0.00    +0.066 C 
ATOM     22  C   UNL     1      -8.685   9.720 -16.772  0.00  0.00    -0.064 C 
ATOM     23  N   UNL     1      -7.241   9.944 -16.320  0.00  0.00    +0.379 N 
ATOM     24  C   UNL     1      -7.232  10.477 -14.950  0.00  0.00    -0.096 C 
ATOM     25  H   UNL     1      -6.795  10.718 -16.987  0.00  0.00    -0.082 HD
ATOM     26  C   UNL     1      -6.417   8.674 -16.472  0.00  0.00    -0.064 C 
ATOM     27  C   UNL     1      -6.455   8.161 -17.938  0.00  0.00    +0.066 C 
ENDBRANCH  19  20
ENDBRANCH  18  19
ENDBRANCH  14  15
ENDBRANCH  12  13
TORSDOF 6
ENDMDL
MODEL 4
REMARK VINA RESULT:      -6.7      1.982      2.961
REMARK  Name = C:\Users\Docking\Desktop\test protocol\1iep_ligandH.pdb
REMARK  8 active torsions:
REMARK  status: ('A' for Active; 'I' for Inactive)
REMARK    1  A    between atoms: _5  and  _11
REMARK    2  A    between atoms: _19  and  _21
REMARK    3  A    between atoms: _22  and  _66
REMARK    4  A    between atoms: _27  and  _30
REMARK    5  A    between atoms: _32  and  _33
REMARK    6  A    between atoms: _38  and  _43
REMARK    7  A    between atoms: _43  and  _46
REMARK    8  A    between atoms: _53  and  _55
REMARK                            x       y       z     vdW  Elec       q    Type
REMARK                         _______ _______ _______ _____ _____    ______ ____
ROOT
ATOM     10  C   UNL     1     -15.355   1.355 -20.472  0.00  0.00    +0.038 A 
ATOM     11  C   UNL     1     -15.454   0.032 -19.970  0.00  0.00    +0.047 A 
ATOM     12  C   UNL     1     -16.591  -0.814 -20.298  0.00  0.00    +0.035 A 
ATOM     32  C   UNL     1     -17.608  -0.281 -21.142  0.00  0.00    +0.024 A 
ATOM     33  C   UNL     1     -17.524   1.062 -21.660  0.00  0.00    +0.007 A 
ATOM     34  C   UNL     1     -16.406   1.902 -21.339  0.00  0.00    -0.029 A 
ATOM     35  C   UNL     1     -16.372   3.335 -21.917  0.00  0.00    +0.045 C 
ENDROOT
BRANCH  10   9
ATOM      4  C   UNL     1     -10.797   2.724 -21.097  0.00  0.00    +0.077 A 
ATOM      5  C   UNL     1     -10.611   1.811 -22.189  0.00  0.00    +0.048 A 
ATOM      6  C   UNL     1     -11.710   1.003 -22.554  0.00  0.00    +0.116 A 
ATOM      7  N   UNL     1     -12.903   1.107 -21.871  0.00  0.00    -0.223 NA
ATOM      8  C   UNL     1     -13.048   1.996 -20.822  0.00  0.00    +0.220 A 
ATOM      9  N   UNL     1     -14.241   2.123 -20.126  0.00  0.00    -0.283 N 
ATOM     36  H   UNL     1     -14.306   2.785 -19.353  0.00  0.00    +0.155 HD
ATOM     37  N   UNL     1     -12.013   2.778 -20.453  0.00  0.00    -0.214 NA
BRANCH   4   3
ATOM      1  C   UNL     1      -8.744   5.942 -20.242  0.00  0.00    +0.020 A 
ATOM      2  C   UNL     1      -9.802   5.095 -20.745  0.00  0.00    +0.013 A 
ATOM      3  C   UNL     1      -9.730   3.647 -20.596  0.00  0.00    +0.019 A 
ATOM     38  C   UNL     1      -8.566   3.083 -19.929  0.00  0.00    +0.120 A 
ATOM     39  N   UNL     1      -7.563   3.923 -19.457  0.00  0.00    -0.263 NA
ATOM     40  C   UNL     1      -7.620   5.318 -19.595  0.00  0.00    +0.111 A 
ENDBRANCH   4   3
ENDBRANCH  10   9
BRANCH  12  13
ATOM     13  N   UNL     1     -16.749  -2.162 -19.811  0.00  0.00    -0.281 N 
ATOM     14  C   UNL     1     -15.818  -2.942 -19.146  0.00  0.00    +0.248 C 
ATOM     30  O   UNL     1     -14.629  -2.674 -19.056  0.00  0.00    -0.270 OA
ATOM     31  H   UNL     1     -17.659  -2.593 -19.977  0.00  0.00    +0.155 HD
BRANCH  14  15
ATOM     15  C   UNL     1     -16.270  -4.211 -18.498  0.00  0.00    +0.037 A 
ATOM     16  C   UNL     1     -16.602  -5.395 -19.296  0.00  0.00    +0.013 A 
ATOM     17  C   UNL     1     -17.052  -6.601 -18.648  0.00  0.00    +0.005 A 
ATOM     18  C   UNL     1     -17.171  -6.630 -17.192  0.00  0.00    -0.033 A 
ATOM     28  C   UNL     1     -16.829  -5.443 -16.425  0.00  0.00    +0.005 A 
ATOM     29  C   UNL     1     -16.389  -4.259 -17.057  0.00  0.00    +0.013 A 
BRANCH  18  19
ATOM     19  C   UNL     1     -17.662  -7.867 -16.417  0.00  0.00    +0.119 C 
BRANCH  19  20
ATOM     20  N   UNL     1     -19.080  -7.860 -15.947  0.00  0.00    -0.302 NA
ATOM     21  C   UNL     1     -19.915  -6.789 -16.654  0.00  0.00    +0.066 C 
ATOM     22  C   UNL     1     -21.400  -6.811 -16.167  0.00  0.00    -0.064 C 
ATOM     23  N   UNL     1     -21.439  -6.614 -14.650  0.00  0.00    +0.379 N 
ATOM     24  C   UNL     1     -22.837  -6.576 -14.196  0.00  0.00    -0.096 C 
ATOM     25  H   UNL     1     -20.983  -5.621 -14.427  0.00  0.00    -0.082 HD
ATOM     26  C   UNL     1     -20.609  -7.673 -13.939  0.00  0.00    -0.064 C 
ATOM     27  C   UNL     1     -19.142  -7.662 -14.452  0.00  0.00    +0.066 C 
ENDBRANCH  19  20
ENDBRANCH  18  19
ENDBRANCH  14  15
ENDBRANCH  12  13
TORSDOF 6
ENDMDL
MODEL 5
REMARK VINA RESULT:      -6.7      7.044     11.615
REMARK  Name = C:\Users\Docking\Desktop\test protocol\1iep_ligandH.pdb
REMARK  8 active torsions:
REMARK  status: ('A' for Active; 'I' for Inactive)
REMARK    1  A    between atoms: _5  and  _11
REMARK    2  A    between atoms: _19  and  _21
REMARK    3  A    between atoms: _22  and  _66
REMARK    4  A    between atoms: _27  and  _30
REMARK    5  A    between atoms: _32  and  _33
REMARK    6  A    between atoms: _38  and  _43
REMARK    7  A    between atoms: _43  and  _46
REMARK    8  A    between atoms: _53  and  _55
REMARK                            x       y       z     vdW  Elec       q    Type
REMARK                         _______ _______ _______ _____ _____    ______ ____
ROOT
ATOM     10  C   UNL     1     -18.188  -7.036 -16.991  0.00  0.00    +0.038 A 
ATOM     11  C   UNL     1     -19.083  -5.991 -16.646  0.00  0.00    +0.047 A 
ATOM     12  C   UNL     1     -19.910  -6.072 -15.452  0.00  0.00    +0.035 A 
ATOM     32  C   UNL     1     -19.799  -7.232 -14.631  0.00  0.00    +0.024 A 
ATOM     33  C   UNL     1     -18.895  -8.304 -14.967  0.00  0.00    +0.007 A 
ATOM     34  C   UNL     1     -18.079  -8.230 -16.145  0.00  0.00    -0.029 A 
ATOM     35  C   UNL     1     -17.132  -9.412 -16.460  0.00  0.00    +0.045 C 
ENDROOT
BRANCH  10   9
ATOM      4  C   UNL     1     -14.675  -4.971 -19.526  0.00  0.00    +0.077 A 
ATOM      5  C   UNL     1     -14.366  -4.056 -18.465  0.00  0.00    +0.048 A 
ATOM      6  C   UNL     1     -15.140  -4.146 -17.286  0.00  0.00    +0.116 A 
ATOM      7  N   UNL     1     -16.144  -5.083 -17.187  0.00  0.00    -0.223 NA
ATOM      8  C   UNL     1     -16.417  -5.949 -18.230  0.00  0.00    +0.220 A 
ATOM      9  N   UNL     1     -17.418  -6.906 -18.149  0.00  0.00    -0.283 N 
ATOM     36  H   UNL     1     -17.593  -7.521 -18.943  0.00  0.00    +0.155 HD
ATOM     37  N   UNL     1     -15.694  -5.883 -19.367  0.00  0.00    -0.214 NA
BRANCH   4   3
ATOM      1  C   UNL     1     -12.873  -3.883 -22.824  0.00  0.00    +0.020 A 
ATOM      2  C   UNL     1     -13.579  -3.797 -21.566  0.00  0.00    +0.013 A 
ATOM      3  C   UNL     1     -13.944  -5.003 -20.833  0.00  0.00    +0.019 A 
ATOM     38  C   UNL     1     -13.577  -6.290 -21.404  0.00  0.00    +0.120 A 
ATOM     39  N   UNL     1     -12.899  -6.342 -22.618  0.00  0.00    -0.263 NA
ATOM     40  C   UNL     1     -12.544  -5.188 -23.333  0.00  0.00    +0.111 A 
ENDBRANCH   4   3
ENDBRANCH  10   9
BRANCH  12  13
ATOM     13  N   UNL     1     -20.843  -5.046 -15.056  0.00  0.00    -0.281 N 
ATOM     14  C   UNL     1     -22.226  -5.080 -15.123  0.00  0.00    +0.248 C 
ATOM     30  O   UNL     1     -22.868  -5.920 -15.736  0.00  0.00    -0.270 OA
ATOM     31  H   UNL     1     -20.433  -4.191 -14.680  0.00  0.00    +0.155 HD
BRANCH  14  15
ATOM     15  C   UNL     1     -23.009  -4.020 -14.419  0.00  0.00    +0.037 A 
ATOM     16  C   UNL     1     -23.796  -3.034 -15.165  0.00  0.00    +0.013 A 
ATOM     17  C   UNL     1     -24.529  -2.012 -14.461  0.00  0.00    +0.005 A 
ATOM     18  C   UNL     1     -24.479  -1.971 -13.002  0.00  0.00    -0.033 A 
ATOM     28  C   UNL     1     -23.696  -2.964 -12.287  0.00  0.00    +0.005 A 
ATOM     29  C   UNL     1     -22.975  -3.967 -12.973  0.00  0.00    +0.013 A 
BRANCH  18  19
ATOM     19  C   UNL     1     -25.213  -0.902 -12.170  0.00  0.00    +0.119 C 
BRANCH  19  20
ATOM     20  N   UNL     1     -24.382   0.175 -11.555  0.00  0.00    -0.302 NA
ATOM     21  C   UNL     1     -25.238   1.324 -11.015  0.00  0.00    +0.066 C 
ATOM     22  C   UNL     1     -24.354   2.432 -10.355  0.00  0.00    -0.064 C 
ATOM     23  N   UNL     1     -23.340   2.947 -11.378  0.00  0.00    +0.379 N 
ATOM     24  C   UNL     1     -22.546   4.029 -10.778  0.00  0.00    -0.096 C 
ATOM     25  H   UNL     1     -23.911   3.380 -12.232  0.00  0.00    -0.082 HD
ATOM     26  C   UNL     1     -22.486   1.811 -11.922  0.00  0.00    -0.064 C 
ATOM     27  C   UNL     1     -23.376   0.702 -12.549  0.00  0.00    +0.066 C 
ENDBRANCH  19  20
ENDBRANCH  18  19
ENDBRANCH  14  15
ENDBRANCH  12  13
TORSDOF 6
ENDMDL
