MODEL 1
REMARK VINA RESULT:      -9.1      0.000      0.000
REMARK  Name = C:\Users\Docking\Desktop\test protocol\1iep_ligandH.pdb
REMARK  8 active torsions:
REMARK  status: ('A' for Active; 'I' for Inactive)
REMARK    1  A    between atoms: _5  and  _11
REMARK    2  A    between atoms: _19  and  _21
REMARK    3  A    between atoms: _22  and  _66
REMARK    4  A    between atoms: _27  and  _30
REMARK    5  A    between atoms: _32  and  _33
REMARK    6  A    between atoms: _38  and  _43
REMARK    7  A    between atoms: _43  and  _46
REMARK    8  A    between atoms: _53  and  _55
REMARK                            x       y       z     vdW  Elec       q    Type
REMARK                         _______ _______ _______ _____ _____    ______ ____
ROOT
ATOM     10  C   UNL     1      22.335  -2.555  24.600  0.00  0.00    +0.038 A 
ATOM     11  C   UNL     1      21.942  -1.854  23.431  0.00  0.00    +0.047 A 
ATOM     12  C   UNL     1      22.836  -1.733  22.290  0.00  0.00    +0.035 A 
ATOM     32  C   UNL     1      24.122  -2.342  22.372  0.00  0.00    +0.024 A 
ATOM     33  C   UNL     1      24.539  -3.057  23.552  0.00  0.00    +0.007 A 
ATOM     34  C   UNL     1      23.662  -3.177  24.682  0.00  0.00    -0.029 A 
ATOM     35  C   UNL     1      24.164  -3.950  25.924  0.00  0.00    +0.045 C 
ENDROOT
BRANCH  10   9
ATOM      4  C   UNL     1      17.987  -3.484  26.408  0.00  0.00    +0.077 A 
ATOM      5  C   UNL     1      17.452  -3.800  25.115  0.00  0.00    +0.048 A 
ATOM      6  C   UNL     1      18.327  -3.705  24.010  0.00  0.00    +0.116 A 
ATOM      7  N   UNL     1      19.638  -3.321  24.195  0.00  0.00    -0.223 NA
ATOM      8  C   UNL     1      20.121  -3.021  25.456  0.00  0.00    +0.220 A 
ATOM      9  N   UNL     1      21.437  -2.640  25.666  0.00  0.00    -0.283 N 
ATOM     36  H   UNL     1      21.754  -2.420  26.610  0.00  0.00    +0.155 HD
ATOM     37  N   UNL     1      19.305  -3.103  26.527  0.00  0.00    -0.214 NA
BRANCH   4   3
ATOM      1  C   UNL     1      15.301  -4.435  29.087  0.00  0.00    +0.020 A 
ATOM      2  C   UNL     1      16.038  -4.418  27.845  0.00  0.00    +0.013 A 
ATOM      3  C   UNL     1      17.189  -3.540  27.673  0.00  0.00    +0.019 A 
ATOM     38  C   UNL     1      17.571  -2.686  28.787  0.00  0.00    +0.120 A 
ATOM     39  N   UNL     1      16.841  -2.723  29.971  0.00  0.00    -0.263 NA
ATOM     40  C   UNL     1      15.731  -3.562  30.148  0.00  0.00    +0.111 A 
ENDBRANCH   4   3
ENDBRANCH  10   9
BRANCH  12  13
ATOM     13  N   UNL     1      22.495  -1.027  21.080  0.00  0.00    -0.281 N 
ATOM     14  C   UNL     1      22.006  -1.553  19.896  0.00  0.00    +0.248 C 
ATOM     30  O   UNL     1      21.989  -2.745  19.624  0.00  0.00    -0.270 OA
ATOM     31  H   UNL     1      22.630  -0.016  21.099  0.00  0.00    +0.155 HD
BRANCH  14  15
ATOM     15  C   UNL     1      21.472  -0.621  18.857  0.00  0.00    +0.037 A 
ATOM     16  C   UNL     1      21.492   0.831  19.057  0.00  0.00    +0.013 A 
ATOM     17  C   UNL     1      20.954   1.707  18.046  0.00  0.00    +0.005 A 
ATOM     18  C   UNL     1      20.393   1.134  16.826  0.00  0.00    -0.033 A 
ATOM     28  C   UNL     1      20.391  -0.309  16.651  0.00  0.00    +0.005 A 
ATOM     29  C   UNL     1      20.916  -1.172  17.640  0.00  0.00    +0.013 A 
BRANCH  18  19
ATOM     19  C   UNL     1      19.779   1.992  15.704  0.00  0.00    +0.119 C 
BRANCH  19  20
ATOM     20  N   UNL     1      18.775   1.337  14.813  0.00  0.00    -0.302 NA
ATOM     21  C   UNL     1      19.267   1.240  13.366  0.00  0.00    +0.066 C 
ATOM     22  C   UNL     1      18.214   0.532  12.453  0.00  0.00    -0.064 C 
ATOM     23  N   UNL     1      16.888   1.292  12.525  0.00  0.00    +0.379 N 
ATOM     24  C   UNL     1      15.913   0.662  11.623  0.00  0.00    -0.096 C 
ATOM     25  H   UNL     1      17.072   2.327  12.156  0.00  0.00    -0.082 HD
ATOM     26  C   UNL     1      16.393   1.395  13.961  0.00  0.00    -0.064 C 
ATOM     27  C   UNL     1      17.459   2.073  14.866  0.00  0.00    +0.066 C 
ENDBRANCH  19  20
ENDBRANCH  18  19
ENDBRANCH  14  15
ENDBRANCH  12  13
TORSDOF 6
ENDMDL
MODEL 2
REMARK VINA RESULT:      -8.9      1.783      2.368
REMARK  Name = C:\Users\Docking\Desktop\test protocol\1iep_ligandH.pdb
REMARK  8 active torsions:
REMARK  status: ('A' for Active; 'I' for Inactive)
REMARK    1  A    between atoms: _5  and  _11
REMARK    2  A    between atoms: _19  and  _21
REMARK    3  A    between atoms: _22  and  _66
REMARK    4  A    between atoms: _27  and  _30
REMARK    5  A    between atoms: _32  and  _33
REMARK    6  A    between atoms: _38  and  _43
REMARK    7  A    between atoms: _43  and  _46
REMARK    8  A    between atoms: _53  and  _55
REMARK                            x       y       z     vdW  Elec       q    Type
REMARK                         _______ _______ _______ _____ _____    ______ ____
ROOT
ATOM     10  C   UNL     1      23.369  -2.472  24.861  0.00  0.00    +0.038 A 
ATOM     11  C   UNL     1      22.876  -1.794  23.718  0.00  0.00    +0.047 A 
ATOM     12  C   UNL     1      23.335  -2.140  22.381  0.00  0.00    +0.035 A 
ATOM     32  C   UNL     1      24.296  -3.184  22.246  0.00  0.00    +0.024 A 
ATOM     33  C   UNL     1      24.809  -3.883  23.398  0.00  0.00    +0.007 A 
ATOM     34  C   UNL     1      24.361  -3.545  24.719  0.00  0.00    -0.029 A 
ATOM     35  C   UNL     1      24.950  -4.324  25.918  0.00  0.00    +0.045 C 
ENDROOT
BRANCH  10   9
ATOM      4  C   UNL     1      20.200  -2.787  28.452  0.00  0.00    +0.077 A 
ATOM      5  C   UNL     1      19.410  -3.756  27.749  0.00  0.00    +0.048 A 
ATOM      6  C   UNL     1      19.850  -4.142  26.463  0.00  0.00    +0.116 A 
ATOM      7  N   UNL     1      20.996  -3.593  25.930  0.00  0.00    -0.223 NA
ATOM      8  C   UNL     1      21.734  -2.659  26.634  0.00  0.00    +0.220 A 
ATOM      9  N   UNL     1      22.894  -2.100  26.121  0.00  0.00    -0.283 N 
ATOM     36  H   UNL     1      23.406  -1.408  26.668  0.00  0.00    +0.155 HD
ATOM     37  N   UNL     1      21.334  -2.273  27.864  0.00  0.00    -0.214 NA
BRANCH   4   3
ATOM      1  C   UNL     1      19.025  -0.509  31.407  0.00  0.00    +0.020 A 
ATOM      2  C   UNL     1      19.330  -0.949  30.065  0.00  0.00    +0.013 A 
ATOM      3  C   UNL     1      19.867  -2.281  29.822  0.00  0.00    +0.019 A 
ATOM     38  C   UNL     1      20.086  -3.152  30.967  0.00  0.00    +0.120 A 
ATOM     39  N   UNL     1      19.784  -2.701  32.248  0.00  0.00    -0.263 NA
ATOM     40  C   UNL     1      19.268  -1.420  32.495  0.00  0.00    +0.111 A 
ENDBRANCH   4   3
ENDBRANCH  10   9
BRANCH  12  13
ATOM     13  N   UNL     1      22.876  -1.480  21.184  0.00  0.00    -0.281 N 
ATOM     14  C   UNL     1      22.024  -1.977  20.211  0.00  0.00    +0.248 C 
ATOM     30  O   UNL     1      21.694  -3.150  20.115  0.00  0.00    -0.270 OA
ATOM     31  H   UNL     1      23.222  -0.532  21.035  0.00  0.00    +0.155 HD
BRANCH  14  15
ATOM     15  C   UNL     1      21.469  -1.039  19.189  0.00  0.00    +0.037 A 
ATOM     16  C   UNL     1      20.830  -1.536  17.968  0.00  0.00    +0.013 A 
ATOM     17  C   UNL     1      20.319  -0.609  16.990  0.00  0.00    +0.005 A 
ATOM     18  C   UNL     1      20.444   0.827  17.231  0.00  0.00    -0.033 A 
ATOM     28  C   UNL     1      21.078   1.293  18.453  0.00  0.00    +0.005 A 
ATOM     29  C   UNL     1      21.581   0.387  19.413  0.00  0.00    +0.013 A 
BRANCH  18  19
ATOM     19  C   UNL     1      19.945   1.889  16.232  0.00  0.00    +0.119 C 
BRANCH  19  20
ATOM     20  N   UNL     1      18.934   1.456  15.222  0.00  0.00    -0.302 NA
ATOM     21  C   UNL     1      19.546   1.299  13.827  0.00  0.00    +0.066 C 
ATOM     22  C   UNL     1      18.480   0.825  12.788  0.00  0.00    -0.064 C 
ATOM     23  N   UNL     1      17.319   1.821  12.761  0.00  0.00    +0.379 N 
ATOM     24  C   UNL     1      16.342   1.408  11.743  0.00  0.00    -0.096 C 
ATOM     25  H   UNL     1      17.730   2.810  12.454  0.00  0.00    -0.082 HD
ATOM     26  C   UNL     1      16.706   1.984  14.145  0.00  0.00    -0.064 C 
ATOM     27  C   UNL     1      17.781   2.428  15.176  0.00  0.00    +0.066 C 
ENDBRANCH  19  20
ENDBRANCH  18  19
ENDBRANCH  14  15
ENDBRANCH  12  13
TORSDOF 6
ENDMDL
MODEL 3
REMARK VINA RESULT:      -8.5      1.981      2.318
REMARK  Name = C:\Users\Docking\Desktop\test protocol\1iep_ligandH.pdb
REMARK  8 active torsions:
REMARK  status: ('A' for Active; 'I' for Inactive)
REMARK    1  A    between atoms: _5  and  _11
REMARK    2  A    between atoms: _19  and  _21
REMARK    3  A    between atoms: _22  and  _66
REMARK    4  A    between atoms: _27  and  _30
REMARK    5  A    between atoms: _32  and  _33
REMARK    6  A    between atoms: _38  and  _43
REMARK    7  A    between atoms: _43  and  _46
REMARK    8  A    between atoms: _53  and  _55
REMARK                            x       y       z     vdW  Elec       q    Type
REMARK                         _______ _______ _______ _____ _____    ______ ____
ROOT
ATOM     10  C   UNL     1      22.382  -3.604  23.822  0.00  0.00    +0.038 A 
ATOM     11  C   UNL     1      21.986  -2.907  22.652  0.00  0.00    +0.047 A 
ATOM     12  C   UNL     1      22.754  -1.777  22.153  0.00  0.00    +0.035 A 
ATOM     32  C   UNL     1      23.922  -1.385  22.869  0.00  0.00    +0.024 A 
ATOM     33  C   UNL     1      24.339  -2.082  24.060  0.00  0.00    +0.007 A 
ATOM     34  C   UNL     1      23.584  -3.196  24.559  0.00  0.00    -0.029 A 
ATOM     35  C   UNL     1      24.075  -3.902  25.845  0.00  0.00    +0.045 C 
ENDROOT
BRANCH  10   9
ATOM      4  C   UNL     1      18.314  -5.463  25.562  0.00  0.00    +0.077 A 
ATOM      5  C   UNL     1      17.687  -4.174  25.637  0.00  0.00    +0.048 A 
ATOM      6  C   UNL     1      18.449  -3.058  25.225  0.00  0.00    +0.116 A 
ATOM      7  N   UNL     1      19.739  -3.229  24.773  0.00  0.00    -0.223 NA
ATOM      8  C   UNL     1      20.314  -4.486  24.715  0.00  0.00    +0.220 A 
ATOM      9  N   UNL     1      21.607  -4.682  24.257  0.00  0.00    -0.283 N 
ATOM     36  H   UNL     1      21.998  -5.624  24.236  0.00  0.00    +0.155 HD
ATOM     37  N   UNL     1      19.608  -5.567  25.104  0.00  0.00    -0.214 NA
BRANCH   4   3
ATOM      1  C   UNL     1      16.798  -9.068  25.476  0.00  0.00    +0.020 A 
ATOM      2  C   UNL     1      17.458  -7.858  25.043  0.00  0.00    +0.013 A 
ATOM      3  C   UNL     1      17.637  -6.738  25.959  0.00  0.00    +0.019 A 
ATOM     38  C   UNL     1      17.133  -6.877  27.317  0.00  0.00    +0.120 A 
ATOM     39  N   UNL     1      16.501  -8.053  27.705  0.00  0.00    -0.263 NA
ATOM     40  C   UNL     1      16.321  -9.137  26.833  0.00  0.00    +0.111 A 
ENDBRANCH   4   3
ENDBRANCH  10   9
BRANCH  12  13
ATOM     13  N   UNL     1      22.395  -1.026  20.975  0.00  0.00    -0.281 N 
ATOM     14  C   UNL     1      22.032  -1.515  19.731  0.00  0.00    +0.248 C 
ATOM     30  O   UNL     1      22.167  -2.677  19.379  0.00  0.00    -0.270 OA
ATOM     31  H   UNL     1      22.412  -0.010  21.071  0.00  0.00    +0.155 HD
BRANCH  14  15
ATOM     15  C   UNL     1      21.447  -0.574  18.728  0.00  0.00    +0.037 A 
ATOM     16  C   UNL     1      21.423   0.872  18.966  0.00  0.00    +0.013 A 
ATOM     17  C   UNL     1      20.838   1.756  17.990  0.00  0.00    +0.005 A 
ATOM     18  C   UNL     1      20.272   1.196  16.765  0.00  0.00    -0.033 A 
ATOM     28  C   UNL     1      20.313  -0.241  16.552  0.00  0.00    +0.005 A 
ATOM     29  C   UNL     1      20.885  -1.111  17.507  0.00  0.00    +0.013 A 
BRANCH  18  19
ATOM     19  C   UNL     1      19.608   2.062  15.678  0.00  0.00    +0.119 C 
BRANCH  19  20
ATOM     20  N   UNL     1      18.673   1.379  14.735  0.00  0.00    -0.302 NA
ATOM     21  C   UNL     1      19.259   1.269  13.324  0.00  0.00    +0.066 C 
ATOM     22  C   UNL     1      18.277   0.531  12.357  0.00  0.00    -0.064 C 
ATOM     23  N   UNL     1      16.939   1.271  12.331  0.00  0.00    +0.379 N 
ATOM     24  C   UNL     1      16.033   0.613  11.378  0.00  0.00    -0.096 C 
ATOM     25  H   UNL     1      17.130   2.304  11.958  0.00  0.00    -0.082 HD
ATOM     26  C   UNL     1      16.351   1.387  13.730  0.00  0.00    -0.064 C 
ATOM     27  C   UNL     1      17.346   2.095  14.691  0.00  0.00    +0.066 C 
ENDBRANCH  19  20
ENDBRANCH  18  19
ENDBRANCH  14  15
ENDBRANCH  12  13
TORSDOF 6
ENDMDL
MODEL 4
REMARK VINA RESULT:      -8.1      2.983     12.300
REMARK  Name = C:\Users\Docking\Desktop\test protocol\1iep_ligandH.pdb
REMARK  8 active torsions:
REMARK  status: ('A' for Active; 'I' for Inactive)
REMARK    1  A    between atoms: _5  and  _11
REMARK    2  A    between atoms: _19  and  _21
REMARK    3  A    between atoms: _22  and  _66
REMARK    4  A    between atoms: _27  and  _30
REMARK    5  A    between atoms: _32  and  _33
REMARK    6  A    between atoms: _38  and  _43
REMARK    7  A    between atoms: _43  and  _46
REMARK    8  A    between atoms: _53  and  _55
REMARK                            x       y       z     vdW  Elec       q    Type
REMARK                         _______ _______ _______ _____ _____    ______ ____
ROOT
ATOM     10  C   UNL     1      21.283  -3.390  19.654  0.00  0.00    +0.038 A 
ATOM     11  C   UNL     1      21.170  -2.892  20.978  0.00  0.00    +0.047 A 
ATOM     12  C   UNL     1      21.960  -3.452  22.063  0.00  0.00    +0.035 A 
ATOM     32  C   UNL     1      22.858  -4.518  21.763  0.00  0.00    +0.024 A 
ATOM     33  C   UNL     1      22.984  -5.037  20.424  0.00  0.00    +0.007 A 
ATOM     34  C   UNL     1      22.205  -4.490  19.350  0.00  0.00    -0.029 A 
ATOM     35  C   UNL     1      22.377  -5.090  17.936  0.00  0.00    +0.045 C 
ENDROOT
BRANCH  10   9
ATOM      4  C   UNL     1      19.818   0.378  17.067  0.00  0.00    +0.077 A 
ATOM      5  C   UNL     1      20.664   1.281  17.793  0.00  0.00    +0.048 A 
ATOM      6  C   UNL     1      21.455   0.737  18.829  0.00  0.00    +0.116 A 
ATOM      7  N   UNL     1      21.397  -0.611  19.110  0.00  0.00    -0.223 NA
ATOM      8  C   UNL     1      20.568  -1.454  18.392  0.00  0.00    +0.220 A 
ATOM      9  N   UNL     1      20.500  -2.814  18.651  0.00  0.00    -0.283 N 
ATOM     36  H   UNL     1      19.870  -3.401  18.104  0.00  0.00    +0.155 HD
ATOM     37  N   UNL     1      19.802  -0.958  17.398  0.00  0.00    -0.214 NA
BRANCH   4   3
ATOM      1  C   UNL     1      17.406   2.456  14.794  0.00  0.00    +0.020 A 
ATOM      2  C   UNL     1      18.258   2.097  15.904  0.00  0.00    +0.013 A 
ATOM      3  C   UNL     1      18.925   0.801  15.942  0.00  0.00    +0.019 A 
ATOM     38  C   UNL     1      18.709  -0.113  14.831  0.00  0.00    +0.120 A 
ATOM     39  N   UNL     1      17.882   0.260  13.776  0.00  0.00    -0.263 NA
ATOM     40  C   UNL     1      17.233   1.503  13.730  0.00  0.00    +0.111 A 
ENDBRANCH   4   3
ENDBRANCH  10   9
BRANCH  12  13
ATOM     13  N   UNL     1      21.883  -2.993  23.427  0.00  0.00    -0.281 N 
ATOM     14  C   UNL     1      20.966  -3.361  24.399  0.00  0.00    +0.248 C 
ATOM     30  O   UNL     1      19.938  -3.985  24.178  0.00  0.00    -0.270 OA
ATOM     31  H   UNL     1      22.589  -2.315  23.712  0.00  0.00    +0.155 HD
BRANCH  14  15
ATOM     15  C   UNL     1      21.221  -2.968  25.818  0.00  0.00    +0.037 A 
ATOM     16  C   UNL     1      22.528  -2.458  26.242  0.00  0.00    +0.013 A 
ATOM     17  C   UNL     1      22.752  -2.102  27.621  0.00  0.00    +0.005 A 
ATOM     18  C   UNL     1      21.665  -2.253  28.585  0.00  0.00    -0.033 A 
ATOM     28  C   UNL     1      20.378  -2.756  28.136  0.00  0.00    +0.005 A 
ATOM     29  C   UNL     1      20.154  -3.107  26.786  0.00  0.00    +0.013 A 
BRANCH  18  19
ATOM     19  C   UNL     1      21.821  -1.918  30.081  0.00  0.00    +0.119 C 
BRANCH  19  20
ATOM     20  N   UNL     1      20.579  -1.888  30.908  0.00  0.00    -0.302 NA
ATOM     21  C   UNL     1      20.311  -0.498  31.492  0.00  0.00    +0.066 C 
ATOM     22  C   UNL     1      18.995  -0.479  32.336  0.00  0.00    -0.064 C 
ATOM     23  N   UNL     1      19.091  -1.524  33.449  0.00  0.00    +0.379 N 
ATOM     24  C   UNL     1      17.879  -1.469  34.280  0.00  0.00    -0.096 C 
ATOM     25  H   UNL     1      19.957  -1.251  34.095  0.00  0.00    -0.082 HD
ATOM     26  C   UNL     1      19.360  -2.909  32.877  0.00  0.00    -0.064 C 
ATOM     27  C   UNL     1      20.654  -2.910  32.016  0.00  0.00    +0.066 C 
ENDBRANCH  19  20
ENDBRANCH  18  19
ENDBRANCH  14  15
ENDBRANCH  12  13
TORSDOF 6
ENDMDL
MODEL 5
REMARK VINA RESULT:      -7.9      1.251      1.503
REMARK  Name = C:\Users\Docking\Desktop\test protocol\1iep_ligandH.pdb
REMARK  8 active torsions:
REMARK  status: ('A' for Active; 'I' for Inactive)
REMARK    1  A    between atoms: _5  and  _11
REMARK    2  A    between atoms: _19  and  _21
REMARK    3  A    between atoms: _22  and  _66
REMARK    4  A    between atoms: _27  and  _30
REMARK    5  A    between atoms: _32  and  _33
REMARK    6  A    between atoms: _38  and  _43
REMARK    7  A    between atoms: _43  and  _46
REMARK    8  A    between atoms: _53  and  _55
REMARK                            x       y       z     vdW  Elec       q    Type
REMARK                         _______ _______ _______ _____ _____    ______ ____
ROOT
ATOM     10  C   UNL     1      22.016  -3.583  23.779  0.00  0.00    +0.038 A 
ATOM     11  C   UNL     1      21.683  -2.841  22.617  0.00  0.00    +0.047 A 
ATOM     12  C   UNL     1      22.319  -3.118  21.339  0.00  0.00    +0.035 A 
ATOM     32  C   UNL     1      23.289  -4.160  21.280  0.00  0.00    +0.024 A 
ATOM     33  C   UNL     1      23.641  -4.924  22.451  0.00  0.00    +0.007 A 
ATOM     34  C   UNL     1      23.018  -4.653  23.715  0.00  0.00    -0.029 A 
ATOM     35  C   UNL     1      23.438  -5.499  24.940  0.00  0.00    +0.045 C 
ENDROOT
BRANCH  10   9
ATOM      4  C   UNL     1      18.059  -2.934  26.418  0.00  0.00    +0.077 A 
ATOM      5  C   UNL     1      17.199  -3.207  25.303  0.00  0.00    +0.048 A 
ATOM      6  C   UNL     1      17.815  -3.503  24.066  0.00  0.00    +0.116 A 
ATOM      7  N   UNL     1      19.189  -3.522  23.963  0.00  0.00    -0.223 NA
ATOM      8  C   UNL     1      19.989  -3.253  25.058  0.00  0.00    +0.220 A 
ATOM      9  N   UNL     1      21.373  -3.274  24.980  0.00  0.00    -0.283 N 
ATOM     36  H   UNL     1      21.928  -3.063  25.809  0.00  0.00    +0.155 HD
ATOM     37  N   UNL     1      19.425  -2.966  26.250  0.00  0.00    -0.214 NA
BRANCH   4   3
ATOM      1  C   UNL     1      17.302  -1.064  29.769  0.00  0.00    +0.020 A 
ATOM      2  C   UNL     1      17.807  -1.328  28.441  0.00  0.00    +0.013 A 
ATOM      3  C   UNL     1      17.559  -2.608  27.791  0.00  0.00    +0.019 A 
ATOM     38  C   UNL     1      16.789  -3.607  28.516  0.00  0.00    +0.120 A 
ATOM     39  N   UNL     1      16.316  -3.325  29.794  0.00  0.00    -0.263 NA
ATOM     40  C   UNL     1      16.550  -2.097  30.431  0.00  0.00    +0.111 A 
ENDBRANCH   4   3
ENDBRANCH  10   9
BRANCH  12  13
ATOM     13  N   UNL     1      22.028  -2.392  20.128  0.00  0.00    -0.281 N 
ATOM     14  C   UNL     1      20.871  -2.434  19.367  0.00  0.00    +0.248 C 
ATOM     30  O   UNL     1      19.988  -3.269  19.498  0.00  0.00    -0.270 OA
ATOM     31  H   UNL     1      22.764  -1.772  19.790  0.00  0.00    +0.155 HD
BRANCH  14  15
ATOM     15  C   UNL     1      20.672  -1.410  18.297  0.00  0.00    +0.037 A 
ATOM     16  C   UNL     1      20.965   0.006  18.536  0.00  0.00    +0.013 A 
ATOM     17  C   UNL     1      20.749   0.976  17.492  0.00  0.00    +0.005 A 
ATOM     18  C   UNL     1      20.237   0.532  16.198  0.00  0.00    -0.033 A 
ATOM     28  C   UNL     1      19.959  -0.879  15.986  0.00  0.00    +0.005 A 
ATOM     29  C   UNL     1      20.169  -1.832  17.007  0.00  0.00    +0.013 A 
BRANCH  18  19
ATOM     19  C   UNL     1      19.956   1.500  15.034  0.00  0.00    +0.119 C 
BRANCH  19  20
ATOM     20  N   UNL     1      18.876   1.121  14.074  0.00  0.00    -0.302 NA
ATOM     21  C   UNL     1      19.305   1.319  12.618  0.00  0.00    +0.066 C 
ATOM     22  C   UNL     1      18.172   0.896  11.628  0.00  0.00    -0.064 C 
ATOM     23  N   UNL     1      16.906   1.699  11.933  0.00  0.00    +0.379 N 
ATOM     24  C   UNL     1      15.856   1.345  10.967  0.00  0.00    -0.096 C 
ATOM     25  H   UNL     1      17.147   2.778  11.791  0.00  0.00    -0.082 HD
ATOM     26  C   UNL     1      16.473   1.509  13.380  0.00  0.00    -0.064 C 
ATOM     27  C   UNL     1      17.617   1.905  14.355  0.00  0.00    +0.066 C 
ENDBRANCH  19  20
ENDBRANCH  18  19
ENDBRANCH  14  15
ENDBRANCH  12  13
TORSDOF 6
ENDMDL
