MODEL 1
REMARK VINA RESULT:      -8.2      0.000      0.000
REMARK  Name = C:\Users\Docking\Desktop\test protocol\1iep_ligandH.pdb
REMARK  8 active torsions:
REMARK  status: ('A' for Active; 'I' for Inactive)
REMARK    1  A    between atoms: _5  and  _11
REMARK    2  A    between atoms: _19  and  _21
REMARK    3  A    between atoms: _22  and  _66
REMARK    4  A    between atoms: _27  and  _30
REMARK    5  A    between atoms: _32  and  _33
REMARK    6  A    between atoms: _38  and  _43
REMARK    7  A    between atoms: _43  and  _46
REMARK    8  A    between atoms: _53  and  _55
REMARK                            x       y       z     vdW  Elec       q    Type
REMARK                         _______ _______ _______ _____ _____    ______ ____
ROOT
ATOM     10  C   UNL     1      -3.868 -21.061  20.500  0.00  0.00    +0.038 A 
ATOM     11  C   UNL     1      -3.044 -22.129  20.937  0.00  0.00    +0.047 A 
ATOM     12  C   UNL     1      -2.333 -22.968  19.984  0.00  0.00    +0.035 A 
ATOM     32  C   UNL     1      -2.482 -22.688  18.595  0.00  0.00    +0.024 A 
ATOM     33  C   UNL     1      -3.317 -21.607  18.134  0.00  0.00    +0.007 A 
ATOM     34  C   UNL     1      -4.023 -20.778  19.068  0.00  0.00    -0.029 A 
ATOM     35  C   UNL     1      -4.909 -19.636  18.517  0.00  0.00    +0.045 C 
ENDROOT
BRANCH  10   9
ATOM      4  C   UNL     1      -7.632 -20.132  23.330  0.00  0.00    +0.077 A 
ATOM      5  C   UNL     1      -8.357 -21.268  22.840  0.00  0.00    +0.048 A 
ATOM      6  C   UNL     1      -7.728 -22.062  21.854  0.00  0.00    +0.116 A 
ATOM      7  N   UNL     1      -6.469 -21.735  21.401  0.00  0.00    -0.223 NA
ATOM      8  C   UNL     1      -5.798 -20.631  21.894  0.00  0.00    +0.220 A 
ATOM      9  N   UNL     1      -4.528 -20.287  21.458  0.00  0.00    -0.283 N 
ATOM     36  H   UNL     1      -4.070 -19.460  21.841  0.00  0.00    +0.155 HD
ATOM     37  N   UNL     1      -6.377 -19.856  22.834  0.00  0.00    -0.214 NA
BRANCH   4   3
ATOM      1  C   UNL     1      -8.289 -18.331  26.740  0.00  0.00    +0.020 A 
ATOM      2  C   UNL     1      -7.749 -19.256  25.771  0.00  0.00    +0.013 A 
ATOM      3  C   UNL     1      -8.161 -19.198  24.375  0.00  0.00    +0.019 A 
ATOM     38  C   UNL     1      -9.129 -18.183  23.988  0.00  0.00    +0.120 A 
ATOM     39  N   UNL     1      -9.634 -17.306  24.943  0.00  0.00    -0.263 NA
ATOM     40  C   UNL     1      -9.246 -17.354  26.290  0.00  0.00    +0.111 A 
ENDBRANCH   4   3
ENDBRANCH  10   9
BRANCH  12  13
ATOM     13  N   UNL     1      -1.488 -24.072  20.368  0.00  0.00    -0.281 N 
ATOM     14  C   UNL     1      -0.209 -24.021  20.899  0.00  0.00    +0.248 C 
ATOM     30  O   UNL     1       0.489 -23.018  20.925  0.00  0.00    -0.270 OA
ATOM     31  H   UNL     1      -1.880 -25.003  20.231  0.00  0.00    +0.155 HD
BRANCH  14  15
ATOM     15  C   UNL     1       0.385 -25.268  21.469  0.00  0.00    +0.037 A 
ATOM     16  C   UNL     1       0.581 -26.463  20.644  0.00  0.00    +0.013 A 
ATOM     17  C   UNL     1       1.141 -27.658  21.223  0.00  0.00    +0.005 A 
ATOM     18  C   UNL     1       1.511 -27.663  22.637  0.00  0.00    -0.033 A 
ATOM     28  C   UNL     1       1.312 -26.462  23.430  0.00  0.00    +0.005 A 
ATOM     29  C   UNL     1       0.762 -25.289  22.866  0.00  0.00    +0.013 A 
BRANCH  18  19
ATOM     19  C   UNL     1       2.096 -28.901  23.343  0.00  0.00    +0.119 C 
BRANCH  19  20
ATOM     20  N   UNL     1       1.182 -29.673  24.238  0.00  0.00    -0.302 NA
ATOM     21  C   UNL     1       1.880 -30.882  24.867  0.00  0.00    +0.066 C 
ATOM     22  C   UNL     1       0.916 -31.665  25.816  0.00  0.00    -0.064 C 
ATOM     23  N   UNL     1      -0.323 -32.102  25.034  0.00  0.00    +0.379 N 
ATOM     24  C   UNL     1      -1.204 -32.888  25.909  0.00  0.00    -0.096 C 
ATOM     25  H   UNL     1       0.017 -32.769  24.208  0.00  0.00    -0.082 HD
ATOM     26  C   UNL     1      -1.022 -30.906  24.402  0.00  0.00    -0.064 C 
ATOM     27  C   UNL     1      -0.047 -30.118  23.483  0.00  0.00    +0.066 C 
ENDBRANCH  19  20
ENDBRANCH  18  19
ENDBRANCH  14  15
ENDBRANCH  12  13
TORSDOF 6
ENDMDL
MODEL 2
REMARK VINA RESULT:      -7.9      8.114     12.831
REMARK  Name = C:\Users\Docking\Desktop\test protocol\1iep_ligandH.pdb
REMARK  8 active torsions:
REMARK  status: ('A' for Active; 'I' for Inactive)
REMARK    1  A    between atoms: _5  and  _11
REMARK    2  A    between atoms: _19  and  _21
REMARK    3  A    between atoms: _22  and  _66
REMARK    4  A    between atoms: _27  and  _30
REMARK    5  A    between atoms: _32  and  _33
REMARK    6  A    between atoms: _38  and  _43
REMARK    7  A    between atoms: _43  and  _46
REMARK    8  A    between atoms: _53  and  _55
REMARK                            x       y       z     vdW  Elec       q    Type
REMARK                         _______ _______ _______ _____ _____    ______ ____
ROOT
ATOM     10  C   UNL     1       3.284 -19.590  26.268  0.00  0.00    +0.038 A 
ATOM     11  C   UNL     1       1.958 -19.318  25.846  0.00  0.00    +0.047 A 
ATOM     12  C   UNL     1       1.631 -19.179  24.436  0.00  0.00    +0.035 A 
ATOM     32  C   UNL     1       2.679 -19.325  23.481  0.00  0.00    +0.024 A 
ATOM     33  C   UNL     1       4.033 -19.600  23.893  0.00  0.00    +0.007 A 
ATOM     34  C   UNL     1       4.363 -19.736  25.283  0.00  0.00    -0.029 A 
ATOM     35  C   UNL     1       5.833 -20.024  25.667  0.00  0.00    +0.045 C 
ENDROOT
BRANCH  10   9
ATOM      4  C   UNL     1       4.635 -17.776  30.502  0.00  0.00    +0.077 A 
ATOM      5  C   UNL     1       4.872 -16.479  29.938  0.00  0.00    +0.048 A 
ATOM      6  C   UNL     1       4.642 -16.322  28.552  0.00  0.00    +0.116 A 
ATOM      7  N   UNL     1       4.206 -17.390  27.798  0.00  0.00    -0.223 NA
ATOM      8  C   UNL     1       3.988 -18.628  28.373  0.00  0.00    +0.220 A 
ATOM      9  N   UNL     1       3.542 -19.713  27.635  0.00  0.00    -0.283 N 
ATOM     36  H   UNL     1       3.401 -20.612  28.096  0.00  0.00    +0.155 HD
ATOM     37  N   UNL     1       4.202 -18.804  29.694  0.00  0.00    -0.214 NA
BRANCH   4   3
ATOM      1  C   UNL     1       6.206 -18.151  34.065  0.00  0.00    +0.020 A 
ATOM      2  C   UNL     1       6.069 -17.820  32.665  0.00  0.00    +0.013 A 
ATOM      3  C   UNL     1       4.830 -18.099  31.951  0.00  0.00    +0.019 A 
ATOM     38  C   UNL     1       3.739 -18.718  32.688  0.00  0.00    +0.120 A 
ATOM     39  N   UNL     1       3.900 -19.027  34.036  0.00  0.00    -0.263 NA
ATOM     40  C   UNL     1       5.088 -18.764  34.733  0.00  0.00    +0.111 A 
ENDBRANCH   4   3
ENDBRANCH  10   9
BRANCH  12  13
ATOM     13  N   UNL     1       0.304 -18.896  23.948  0.00  0.00    -0.281 N 
ATOM     14  C   UNL     1      -0.581 -19.766  23.333  0.00  0.00    +0.248 C 
ATOM     30  O   UNL     1      -0.282 -20.874  22.914  0.00  0.00    -0.270 OA
ATOM     31  H   UNL     1      -0.023 -17.937  24.072  0.00  0.00    +0.155 HD
BRANCH  14  15
ATOM     15  C   UNL     1      -2.001 -19.337  23.142  0.00  0.00    +0.037 A 
ATOM     16  C   UNL     1      -2.365 -17.919  23.084  0.00  0.00    +0.013 A 
ATOM     17  C   UNL     1      -3.744 -17.533  22.917  0.00  0.00    +0.005 A 
ATOM     18  C   UNL     1      -4.769 -18.568  22.805  0.00  0.00    -0.033 A 
ATOM     28  C   UNL     1      -4.379 -19.967  22.861  0.00  0.00    +0.005 A 
ATOM     29  C   UNL     1      -3.029 -20.350  23.026  0.00  0.00    +0.013 A 
BRANCH  18  19
ATOM     19  C   UNL     1      -6.267 -18.248  22.646  0.00  0.00    +0.119 C 
BRANCH  19  20
ATOM     20  N   UNL     1      -7.042 -17.964  23.890  0.00  0.00    -0.302 NA
ATOM     21  C   UNL     1      -8.506 -18.393  23.766  0.00  0.00    +0.066 C 
ATOM     22  C   UNL     1      -9.296 -18.110  25.085  0.00  0.00    -0.064 C 
ATOM     23  N   UNL     1      -9.195 -16.622  25.427  0.00  0.00    +0.379 N 
ATOM     24  C   UNL     1      -9.985 -16.342  26.635  0.00  0.00    -0.096 C 
ATOM     25  H   UNL     1      -9.649 -16.050  24.585  0.00  0.00    -0.082 HD
ATOM     26  C   UNL     1      -7.742 -16.186  25.550  0.00  0.00    -0.064 C 
ATOM     27  C   UNL     1      -6.959 -16.500  24.245  0.00  0.00    +0.066 C 
ENDBRANCH  19  20
ENDBRANCH  18  19
ENDBRANCH  14  15
ENDBRANCH  12  13
TORSDOF 6
ENDMDL
MODEL 3
REMARK VINA RESULT:      -7.8      8.184     12.538
REMARK  Name = C:\Users\Docking\Desktop\test protocol\1iep_ligandH.pdb
REMARK  8 active torsions:
REMARK  status: ('A' for Active; 'I' for Inactive)
REMARK    1  A    between atoms: _5  and  _11
REMARK    2  A    between atoms: _19  and  _21
REMARK    3  A    between atoms: _22  and  _66
REMARK    4  A    between atoms: _27  and  _30
REMARK    5  A    between atoms: _32  and  _33
REMARK    6  A    between atoms: _38  and  _43
REMARK    7  A    between atoms: _43  and  _46
REMARK    8  A    between atoms: _53  and  _55
REMARK                            x       y       z     vdW  Elec       q    Type
REMARK                         _______ _______ _______ _____ _____    ______ ____
ROOT
ATOM     10  C   UNL     1       3.107 -19.518  26.382  0.00  0.00    +0.038 A 
ATOM     11  C   UNL     1       1.758 -19.289  26.008  0.00  0.00    +0.047 A 
ATOM     12  C   UNL     1       1.383 -19.111  24.614  0.00  0.00    +0.035 A 
ATOM     32  C   UNL     1       2.408 -19.176  23.625  0.00  0.00    +0.024 A 
ATOM     33  C   UNL     1       3.784 -19.408  23.988  0.00  0.00    +0.007 A 
ATOM     34  C   UNL     1       4.160 -19.581  25.362  0.00  0.00    -0.029 A 
ATOM     35  C   UNL     1       5.652 -19.820  25.693  0.00  0.00    +0.045 C 
ENDROOT
BRANCH  10   9
ATOM      4  C   UNL     1       4.641 -17.839  30.609  0.00  0.00    +0.077 A 
ATOM      5  C   UNL     1       4.884 -16.533  30.068  0.00  0.00    +0.048 A 
ATOM      6  C   UNL     1       4.608 -16.336  28.697  0.00  0.00    +0.116 A 
ATOM      7  N   UNL     1       4.125 -17.376  27.932  0.00  0.00    -0.223 NA
ATOM      8  C   UNL     1       3.903 -18.624  28.484  0.00  0.00    +0.220 A 
ATOM      9  N   UNL     1       3.410 -19.682  27.735  0.00  0.00    -0.283 N 
ATOM     36  H   UNL     1       3.267 -20.589  28.178  0.00  0.00    +0.155 HD
ATOM     37  N   UNL     1       4.160 -18.838  29.791  0.00  0.00    -0.214 NA
BRANCH   4   3
ATOM      1  C   UNL     1       6.282 -18.222  34.138  0.00  0.00    +0.020 A 
ATOM      2  C   UNL     1       6.101 -17.848  32.755  0.00  0.00    +0.013 A 
ATOM      3  C   UNL     1       4.880 -18.202  32.041  0.00  0.00    +0.019 A 
ATOM     38  C   UNL     1       3.855 -18.941  32.762  0.00  0.00    +0.120 A 
ATOM     39  N   UNL     1       4.058 -19.290  34.094  0.00  0.00    -0.263 NA
ATOM     40  C   UNL     1       5.229 -18.955  34.790  0.00  0.00    +0.111 A 
ENDBRANCH   4   3
ENDBRANCH  10   9
BRANCH  12  13
ATOM     13  N   UNL     1       0.032 -18.868  24.175  0.00  0.00    -0.281 N 
ATOM     14  C   UNL     1      -0.752 -19.659  23.352  0.00  0.00    +0.248 C 
ATOM     30  O   UNL     1      -0.333 -20.598  22.692  0.00  0.00    -0.270 OA
ATOM     31  H   UNL     1      -0.400 -18.007  24.512  0.00  0.00    +0.155 HD
BRANCH  14  15
ATOM     15  C   UNL     1      -2.211 -19.355  23.234  0.00  0.00    +0.037 A 
ATOM     16  C   UNL     1      -2.702 -17.975  23.227  0.00  0.00    +0.013 A 
ATOM     17  C   UNL     1      -4.115 -17.710  23.130  0.00  0.00    +0.005 A 
ATOM     18  C   UNL     1      -5.049 -18.830  23.036  0.00  0.00    -0.033 A 
ATOM     28  C   UNL     1      -4.535 -20.190  23.039  0.00  0.00    +0.005 A 
ATOM     29  C   UNL     1      -3.150 -20.453  23.136  0.00  0.00    +0.013 A 
BRANCH  18  19
ATOM     19  C   UNL     1      -6.575 -18.642  22.950  0.00  0.00    +0.119 C 
BRANCH  19  20
ATOM     20  N   UNL     1      -7.295 -19.377  21.868  0.00  0.00    -0.302 NA
ATOM     21  C   UNL     1      -6.711 -19.079  20.484  0.00  0.00    +0.066 C 
ATOM     22  C   UNL     1      -7.461 -19.874  19.366  0.00  0.00    -0.064 C 
ATOM     23  N   UNL     1      -8.951 -19.530  19.412  0.00  0.00    +0.379 N 
ATOM     24  C   UNL     1      -9.650 -20.232  18.325  0.00  0.00    -0.096 C 
ATOM     25  H   UNL     1      -9.051 -18.435  19.227  0.00  0.00    -0.082 HD
ATOM     26  C   UNL     1      -9.539 -19.822  20.785  0.00  0.00    -0.064 C 
ATOM     27  C   UNL     1      -8.767 -19.049  21.892  0.00  0.00    +0.066 C 
ENDBRANCH  19  20
ENDBRANCH  18  19
ENDBRANCH  14  15
ENDBRANCH  12  13
TORSDOF 6
ENDMDL
MODEL 4
REMARK VINA RESULT:      -7.7      5.545      8.314
REMARK  Name = C:\Users\Docking\Desktop\test protocol\1iep_ligandH.pdb
REMARK  8 active torsions:
REMARK  status: ('A' for Active; 'I' for Inactive)
REMARK    1  A    between atoms: _5  and  _11
REMARK    2  A    between atoms: _19  and  _21
REMARK    3  A    between atoms: _22  and  _66
REMARK    4  A    between atoms: _27  and  _30
REMARK    5  A    between atoms: _32  and  _33
REMARK    6  A    between atoms: _38  and  _43
REMARK    7  A    between atoms: _43  and  _46
REMARK    8  A    between atoms: _53  and  _55
REMARK                            x       y       z     vdW  Elec       q    Type
REMARK                         _______ _______ _______ _____ _____    ______ ____
ROOT
ATOM     10  C   UNL     1      -6.616 -19.335  21.955  0.00  0.00    +0.038 A 
ATOM     11  C   UNL     1      -5.232 -19.636  22.034  0.00  0.00    +0.047 A 
ATOM     12  C   UNL     1      -4.534 -19.636  23.310  0.00  0.00    +0.035 A 
ATOM     32  C   UNL     1      -5.277 -19.327  24.487  0.00  0.00    +0.024 A 
ATOM     33  C   UNL     1      -6.684 -19.017  24.424  0.00  0.00    +0.007 A 
ATOM     34  C   UNL     1      -7.377 -19.014  23.168  0.00  0.00    -0.029 A 
ATOM     35  C   UNL     1      -8.885 -18.668  23.159  0.00  0.00    +0.045 C 
ENDROOT
BRANCH  10   9
ATOM      4  C   UNL     1      -8.901 -21.595  18.390  0.00  0.00    +0.077 A 
ATOM      5  C   UNL     1      -8.830 -22.858  19.066  0.00  0.00    +0.048 A 
ATOM      6  C   UNL     1      -8.191 -22.885  20.326  0.00  0.00    +0.116 A 
ATOM      7  N   UNL     1      -7.666 -21.728  20.860  0.00  0.00    -0.223 NA
ATOM      8  C   UNL     1      -7.750 -20.527  20.181  0.00  0.00    +0.220 A 
ATOM      9  N   UNL     1      -7.236 -19.350  20.703  0.00  0.00    -0.283 N 
ATOM     36  H   UNL     1      -7.311 -18.485  20.168  0.00  0.00    +0.155 HD
ATOM     37  N   UNL     1      -8.354 -20.475  18.976  0.00  0.00    -0.214 NA
BRANCH   4   3
ATOM      1  C   UNL     1     -10.366 -22.255  14.824  0.00  0.00    +0.020 A 
ATOM      2  C   UNL     1      -9.735 -22.493  16.101  0.00  0.00    +0.013 A 
ATOM      3  C   UNL     1      -9.548 -21.405  17.053  0.00  0.00    +0.019 A 
ATOM     38  C   UNL     1     -10.014 -20.078  16.678  0.00  0.00    +0.120 A 
ATOM     39  N   UNL     1     -10.617 -19.879  15.440  0.00  0.00    -0.263 NA
ATOM     40  C   UNL     1     -10.801 -20.919  14.515  0.00  0.00    +0.111 A 
ENDBRANCH   4   3
ENDBRANCH  10   9
BRANCH  12  13
ATOM     13  N   UNL     1      -3.129 -19.925  23.452  0.00  0.00    -0.281 N 
ATOM     14  C   UNL     1      -2.441 -21.044  23.011  0.00  0.00    +0.248 C 
ATOM     30  O   UNL     1      -2.973 -22.070  22.613  0.00  0.00    -0.270 OA
ATOM     31  H   UNL     1      -2.573 -19.220  23.936  0.00  0.00    +0.155 HD
BRANCH  14  15
ATOM     15  C   UNL     1      -0.947 -21.027  23.027  0.00  0.00    +0.037 A 
ATOM     16  C   UNL     1      -0.167 -22.033  22.301  0.00  0.00    +0.013 A 
ATOM     17  C   UNL     1       1.273 -22.003  22.348  0.00  0.00    +0.005 A 
ATOM     18  C   UNL     1       1.943 -20.962  23.123  0.00  0.00    -0.033 A 
ATOM     28  C   UNL     1       1.145 -19.973  23.830  0.00  0.00    +0.005 A 
ATOM     29  C   UNL     1      -0.267 -20.000  23.787  0.00  0.00    +0.013 A 
BRANCH  18  19
ATOM     19  C   UNL     1       3.476 -20.866  23.246  0.00  0.00    +0.119 C 
BRANCH  19  20
ATOM     20  N   UNL     1       4.024 -19.837  24.180  0.00  0.00    -0.302 NA
ATOM     21  C   UNL     1       5.238 -19.115  23.590  0.00  0.00    +0.066 C 
ATOM     22  C   UNL     1       5.785 -18.027  24.570  0.00  0.00    -0.064 C 
ATOM     23  N   UNL     1       6.140 -18.680  25.907  0.00  0.00    +0.379 N 
ATOM     24  C   UNL     1       6.709 -17.670  26.811  0.00  0.00    -0.096 C 
ATOM     25  H   UNL     1       6.930 -19.442  25.711  0.00  0.00    -0.082 HD
ATOM     26  C   UNL     1       4.939 -19.403  26.499  0.00  0.00    -0.064 C 
ATOM     27  C   UNL     1       4.385 -20.462  25.505  0.00  0.00    +0.066 C 
ENDBRANCH  19  20
ENDBRANCH  18  19
ENDBRANCH  14  15
ENDBRANCH  12  13
TORSDOF 6
ENDMDL
MODEL 5
REMARK VINA RESULT:      -7.7     11.658     13.228
REMARK  Name = C:\Users\Docking\Desktop\test protocol\1iep_ligandH.pdb
REMARK  8 active torsions:
REMARK  status: ('A' for Active; 'I' for Inactive)
REMARK    1  A    between atoms: _5  and  _11
REMARK    2  A    between atoms: _19  and  _21
REMARK    3  A    between atoms: _22  and  _66
REMARK    4  A    between atoms: _27  and  _30
REMARK    5  A    between atoms: _32  and  _33
REMARK    6  A    between atoms: _38  and  _43
REMARK    7  A    between atoms: _43  and  _46
REMARK    8  A    between atoms: _53  and  _55
REMARK                            x       y       z     vdW  Elec       q    Type
REMARK                         _______ _______ _______ _____ _____    ______ ____
ROOT
ATOM     10  C   UNL     1       3.174 -16.933  26.673  0.00  0.00    +0.038 A 
ATOM     11  C   UNL     1       3.424 -17.317  28.015  0.00  0.00    +0.047 A 
ATOM     12  C   UNL     1       4.636 -16.902  28.703  0.00  0.00    +0.035 A 
ATOM     32  C   UNL     1       5.572 -16.094  27.995  0.00  0.00    +0.024 A 
ATOM     33  C   UNL     1       5.335 -15.695  26.630  0.00  0.00    +0.007 A 
ATOM     34  C   UNL     1       4.142 -16.103  25.945  0.00  0.00    -0.029 A 
ATOM     35  C   UNL     1       3.942 -15.651  24.479  0.00  0.00    +0.045 C 
ENDROOT
BRANCH  10   9
ATOM      4  C   UNL     1       0.703 -19.972  23.899  0.00  0.00    +0.077 A 
ATOM      5  C   UNL     1       1.868 -20.762  23.624  0.00  0.00    +0.048 A 
ATOM      6  C   UNL     1       3.086 -20.348  24.210  0.00  0.00    +0.116 A 
ATOM      7  N   UNL     1       3.123 -19.227  25.010  0.00  0.00    -0.223 NA
ATOM      8  C   UNL     1       1.980 -18.486  25.253  0.00  0.00    +0.220 A 
ATOM      9  N   UNL     1       1.993 -17.359  26.061  0.00  0.00    -0.283 N 
ATOM     36  H   UNL     1       1.131 -16.836  26.210  0.00  0.00    +0.155 HD
ATOM     37  N   UNL     1       0.806 -18.860  24.704  0.00  0.00    -0.214 NA
BRANCH   4   3
ATOM      1  C   UNL     1      -2.401 -21.877  22.472  0.00  0.00    +0.020 A 
ATOM      2  C   UNL     1      -1.076 -21.631  22.993  0.00  0.00    +0.013 A 
ATOM      3  C   UNL     1      -0.657 -20.283  23.355  0.00  0.00    +0.019 A 
ATOM     38  C   UNL     1      -1.611 -19.198  23.179  0.00  0.00    +0.120 A 
ATOM     39  N   UNL     1      -2.879 -19.465  22.674  0.00  0.00    -0.263 NA
ATOM     40  C   UNL     1      -3.293 -20.758  22.320  0.00  0.00    +0.111 A 
ENDBRANCH   4   3
ENDBRANCH  10   9
BRANCH  12  13
ATOM     13  N   UNL     1       4.948 -17.268  30.063  0.00  0.00    -0.281 N 
ATOM     14  C   UNL     1       4.143 -17.936  30.971  0.00  0.00    +0.248 C 
ATOM     30  O   UNL     1       2.946 -18.133  30.819  0.00  0.00    -0.270 OA
ATOM     31  H   UNL     1       5.875 -17.003  30.396  0.00  0.00    +0.155 HD
BRANCH  14  15
ATOM     15  C   UNL     1       4.751 -18.447  32.237  0.00  0.00    +0.037 A 
ATOM     16  C   UNL     1       5.959 -17.837  32.799  0.00  0.00    +0.013 A 
ATOM     17  C   UNL     1       6.535 -18.360  34.012  0.00  0.00    +0.005 A 
ATOM     18  C   UNL     1       5.903 -19.499  34.673  0.00  0.00    -0.033 A 
ATOM     28  C   UNL     1       4.703 -20.082  34.096  0.00  0.00    +0.005 A 
ATOM     29  C   UNL     1       4.136 -19.573  32.906  0.00  0.00    +0.013 A 
BRANCH  18  19
ATOM     19  C   UNL     1       6.461 -20.136  35.959  0.00  0.00    +0.119 C 
BRANCH  19  20
ATOM     20  N   UNL     1       5.684 -19.928  37.218  0.00  0.00    -0.302 NA
ATOM     21  C   UNL     1       6.435 -19.043  38.217  0.00  0.00    +0.066 C 
ATOM     22  C   UNL     1       5.598 -18.817  39.518  0.00  0.00    -0.064 C 
ATOM     23  N   UNL     1       5.258 -20.171  40.143  0.00  0.00    +0.379 N 
ATOM     24  C   UNL     1       4.521 -19.961  41.398  0.00  0.00    -0.096 C 
ATOM     25  H   UNL     1       6.218 -20.678  40.396  0.00  0.00    -0.082 HD
ATOM     26  C   UNL     1       4.514 -21.059  39.155  0.00  0.00    -0.064 C 
ATOM     27  C   UNL     1       5.341 -21.252  37.854  0.00  0.00    +0.066 C 
ENDBRANCH  19  20
ENDBRANCH  18  19
ENDBRANCH  14  15
ENDBRANCH  12  13
TORSDOF 6
ENDMDL
