MODEL 1
REMARK VINA RESULT:      -9.5      0.000      0.000
REMARK  Name = C:\Users\Docking\Desktop\test protocol\1iep_ligandH.pdb
REMARK  8 active torsions:
REMARK  status: ('A' for Active; 'I' for Inactive)
REMARK    1  A    between atoms: _5  and  _11
REMARK    2  A    between atoms: _19  and  _21
REMARK    3  A    between atoms: _22  and  _66
REMARK    4  A    between atoms: _27  and  _30
REMARK    5  A    between atoms: _32  and  _33
REMARK    6  A    between atoms: _38  and  _43
REMARK    7  A    between atoms: _43  and  _46
REMARK    8  A    between atoms: _53  and  _55
REMARK                            x       y       z     vdW  Elec       q    Type
REMARK                         _______ _______ _______ _____ _____    ______ ____
ROOT
ATOM     10  C   UNL     1      10.414  20.945  19.725  0.00  0.00    +0.038 A 
ATOM     11  C   UNL     1      11.643  21.647  19.636  0.00  0.00    +0.047 A 
ATOM     12  C   UNL     1      11.694  23.019  19.153  0.00  0.00    +0.035 A 
ATOM     32  C   UNL     1      10.472  23.645  18.771  0.00  0.00    +0.024 A 
ATOM     33  C   UNL     1       9.214  22.946  18.854  0.00  0.00    +0.007 A 
ATOM     34  C   UNL     1       9.158  21.593  19.327  0.00  0.00    -0.029 A 
ATOM     35  C   UNL     1       7.782  20.890  19.389  0.00  0.00    +0.045 C 
ENDROOT
BRANCH  10   9
ATOM      4  C   UNL     1      12.066  16.439  19.663  0.00  0.00    +0.077 A 
ATOM      5  C   UNL     1      12.967  16.722  18.582  0.00  0.00    +0.048 A 
ATOM      6  C   UNL     1      12.969  18.037  18.066  0.00  0.00    +0.116 A 
ATOM      7  N   UNL     1      12.129  18.991  18.599  0.00  0.00    -0.223 NA
ATOM      8  C   UNL     1      11.272  18.685  19.640  0.00  0.00    +0.220 A 
ATOM      9  N   UNL     1      10.424  19.631  20.196  0.00  0.00    -0.283 N 
ATOM     36  H   UNL     1       9.801  19.363  20.958  0.00  0.00    +0.155 HD
ATOM     37  N   UNL     1      11.250  17.436  20.149  0.00  0.00    -0.214 NA
BRANCH   4   3
ATOM      1  C   UNL     1      12.901  13.148  21.605  0.00  0.00    +0.020 A 
ATOM      2  C   UNL     1      13.066  14.445  20.989  0.00  0.00    +0.013 A 
ATOM      3  C   UNL     1      11.950  15.098  20.317  0.00  0.00    +0.019 A 
ATOM     38  C   UNL     1      10.669  14.408  20.287  0.00  0.00    +0.120 A 
ATOM     39  N   UNL     1      10.540  13.159  20.888  0.00  0.00    -0.263 NA
ATOM     40  C   UNL     1      11.608  12.520  21.536  0.00  0.00    +0.111 A 
ENDBRANCH   4   3
ENDBRANCH  10   9
BRANCH  12  13
ATOM     13  N   UNL     1      12.913  23.779  19.033  0.00  0.00    -0.281 N 
ATOM     14  C   UNL     1      13.488  24.619  19.973  0.00  0.00    +0.248 C 
ATOM     30  O   UNL     1      12.927  25.012  20.984  0.00  0.00    -0.270 OA
ATOM     31  H   UNL     1      13.413  23.687  18.149  0.00  0.00    +0.155 HD
BRANCH  14  15
ATOM     15  C   UNL     1      14.884  25.104  19.749  0.00  0.00    +0.037 A 
ATOM     16  C   UNL     1      15.926  24.913  20.761  0.00  0.00    +0.013 A 
ATOM     17  C   UNL     1      17.261  25.406  20.527  0.00  0.00    +0.005 A 
ATOM     18  C   UNL     1      17.561  26.093  19.273  0.00  0.00    -0.033 A 
ATOM     28  C   UNL     1      16.509  26.263  18.284  0.00  0.00    +0.005 A 
ATOM     29  C   UNL     1      15.200  25.783  18.510  0.00  0.00    +0.013 A 
BRANCH  18  19
ATOM     19  C   UNL     1      18.951  26.670  18.947  0.00  0.00    +0.119 C 
BRANCH  19  20
ATOM     20  N   UNL     1      19.029  27.698  17.867  0.00  0.00    -0.302 NA
ATOM     21  C   UNL     1      19.690  27.150  16.599  0.00  0.00    +0.066 C 
ATOM     22  C   UNL     1      19.743  28.232  15.472  0.00  0.00    -0.064 C 
ATOM     23  N   UNL     1      20.492  29.463  15.985  0.00  0.00    +0.379 N 
ATOM     24  C   UNL     1      20.594  30.460  14.909  0.00  0.00    -0.096 C 
ATOM     25  H   UNL     1      21.527  29.143  16.249  0.00  0.00    -0.082 HD
ATOM     26  C   UNL     1      19.843  30.013  17.247  0.00  0.00    -0.064 C 
ATOM     27  C   UNL     1      19.769  28.921  18.351  0.00  0.00    +0.066 C 
ENDBRANCH  19  20
ENDBRANCH  18  19
ENDBRANCH  14  15
ENDBRANCH  12  13
TORSDOF 6
ENDMDL
MODEL 2
REMARK VINA RESULT:      -9.4      5.414     10.429
REMARK  Name = C:\Users\Docking\Desktop\test protocol\1iep_ligandH.pdb
REMARK  8 active torsions:
REMARK  status: ('A' for Active; 'I' for Inactive)
REMARK    1  A    between atoms: _5  and  _11
REMARK    2  A    between atoms: _19  and  _21
REMARK    3  A    between atoms: _22  and  _66
REMARK    4  A    between atoms: _27  and  _30
REMARK    5  A    between atoms: _32  and  _33
REMARK    6  A    between atoms: _38  and  _43
REMARK    7  A    between atoms: _43  and  _46
REMARK    8  A    between atoms: _53  and  _55
REMARK                            x       y       z     vdW  Elec       q    Type
REMARK                         _______ _______ _______ _____ _____    ______ ____
ROOT
ATOM     10  C   UNL     1      18.348  27.372  16.982  0.00  0.00    +0.038 A 
ATOM     11  C   UNL     1      18.766  28.663  17.392  0.00  0.00    +0.047 A 
ATOM     12  C   UNL     1      20.102  29.153  17.091  0.00  0.00    +0.035 A 
ATOM     32  C   UNL     1      20.987  28.301  16.368  0.00  0.00    +0.024 A 
ATOM     33  C   UNL     1      20.579  26.984  15.945  0.00  0.00    +0.007 A 
ATOM     34  C   UNL     1      19.263  26.495  16.241  0.00  0.00    -0.029 A 
ATOM     35  C   UNL     1      18.882  25.073  15.768  0.00  0.00    +0.045 C 
ENDROOT
BRANCH  10   9
ATOM      4  C   UNL     1      15.196  25.157  19.845  0.00  0.00    +0.077 A 
ATOM      5  C   UNL     1      16.219  24.779  20.778  0.00  0.00    +0.048 A 
ATOM      6  C   UNL     1      17.544  25.168  20.480  0.00  0.00    +0.116 A 
ATOM      7  N   UNL     1      17.815  25.882  19.333  0.00  0.00    -0.223 NA
ATOM      8  C   UNL     1      16.805  26.228  18.453  0.00  0.00    +0.220 A 
ATOM      9  N   UNL     1      17.054  26.953  17.298  0.00  0.00    -0.283 N 
ATOM     36  H   UNL     1      16.283  27.182  16.671  0.00  0.00    +0.155 HD
ATOM     37  N   UNL     1      15.532  25.867  18.714  0.00  0.00    -0.214 NA
BRANCH   4   3
ATOM      1  C   UNL     1      11.487  25.168  21.086  0.00  0.00    +0.020 A 
ATOM      2  C   UNL     1      12.879  25.530  20.953  0.00  0.00    +0.013 A 
ATOM      3  C   UNL     1      13.748  24.822  20.022  0.00  0.00    +0.019 A 
ATOM     38  C   UNL     1      13.172  23.744  19.232  0.00  0.00    +0.120 A 
ATOM     39  N   UNL     1      11.828  23.416  19.382  0.00  0.00    -0.263 NA
ATOM     40  C   UNL     1      10.983  24.090  20.276  0.00  0.00    +0.111 A 
ENDBRANCH   4   3
ENDBRANCH  10   9
BRANCH  12  13
ATOM     13  N   UNL     1      20.585  30.452  17.488  0.00  0.00    -0.281 N 
ATOM     14  C   UNL     1      20.658  31.604  16.723  0.00  0.00    +0.248 C 
ATOM     30  O   UNL     1      20.517  31.638  15.510  0.00  0.00    -0.270 OA
ATOM     31  H   UNL     1      20.913  30.532  18.451  0.00  0.00    +0.155 HD
BRANCH  14  15
ATOM     15  C   UNL     1      20.943  32.905  17.401  0.00  0.00    +0.037 A 
ATOM     16  C   UNL     1      19.860  33.755  17.902  0.00  0.00    +0.013 A 
ATOM     17  C   UNL     1      20.162  35.013  18.537  0.00  0.00    +0.005 A 
ATOM     18  C   UNL     1      21.556  35.428  18.677  0.00  0.00    -0.033 A 
ATOM     28  C   UNL     1      22.611  34.563  18.176  0.00  0.00    +0.005 A 
ATOM     29  C   UNL     1      22.319  33.330  17.552  0.00  0.00    +0.013 A 
BRANCH  18  19
ATOM     19  C   UNL     1      21.970  36.764  19.323  0.00  0.00    +0.119 C 
BRANCH  19  20
ATOM     20  N   UNL     1      22.634  36.701  20.659  0.00  0.00    -0.302 NA
ATOM     21  C   UNL     1      24.138  36.435  20.541  0.00  0.00    +0.066 C 
ATOM     22  C   UNL     1      24.820  36.394  21.947  0.00  0.00    -0.064 C 
ATOM     23  N   UNL     1      24.147  35.324  22.807  0.00  0.00    +0.379 N 
ATOM     24  C   UNL     1      24.824  35.243  24.109  0.00  0.00    -0.096 C 
ATOM     25  H   UNL     1      24.282  34.343  22.294  0.00  0.00    -0.082 HD
ATOM     26  C   UNL     1      22.651  35.579  22.927  0.00  0.00    -0.064 C 
ATOM     27  C   UNL     1      21.987  35.647  21.523  0.00  0.00    +0.066 C 
ENDBRANCH  19  20
ENDBRANCH  18  19
ENDBRANCH  14  15
ENDBRANCH  12  13
TORSDOF 6
ENDMDL
MODEL 3
REMARK VINA RESULT:      -9.2      1.957     12.517
REMARK  Name = C:\Users\Docking\Desktop\test protocol\1iep_ligandH.pdb
REMARK  8 active torsions:
REMARK  status: ('A' for Active; 'I' for Inactive)
REMARK    1  A    between atoms: _5  and  _11
REMARK    2  A    between atoms: _19  and  _21
REMARK    3  A    between atoms: _22  and  _66
REMARK    4  A    between atoms: _27  and  _30
REMARK    5  A    between atoms: _32  and  _33
REMARK    6  A    between atoms: _38  and  _43
REMARK    7  A    between atoms: _43  and  _46
REMARK    8  A    between atoms: _53  and  _55
REMARK                            x       y       z     vdW  Elec       q    Type
REMARK                         _______ _______ _______ _____ _____    ______ ____
ROOT
ATOM     10  C   UNL     1      12.985  24.733  18.635  0.00  0.00    +0.038 A 
ATOM     11  C   UNL     1      13.055  23.323  18.776  0.00  0.00    +0.047 A 
ATOM     12  C   UNL     1      11.932  22.564  19.303  0.00  0.00    +0.035 A 
ATOM     32  C   UNL     1      10.752  23.272  19.674  0.00  0.00    +0.024 A 
ATOM     33  C   UNL     1      10.665  24.704  19.539  0.00  0.00    +0.007 A 
ATOM     34  C   UNL     1      11.770  25.459  19.022  0.00  0.00    -0.029 A 
ATOM     35  C   UNL     1      11.623  26.994  18.904  0.00  0.00    +0.045 C 
ENDROOT
BRANCH  10   9
ATOM      4  C   UNL     1      17.523  26.267  18.943  0.00  0.00    +0.077 A 
ATOM      5  C   UNL     1      17.692  25.690  20.246  0.00  0.00    +0.048 A 
ATOM      6  C   UNL     1      16.585  25.012  20.804  0.00  0.00    +0.116 A 
ATOM      7  N   UNL     1      15.402  24.925  20.103  0.00  0.00    -0.223 NA
ATOM      8  C   UNL     1      15.271  25.495  18.849  0.00  0.00    +0.220 A 
ATOM      9  N   UNL     1      14.093  25.412  18.123  0.00  0.00    -0.283 N 
ATOM     36  H   UNL     1      14.035  25.852  17.205  0.00  0.00    +0.155 HD
ATOM     37  N   UNL     1      16.314  26.148  18.295  0.00  0.00    -0.214 NA
BRANCH   4   3
ATOM      1  C   UNL     1      20.304  28.864  18.037  0.00  0.00    +0.020 A 
ATOM      2  C   UNL     1      19.268  28.181  18.777  0.00  0.00    +0.013 A 
ATOM      3  C   UNL     1      18.601  27.012  18.219  0.00  0.00    +0.019 A 
ATOM     38  C   UNL     1      19.010  26.554  16.900  0.00  0.00    +0.120 A 
ATOM     39  N   UNL     1      20.010  27.232  16.210  0.00  0.00    -0.263 NA
ATOM     40  C   UNL     1      20.658  28.360  16.736  0.00  0.00    +0.111 A 
ENDBRANCH   4   3
ENDBRANCH  10   9
BRANCH  12  13
ATOM     13  N   UNL     1      11.947  21.132  19.476  0.00  0.00    -0.281 N 
ATOM     14  C   UNL     1      11.543  20.161  18.575  0.00  0.00    +0.248 C 
ATOM     30  O   UNL     1      10.904  20.385  17.558  0.00  0.00    -0.270 OA
ATOM     31  H   UNL     1      12.299  20.794  20.372  0.00  0.00    +0.155 HD
BRANCH  14  15
ATOM     15  C   UNL     1      11.886  18.733  18.850  0.00  0.00    +0.037 A 
ATOM     16  C   UNL     1      11.123  17.941  19.818  0.00  0.00    +0.013 A 
ATOM     17  C   UNL     1      11.486  16.570  20.078  0.00  0.00    +0.005 A 
ATOM     18  C   UNL     1      12.618  15.982  19.366  0.00  0.00    -0.033 A 
ATOM     28  C   UNL     1      13.354  16.788  18.407  0.00  0.00    +0.005 A 
ATOM     29  C   UNL     1      13.002  18.133  18.151  0.00  0.00    +0.013 A 
BRANCH  18  19
ATOM     19  C   UNL     1      13.089  14.533  19.595  0.00  0.00    +0.119 C 
BRANCH  19  20
ATOM     20  N   UNL     1      12.037  13.505  19.850  0.00  0.00    -0.302 NA
ATOM     21  C   UNL     1      11.994  13.079  21.320  0.00  0.00    +0.066 C 
ATOM     22  C   UNL     1      10.873  12.018  21.573  0.00  0.00    -0.064 C 
ATOM     23  N   UNL     1      11.105  10.809  20.665  0.00  0.00    +0.379 N 
ATOM     24  C   UNL     1      10.086   9.786  20.942  0.00  0.00    -0.096 C 
ATOM     25  H   UNL     1      12.098  10.376  20.926  0.00  0.00    -0.082 HD
ATOM     26  C   UNL     1      11.151  11.224  19.202  0.00  0.00    -0.064 C 
ATOM     27  C   UNL     1      12.249  12.299  18.967  0.00  0.00    +0.066 C 
ENDBRANCH  19  20
ENDBRANCH  18  19
ENDBRANCH  14  15
ENDBRANCH  12  13
TORSDOF 6
ENDMDL
MODEL 4
REMARK VINA RESULT:      -9.2      2.194     11.883
REMARK  Name = C:\Users\Docking\Desktop\test protocol\1iep_ligandH.pdb
REMARK  8 active torsions:
REMARK  status: ('A' for Active; 'I' for Inactive)
REMARK    1  A    between atoms: _5  and  _11
REMARK    2  A    between atoms: _19  and  _21
REMARK    3  A    between atoms: _22  and  _66
REMARK    4  A    between atoms: _27  and  _30
REMARK    5  A    between atoms: _32  and  _33
REMARK    6  A    between atoms: _38  and  _43
REMARK    7  A    between atoms: _43  and  _46
REMARK    8  A    between atoms: _53  and  _55
REMARK                            x       y       z     vdW  Elec       q    Type
REMARK                         _______ _______ _______ _____ _____    ______ ____
ROOT
ATOM     10  C   UNL     1      12.673  24.623  18.715  0.00  0.00    +0.038 A 
ATOM     11  C   UNL     1      12.643  23.209  18.820  0.00  0.00    +0.047 A 
ATOM     12  C   UNL     1      11.504  22.522  19.410  0.00  0.00    +0.035 A 
ATOM     32  C   UNL     1      10.411  23.307  19.880  0.00  0.00    +0.024 A 
ATOM     33  C   UNL     1      10.425  24.745  19.782  0.00  0.00    +0.007 A 
ATOM     34  C   UNL     1      11.547  25.428  19.203  0.00  0.00    -0.029 A 
ATOM     35  C   UNL     1      11.511  26.973  19.129  0.00  0.00    +0.045 C 
ENDROOT
BRANCH  10   9
ATOM      4  C   UNL     1      17.229  26.121  18.881  0.00  0.00    +0.077 A 
ATOM      5  C   UNL     1      17.387  25.681  20.237  0.00  0.00    +0.048 A 
ATOM      6  C   UNL     1      16.268  25.081  20.858  0.00  0.00    +0.116 A 
ATOM      7  N   UNL     1      15.086  24.936  20.165  0.00  0.00    -0.223 NA
ATOM      8  C   UNL     1      14.968  25.372  18.858  0.00  0.00    +0.220 A 
ATOM      9  N   UNL     1      13.791  25.230  18.139  0.00  0.00    -0.283 N 
ATOM     36  H   UNL     1      13.742  25.571  17.180  0.00  0.00    +0.155 HD
ATOM     37  N   UNL     1      16.021  25.950  18.243  0.00  0.00    -0.214 NA
BRANCH   4   3
ATOM      1  C   UNL     1      19.996  28.612  17.681  0.00  0.00    +0.020 A 
ATOM      2  C   UNL     1      18.946  28.027  18.482  0.00  0.00    +0.013 A 
ATOM      3  C   UNL     1      18.320  26.771  18.088  0.00  0.00    +0.019 A 
ATOM     38  C   UNL     1      18.784  26.127  16.868  0.00  0.00    +0.120 A 
ATOM     39  N   UNL     1      19.797  26.715  16.116  0.00  0.00    -0.263 NA
ATOM     40  C   UNL     1      20.405  27.924  16.484  0.00  0.00    +0.111 A 
ENDBRANCH   4   3
ENDBRANCH  10   9
BRANCH  12  13
ATOM     13  N   UNL     1      11.421  21.089  19.551  0.00  0.00    -0.281 N 
ATOM     14  C   UNL     1      11.261  20.143  18.551  0.00  0.00    +0.248 C 
ATOM     30  O   UNL     1      10.951  20.401  17.398  0.00  0.00    -0.270 OA
ATOM     31  H   UNL     1      11.487  20.729  20.503  0.00  0.00    +0.155 HD
BRANCH  14  15
ATOM     15  C   UNL     1      11.462  18.700  18.885  0.00  0.00    +0.037 A 
ATOM     16  C   UNL     1      12.660  17.979  18.447  0.00  0.00    +0.013 A 
ATOM     17  C   UNL     1      12.821  16.583  18.768  0.00  0.00    +0.005 A 
ATOM     18  C   UNL     1      11.781  15.899  19.532  0.00  0.00    -0.033 A 
ATOM     28  C   UNL     1      10.605  16.640  19.958  0.00  0.00    +0.005 A 
ATOM     29  C   UNL     1      10.444  18.008  19.645  0.00  0.00    +0.013 A 
BRANCH  18  19
ATOM     19  C   UNL     1      11.859  14.405  19.901  0.00  0.00    +0.119 C 
BRANCH  19  20
ATOM     20  N   UNL     1      13.206  13.762  19.864  0.00  0.00    -0.302 NA
ATOM     21  C   UNL     1      13.112  12.240  19.719  0.00  0.00    +0.066 C 
ATOM     22  C   UNL     1      14.530  11.585  19.660  0.00  0.00    -0.064 C 
ATOM     23  N   UNL     1      15.316  11.962  20.917  0.00  0.00    +0.379 N 
ATOM     24  C   UNL     1      16.629  11.300  20.892  0.00  0.00    -0.096 C 
ATOM     25  H   UNL     1      14.756  11.568  21.796  0.00  0.00    -0.082 HD
ATOM     26  C   UNL     1      15.412  13.473  21.070  0.00  0.00    -0.064 C 
ATOM     27  C   UNL     1      13.998  14.117  21.099  0.00  0.00    +0.066 C 
ENDBRANCH  19  20
ENDBRANCH  18  19
ENDBRANCH  14  15
ENDBRANCH  12  13
TORSDOF 6
ENDMDL
MODEL 5
REMARK VINA RESULT:      -9.1      5.620     14.614
REMARK  Name = C:\Users\Docking\Desktop\test protocol\1iep_ligandH.pdb
REMARK  8 active torsions:
REMARK  status: ('A' for Active; 'I' for Inactive)
REMARK    1  A    between atoms: _5  and  _11
REMARK    2  A    between atoms: _19  and  _21
REMARK    3  A    between atoms: _22  and  _66
REMARK    4  A    between atoms: _27  and  _30
REMARK    5  A    between atoms: _32  and  _33
REMARK    6  A    between atoms: _38  and  _43
REMARK    7  A    between atoms: _43  and  _46
REMARK    8  A    between atoms: _53  and  _55
REMARK                            x       y       z     vdW  Elec       q    Type
REMARK                         _______ _______ _______ _____ _____    ______ ____
ROOT
ATOM     10  C   UNL     1      20.005  28.911  17.041  0.00  0.00    +0.038 A 
ATOM     11  C   UNL     1      18.794  28.395  17.570  0.00  0.00    +0.047 A 
ATOM     12  C   UNL     1      18.236  27.141  17.087  0.00  0.00    +0.035 A 
ATOM     32  C   UNL     1      18.940  26.437  16.066  0.00  0.00    +0.024 A 
ATOM     33  C   UNL     1      20.171  26.948  15.517  0.00  0.00    +0.007 A 
ATOM     34  C   UNL     1      20.724  28.185  15.987  0.00  0.00    -0.029 A 
ATOM     35  C   UNL     1      22.044  28.689  15.357  0.00  0.00    +0.045 C 
ENDROOT
BRANCH  10   9
ATOM      4  C   UNL     1      20.490  33.682  16.856  0.00  0.00    +0.077 A 
ATOM      5  C   UNL     1      19.726  33.773  15.645  0.00  0.00    +0.048 A 
ATOM      6  C   UNL     1      19.231  32.567  15.099  0.00  0.00    +0.116 A 
ATOM      7  N   UNL     1      19.488  31.367  15.725  0.00  0.00    -0.223 NA
ATOM      8  C   UNL     1      20.231  31.315  16.890  0.00  0.00    +0.220 A 
ATOM      9  N   UNL     1      20.495  30.119  17.541  0.00  0.00    -0.283 N 
ATOM     36  H   UNL     1      21.053  30.122  18.395  0.00  0.00    +0.155 HD
ATOM     37  N   UNL     1      20.715  32.452  17.431  0.00  0.00    -0.214 NA
BRANCH   4   3
ATOM      1  C   UNL     1      21.243  36.454  19.512  0.00  0.00    +0.020 A 
ATOM      2  C   UNL     1      20.643  35.302  18.878  0.00  0.00    +0.013 A 
ATOM      3  C   UNL     1      21.077  34.868  17.557  0.00  0.00    +0.019 A 
ATOM     38  C   UNL     1      22.130  35.627  16.898  0.00  0.00    +0.120 A 
ATOM     39  N   UNL     1      22.688  36.733  17.531  0.00  0.00    -0.263 NA
ATOM     40  C   UNL     1      22.277  37.161  18.803  0.00  0.00    +0.111 A 
ENDBRANCH   4   3
ENDBRANCH  10   9
BRANCH  12  13
ATOM     13  N   UNL     1      17.007  26.571  17.580  0.00  0.00    -0.281 N 
ATOM     14  C   UNL     1      16.791  25.925  18.787  0.00  0.00    +0.248 C 
ATOM     30  O   UNL     1      17.679  25.549  19.538  0.00  0.00    -0.270 OA
ATOM     31  H   UNL     1      16.197  26.654  16.965  0.00  0.00    +0.155 HD
BRANCH  14  15
ATOM     15  C   UNL     1      15.387  25.644  19.214  0.00  0.00    +0.037 A 
ATOM     16  C   UNL     1      15.102  24.883  20.433  0.00  0.00    +0.013 A 
ATOM     17  C   UNL     1      13.738  24.611  20.814  0.00  0.00    +0.005 A 
ATOM     18  C   UNL     1      12.649  25.103  19.974  0.00  0.00    -0.033 A 
ATOM     28  C   UNL     1      12.960  25.860  18.773  0.00  0.00    +0.005 A 
ATOM     29  C   UNL     1      14.295  26.127  18.396  0.00  0.00    +0.013 A 
BRANCH  18  19
ATOM     19  C   UNL     1      11.165  24.842  20.291  0.00  0.00    +0.119 C 
BRANCH  19  20
ATOM     20  N   UNL     1      10.169  25.178  19.231  0.00  0.00    -0.302 NA
ATOM     21  C   UNL     1       9.238  26.317  19.657  0.00  0.00    +0.066 C 
ATOM     22  C   UNL     1       8.217  26.671  18.526  0.00  0.00    -0.064 C 
ATOM     23  N   UNL     1       7.413  25.422  18.160  0.00  0.00    +0.379 N 
ATOM     24  C   UNL     1       6.413  25.765  17.138  0.00  0.00    -0.096 C 
ATOM     25  H   UNL     1       6.865  25.093  19.073  0.00  0.00    -0.082 HD
ATOM     26  C   UNL     1       8.331  24.284  17.738  0.00  0.00    -0.064 C 
ATOM     27  C   UNL     1       9.361  23.960  18.856  0.00  0.00    +0.066 C 
ENDBRANCH  19  20
ENDBRANCH  18  19
ENDBRANCH  14  15
ENDBRANCH  12  13
TORSDOF 6
ENDMDL
