MODEL 1
REMARK VINA RESULT:      -8.9      0.000      0.000
REMARK  Name = C:\Users\Docking\Desktop\test protocol\1iep_ligandH.pdb
REMARK  8 active torsions:
REMARK  status: ('A' for Active; 'I' for Inactive)
REMARK    1  A    between atoms: _5  and  _11
REMARK    2  A    between atoms: _19  and  _21
REMARK    3  A    between atoms: _22  and  _66
REMARK    4  A    between atoms: _27  and  _30
REMARK    5  A    between atoms: _32  and  _33
REMARK    6  A    between atoms: _38  and  _43
REMARK    7  A    between atoms: _43  and  _46
REMARK    8  A    between atoms: _53  and  _55
REMARK                            x       y       z     vdW  Elec       q    Type
REMARK                         _______ _______ _______ _____ _____    ______ ____
ROOT
ATOM     10  C   UNL     1     -16.428 -32.957  41.378  0.00  0.00    +0.038 A 
ATOM     11  C   UNL     1     -17.751 -33.252  41.794  0.00  0.00    +0.047 A 
ATOM     12  C   UNL     1     -18.854 -33.265  40.846  0.00  0.00    +0.035 A 
ATOM     32  C   UNL     1     -18.572 -32.974  39.479  0.00  0.00    +0.024 A 
ATOM     33  C   UNL     1     -17.234 -32.671  39.038  0.00  0.00    +0.007 A 
ATOM     34  C   UNL     1     -16.142 -32.654  39.970  0.00  0.00    -0.029 A 
ATOM     35  C   UNL     1     -14.729 -32.316  39.442  0.00  0.00    +0.045 C 
ENDROOT
BRANCH  10   9
ATOM      4  C   UNL     1     -13.080 -35.194  43.990  0.00  0.00    +0.077 A 
ATOM      5  C   UNL     1     -13.411 -36.472  43.428  0.00  0.00    +0.048 A 
ATOM      6  C   UNL     1     -14.454 -36.511  42.475  0.00  0.00    +0.116 A 
ATOM      7  N   UNL     1     -15.109 -35.353  42.118  0.00  0.00    -0.223 NA
ATOM      8  C   UNL     1     -14.766 -34.137  42.681  0.00  0.00    +0.220 A 
ATOM      9  N   UNL     1     -15.407 -32.959  42.331  0.00  0.00    -0.283 N 
ATOM     36  H   UNL     1     -15.130 -32.083  42.774  0.00  0.00    +0.155 HD
ATOM     37  N   UNL     1     -13.775 -34.073  43.594  0.00  0.00    -0.214 NA
BRANCH   4   3
ATOM      1  C   UNL     1     -10.765 -33.594  46.706  0.00  0.00    +0.020 A 
ATOM      2  C   UNL     1     -11.824 -33.739  45.734  0.00  0.00    +0.013 A 
ATOM      3  C   UNL     1     -12.000 -34.990  45.006  0.00  0.00    +0.019 A 
ATOM     38  C   UNL     1     -11.081 -36.082  45.288  0.00  0.00    +0.120 A 
ATOM     39  N   UNL     1     -10.070 -35.912  46.228  0.00  0.00    -0.263 NA
ATOM     40  C   UNL     1      -9.889 -34.713  46.934  0.00  0.00    +0.111 A 
ENDBRANCH   4   3
ENDBRANCH  10   9
BRANCH  12  13
ATOM     13  N   UNL     1     -20.219 -33.550  41.212  0.00  0.00    -0.281 N 
ATOM     14  C   UNL     1     -20.860 -34.778  41.219  0.00  0.00    +0.248 C 
ATOM     30  O   UNL     1     -20.415 -35.793  40.704  0.00  0.00    -0.270 OA
ATOM     31  H   UNL     1     -20.781 -32.749  41.502  0.00  0.00    +0.155 HD
BRANCH  14  15
ATOM     15  C   UNL     1     -22.195 -34.892  41.881  0.00  0.00    +0.037 A 
ATOM     16  C   UNL     1     -22.334 -35.483  43.215  0.00  0.00    +0.013 A 
ATOM     17  C   UNL     1     -23.636 -35.596  43.824  0.00  0.00    +0.005 A 
ATOM     18  C   UNL     1     -24.809 -35.115  43.099  0.00  0.00    -0.033 A 
ATOM     28  C   UNL     1     -24.642 -34.528  41.780  0.00  0.00    +0.005 A 
ATOM     29  C   UNL     1     -23.368 -34.416  41.179  0.00  0.00    +0.013 A 
BRANCH  18  19
ATOM     19  C   UNL     1     -26.239 -35.215  43.663  0.00  0.00    +0.119 C 
BRANCH  19  20
ATOM     20  N   UNL     1     -26.727 -34.075  44.496  0.00  0.00    -0.302 NA
ATOM     21  C   UNL     1     -26.207 -34.150  45.934  0.00  0.00    +0.066 C 
ATOM     22  C   UNL     1     -26.708 -32.938  46.785  0.00  0.00    -0.064 C 
ATOM     23  N   UNL     1     -28.237 -32.901  46.763  0.00  0.00    +0.379 N 
ATOM     24  C   UNL     1     -28.714 -31.797  47.609  0.00  0.00    -0.096 C 
ATOM     25  H   UNL     1     -28.605 -33.854  47.211  0.00  0.00    -0.082 HD
ATOM     26  C   UNL     1     -28.763 -32.829  45.336  0.00  0.00    -0.064 C 
ATOM     27  C   UNL     1     -28.235 -34.022  44.492  0.00  0.00    +0.066 C 
ENDBRANCH  19  20
ENDBRANCH  18  19
ENDBRANCH  14  15
ENDBRANCH  12  13
TORSDOF 6
ENDMDL
MODEL 2
REMARK VINA RESULT:      -8.4      1.693      2.550
REMARK  Name = C:\Users\Docking\Desktop\test protocol\1iep_ligandH.pdb
REMARK  8 active torsions:
REMARK  status: ('A' for Active; 'I' for Inactive)
REMARK    1  A    between atoms: _5  and  _11
REMARK    2  A    between atoms: _19  and  _21
REMARK    3  A    between atoms: _22  and  _66
REMARK    4  A    between atoms: _27  and  _30
REMARK    5  A    between atoms: _32  and  _33
REMARK    6  A    between atoms: _38  and  _43
REMARK    7  A    between atoms: _43  and  _46
REMARK    8  A    between atoms: _53  and  _55
REMARK                            x       y       z     vdW  Elec       q    Type
REMARK                         _______ _______ _______ _____ _____    ______ ____
ROOT
ATOM     10  C   UNL     1     -16.560 -32.989  41.209  0.00  0.00    +0.038 A 
ATOM     11  C   UNL     1     -17.890 -33.301  41.591  0.00  0.00    +0.047 A 
ATOM     12  C   UNL     1     -18.969 -33.315  40.616  0.00  0.00    +0.035 A 
ATOM     32  C   UNL     1     -18.658 -33.008  39.259  0.00  0.00    +0.024 A 
ATOM     33  C   UNL     1     -17.312 -32.688  38.854  0.00  0.00    +0.007 A 
ATOM     34  C   UNL     1     -16.244 -32.671  39.812  0.00  0.00    -0.029 A 
ATOM     35  C   UNL     1     -14.821 -32.314  39.322  0.00  0.00    +0.045 C 
ENDROOT
BRANCH  10   9
ATOM      4  C   UNL     1     -13.168 -35.195  43.791  0.00  0.00    +0.077 A 
ATOM      5  C   UNL     1     -13.422 -36.456  43.157  0.00  0.00    +0.048 A 
ATOM      6  C   UNL     1     -14.439 -36.497  42.177  0.00  0.00    +0.116 A 
ATOM      7  N   UNL     1     -15.143 -35.354  41.862  0.00  0.00    -0.223 NA
ATOM      8  C   UNL     1     -14.873 -34.154  42.494  0.00  0.00    +0.220 A 
ATOM      9  N   UNL     1     -15.563 -32.991  42.187  0.00  0.00    -0.283 N 
ATOM     36  H   UNL     1     -15.339 -32.127  42.681  0.00  0.00    +0.155 HD
ATOM     37  N   UNL     1     -13.908 -34.090  43.434  0.00  0.00    -0.214 NA
BRANCH   4   3
ATOM      1  C   UNL     1     -10.928 -33.587  46.566  0.00  0.00    +0.020 A 
ATOM      2  C   UNL     1     -11.953 -33.732  45.558  0.00  0.00    +0.013 A 
ATOM      3  C   UNL     1     -12.123 -34.991  44.844  0.00  0.00    +0.019 A 
ATOM     38  C   UNL     1     -11.233 -36.093  45.176  0.00  0.00    +0.120 A 
ATOM     39  N   UNL     1     -10.254 -35.924  46.151  0.00  0.00    -0.263 NA
ATOM     40  C   UNL     1     -10.080 -34.717  46.844  0.00  0.00    +0.111 A 
ENDBRANCH   4   3
ENDBRANCH  10   9
BRANCH  12  13
ATOM     13  N   UNL     1     -20.340 -33.616  40.946  0.00  0.00    -0.281 N 
ATOM     14  C   UNL     1     -20.870 -34.827  41.360  0.00  0.00    +0.248 C 
ATOM     30  O   UNL     1     -20.279 -35.896  41.304  0.00  0.00    -0.270 OA
ATOM     31  H   UNL     1     -21.000 -32.843  40.865  0.00  0.00    +0.155 HD
BRANCH  14  15
ATOM     15  C   UNL     1     -22.263 -34.859  41.902  0.00  0.00    +0.037 A 
ATOM     16  C   UNL     1     -22.578 -35.562  43.148  0.00  0.00    +0.013 A 
ATOM     17  C   UNL     1     -23.933 -35.592  43.639  0.00  0.00    +0.005 A 
ATOM     18  C   UNL     1     -24.983 -34.913  42.884  0.00  0.00    -0.033 A 
ATOM     28  C   UNL     1     -24.642 -34.218  41.654  0.00  0.00    +0.005 A 
ATOM     29  C   UNL     1     -23.315 -34.188  41.169  0.00  0.00    +0.013 A 
BRANCH  18  19
ATOM     19  C   UNL     1     -26.460 -34.910  43.322  0.00  0.00    +0.119 C 
BRANCH  19  20
ATOM     20  N   UNL     1     -27.493 -34.918  42.244  0.00  0.00    -0.302 NA
ATOM     21  C   UNL     1     -28.863 -34.467  42.758  0.00  0.00    +0.066 C 
ATOM     22  C   UNL     1     -29.927 -34.459  41.612  0.00  0.00    -0.064 C 
ATOM     23  N   UNL     1     -30.014 -35.855  40.992  0.00  0.00    +0.379 N 
ATOM     24  C   UNL     1     -31.054 -35.866  39.954  0.00  0.00    -0.096 C 
ATOM     25  H   UNL     1     -30.329 -36.562  41.795  0.00  0.00    -0.082 HD
ATOM     26  C   UNL     1     -28.655 -36.313  40.481  0.00  0.00    -0.064 C 
ATOM     27  C   UNL     1     -27.599 -36.288  41.621  0.00  0.00    +0.066 C 
ENDBRANCH  19  20
ENDBRANCH  18  19
ENDBRANCH  14  15
ENDBRANCH  12  13
TORSDOF 6
ENDMDL
MODEL 3
REMARK VINA RESULT:      -8.4     27.742     30.674
REMARK  Name = C:\Users\Docking\Desktop\test protocol\1iep_ligandH.pdb
REMARK  8 active torsions:
REMARK  status: ('A' for Active; 'I' for Inactive)
REMARK    1  A    between atoms: _5  and  _11
REMARK    2  A    between atoms: _19  and  _21
REMARK    3  A    between atoms: _22  and  _66
REMARK    4  A    between atoms: _27  and  _30
REMARK    5  A    between atoms: _32  and  _33
REMARK    6  A    between atoms: _38  and  _43
REMARK    7  A    between atoms: _43  and  _46
REMARK    8  A    between atoms: _53  and  _55
REMARK                            x       y       z     vdW  Elec       q    Type
REMARK                         _______ _______ _______ _____ _____    ______ ____
ROOT
ATOM     10  C   UNL     1       3.872 -42.108  25.552  0.00  0.00    +0.038 A 
ATOM     11  C   UNL     1       3.162 -43.281  25.912  0.00  0.00    +0.047 A 
ATOM     12  C   UNL     1       2.860 -43.581  27.303  0.00  0.00    +0.035 A 
ATOM     32  C   UNL     1       3.294 -42.661  28.302  0.00  0.00    +0.024 A 
ATOM     33  C   UNL     1       4.017 -41.463  27.953  0.00  0.00    +0.007 A 
ATOM     34  C   UNL     1       4.320 -41.164  26.583  0.00  0.00    -0.029 A 
ATOM     35  C   UNL     1       5.104 -39.869  26.268  0.00  0.00    +0.045 C 
ENDROOT
BRANCH  10   9
ATOM      4  C   UNL     1       2.593 -40.517  21.207  0.00  0.00    +0.077 A 
ATOM      5  C   UNL     1       1.281 -40.154  21.661  0.00  0.00    +0.048 A 
ATOM      6  C   UNL     1       0.973 -40.400  23.018  0.00  0.00    +0.116 A 
ATOM      7  N   UNL     1       1.914 -40.966  23.850  0.00  0.00    -0.223 NA
ATOM      8  C   UNL     1       3.169 -41.306  23.380  0.00  0.00    +0.220 A 
ATOM      9  N   UNL     1       4.134 -41.870  24.201  0.00  0.00    -0.283 N 
ATOM     36  H   UNL     1       5.046 -42.113  23.814  0.00  0.00    +0.155 HD
ATOM     37  N   UNL     1       3.488 -41.083  22.088  0.00  0.00    -0.214 NA
BRANCH   4   3
ATOM      1  C   UNL     1       3.019 -39.145  17.569  0.00  0.00    +0.020 A 
ATOM      2  C   UNL     1       2.523 -39.296  18.918  0.00  0.00    +0.013 A 
ATOM      3  C   UNL     1       3.069 -40.318  19.802  0.00  0.00    +0.019 A 
ATOM     38  C   UNL     1       4.126 -41.176  19.287  0.00  0.00    +0.120 A 
ATOM     39  N   UNL     1       4.583 -41.007  17.984  0.00  0.00    -0.263 NA
ATOM     40  C   UNL     1       4.063 -40.029  17.123  0.00  0.00    +0.111 A 
ENDBRANCH   4   3
ENDBRANCH  10   9
BRANCH  12  13
ATOM     13  N   UNL     1       2.150 -44.761  27.730  0.00  0.00    -0.281 N 
ATOM     14  C   UNL     1       0.902 -44.835  28.327  0.00  0.00    +0.248 C 
ATOM     30  O   UNL     1       0.295 -43.876  28.780  0.00  0.00    -0.270 OA
ATOM     31  H   UNL     1       2.625 -45.650  27.574  0.00  0.00    +0.155 HD
BRANCH  14  15
ATOM     15  C   UNL     1       0.238 -46.168  28.450  0.00  0.00    +0.037 A 
ATOM     16  C   UNL     1       0.875 -47.270  29.176  0.00  0.00    +0.013 A 
ATOM     17  C   UNL     1       0.220 -48.551  29.266  0.00  0.00    +0.005 A 
ATOM     18  C   UNL     1      -1.081 -48.737  28.627  0.00  0.00    -0.033 A 
ATOM     28  C   UNL     1      -1.692 -47.625  27.917  0.00  0.00    +0.005 A 
ATOM     29  C   UNL     1      -1.053 -46.368  27.827  0.00  0.00    +0.013 A 
BRANCH  18  19
ATOM     19  C   UNL     1      -1.842 -50.076  28.653  0.00  0.00    +0.119 C 
BRANCH  19  20
ATOM     20  N   UNL     1      -1.415 -51.123  27.678  0.00  0.00    -0.302 NA
ATOM     21  C   UNL     1      -0.194 -50.688  26.864  0.00  0.00    +0.066 C 
ATOM     22  C   UNL     1       0.252 -51.805  25.865  0.00  0.00    -0.064 C 
ATOM     23  N   UNL     1      -0.917 -52.157  24.943  0.00  0.00    +0.379 N 
ATOM     24  C   UNL     1      -0.483 -53.165  23.965  0.00  0.00    -0.096 C 
ATOM     25  H   UNL     1      -1.192 -51.235  24.379  0.00  0.00    -0.082 HD
ATOM     26  C   UNL     1      -2.136 -52.588  25.745  0.00  0.00    -0.064 C 
ATOM     27  C   UNL     1      -2.553 -51.483  26.755  0.00  0.00    +0.066 C 
ENDBRANCH  19  20
ENDBRANCH  18  19
ENDBRANCH  14  15
ENDBRANCH  12  13
TORSDOF 6
ENDMDL
MODEL 4
REMARK VINA RESULT:      -8.3      2.431     12.789
REMARK  Name = C:\Users\Docking\Desktop\test protocol\1iep_ligandH.pdb
REMARK  8 active torsions:
REMARK  status: ('A' for Active; 'I' for Inactive)
REMARK    1  A    between atoms: _5  and  _11
REMARK    2  A    between atoms: _19  and  _21
REMARK    3  A    between atoms: _22  and  _66
REMARK    4  A    between atoms: _27  and  _30
REMARK    5  A    between atoms: _32  and  _33
REMARK    6  A    between atoms: _38  and  _43
REMARK    7  A    between atoms: _43  and  _46
REMARK    8  A    between atoms: _53  and  _55
REMARK                            x       y       z     vdW  Elec       q    Type
REMARK                         _______ _______ _______ _____ _____    ______ ____
ROOT
ATOM     10  C   UNL     1     -25.927 -35.620  43.565  0.00  0.00    +0.038 A 
ATOM     11  C   UNL     1     -24.646 -35.063  43.318  0.00  0.00    +0.047 A 
ATOM     12  C   UNL     1     -23.987 -35.232  42.032  0.00  0.00    +0.035 A 
ATOM     32  C   UNL     1     -24.664 -35.972  41.018  0.00  0.00    +0.024 A 
ATOM     33  C   UNL     1     -25.965 -36.546  41.253  0.00  0.00    +0.007 A 
ATOM     34  C   UNL     1     -26.619 -36.385  42.520  0.00  0.00    -0.029 A 
ATOM     35  C   UNL     1     -28.011 -37.028  42.718  0.00  0.00    +0.045 C 
ENDROOT
BRANCH  10   9
ATOM      4  C   UNL     1     -28.371 -32.967  46.731  0.00  0.00    +0.077 A 
ATOM      5  C   UNL     1     -28.465 -31.862  45.821  0.00  0.00    +0.048 A 
ATOM      6  C   UNL     1     -27.866 -32.014  44.551  0.00  0.00    +0.116 A 
ATOM      7  N   UNL     1     -27.222 -33.188  44.226  0.00  0.00    -0.223 NA
ATOM      8  C   UNL     1     -27.148 -34.234  45.127  0.00  0.00    +0.220 A 
ATOM      9  N   UNL     1     -26.512 -35.427  44.818  0.00  0.00    -0.283 N 
ATOM     36  H   UNL     1     -26.473 -36.172  45.513  0.00  0.00    +0.155 HD
ATOM     37  N   UNL     1     -27.711 -34.113  46.347  0.00  0.00    -0.214 NA
BRANCH   4   3
ATOM      1  C   UNL     1     -29.657 -31.797  50.235  0.00  0.00    +0.020 A 
ATOM      2  C   UNL     1     -29.083 -31.750  48.910  0.00  0.00    +0.013 A 
ATOM      3  C   UNL     1     -28.957 -32.960  48.109  0.00  0.00    +0.019 A 
ATOM     38  C   UNL     1     -29.426 -34.213  48.682  0.00  0.00    +0.120 A 
ATOM     39  N   UNL     1     -29.973 -34.229  49.961  0.00  0.00    -0.263 NA
ATOM     40  C   UNL     1     -30.097 -33.070  50.742  0.00  0.00    +0.111 A 
ENDBRANCH   4   3
ENDBRANCH  10   9
BRANCH  12  13
ATOM     13  N   UNL     1     -22.684 -34.696  41.725  0.00  0.00    -0.281 N 
ATOM     14  C   UNL     1     -21.463 -35.069  42.262  0.00  0.00    +0.248 C 
ATOM     30  O   UNL     1     -21.329 -35.777  43.249  0.00  0.00    -0.270 OA
ATOM     31  H   UNL     1     -22.659 -33.952  41.028  0.00  0.00    +0.155 HD
BRANCH  14  15
ATOM     15  C   UNL     1     -20.209 -34.571  41.618  0.00  0.00    +0.037 A 
ATOM     16  C   UNL     1     -19.171 -33.894  42.399  0.00  0.00    +0.013 A 
ATOM     17  C   UNL     1     -17.979 -33.408  41.750  0.00  0.00    +0.005 A 
ATOM     18  C   UNL     1     -17.818 -33.600  40.311  0.00  0.00    -0.033 A 
ATOM     28  C   UNL     1     -18.862 -34.280  39.561  0.00  0.00    +0.005 A 
ATOM     29  C   UNL     1     -20.032 -34.756  40.194  0.00  0.00    +0.013 A 
BRANCH  18  19
ATOM     19  C   UNL     1     -16.589 -33.096  39.532  0.00  0.00    +0.119 C 
BRANCH  19  20
ATOM     20  N   UNL     1     -15.276 -33.740  39.835  0.00  0.00    -0.302 NA
ATOM     21  C   UNL     1     -15.413 -35.250  40.050  0.00  0.00    +0.066 C 
ATOM     22  C   UNL     1     -14.027 -35.911  40.344  0.00  0.00    -0.064 C 
ATOM     23  N   UNL     1     -13.397 -35.245  41.568  0.00  0.00    +0.379 N 
ATOM     24  C   UNL     1     -12.120 -35.903  41.882  0.00  0.00    -0.096 C 
ATOM     25  H   UNL     1     -14.082 -35.407  42.432  0.00  0.00    -0.082 HD
ATOM     26  C   UNL     1     -13.259 -33.743  41.364  0.00  0.00    -0.064 C 
ATOM     27  C   UNL     1     -14.638 -33.100  41.044  0.00  0.00    +0.066 C 
ENDBRANCH  19  20
ENDBRANCH  18  19
ENDBRANCH  14  15
ENDBRANCH  12  13
TORSDOF 6
ENDMDL
MODEL 5
REMARK VINA RESULT:      -8.3     27.991     31.581
REMARK  Name = C:\Users\Docking\Desktop\test protocol\1iep_ligandH.pdb
REMARK  8 active torsions:
REMARK  status: ('A' for Active; 'I' for Inactive)
REMARK    1  A    between atoms: _5  and  _11
REMARK    2  A    between atoms: _19  and  _21
REMARK    3  A    between atoms: _22  and  _66
REMARK    4  A    between atoms: _27  and  _30
REMARK    5  A    between atoms: _32  and  _33
REMARK    6  A    between atoms: _38  and  _43
REMARK    7  A    between atoms: _43  and  _46
REMARK    8  A    between atoms: _53  and  _55
REMARK                            x       y       z     vdW  Elec       q    Type
REMARK                         _______ _______ _______ _____ _____    ______ ____
ROOT
ATOM     10  C   UNL     1       4.426 -40.863  24.014  0.00  0.00    +0.038 A 
ATOM     11  C   UNL     1       3.901 -42.113  24.431  0.00  0.00    +0.047 A 
ATOM     12  C   UNL     1       3.200 -42.250  25.699  0.00  0.00    +0.035 A 
ATOM     32  C   UNL     1       3.050 -41.092  26.516  0.00  0.00    +0.024 A 
ATOM     33  C   UNL     1       3.579 -39.814  26.108  0.00  0.00    +0.007 A 
ATOM     34  C   UNL     1       4.273 -39.673  24.860  0.00  0.00    -0.029 A 
ATOM     35  C   UNL     1       4.824 -38.280  24.477  0.00  0.00    +0.045 C 
ENDROOT
BRANCH  10   9
ATOM      4  C   UNL     1       4.453 -40.379  19.239  0.00  0.00    +0.077 A 
ATOM      5  C   UNL     1       3.023 -40.294  19.180  0.00  0.00    +0.048 A 
ATOM      6  C   UNL     1       2.316 -40.387  20.401  0.00  0.00    +0.116 A 
ATOM      7  N   UNL     1       3.000 -40.551  21.586  0.00  0.00    -0.223 NA
ATOM      8  C   UNL     1       4.381 -40.631  21.607  0.00  0.00    +0.220 A 
ATOM      9  N   UNL     1       5.090 -40.789  22.788  0.00  0.00    -0.283 N 
ATOM     36  H   UNL     1       6.107 -40.851  22.761  0.00  0.00    +0.155 HD
ATOM     37  N   UNL     1       5.078 -40.547  20.455  0.00  0.00    -0.214 NA
BRANCH   4   3
ATOM      1  C   UNL     1       6.583 -39.005  16.260  0.00  0.00    +0.020 A 
ATOM      2  C   UNL     1       5.724 -39.031  17.421  0.00  0.00    +0.013 A 
ATOM      3  C   UNL     1       5.340 -40.295  18.035  0.00  0.00    +0.019 A 
ATOM     38  C   UNL     1       5.846 -41.525  17.446  0.00  0.00    +0.120 A 
ATOM     39  N   UNL     1       6.671 -41.469  16.326  0.00  0.00    -0.263 NA
ATOM     40  C   UNL     1       7.046 -40.258  15.726  0.00  0.00    +0.111 A 
ENDBRANCH   4   3
ENDBRANCH  10   9
BRANCH  12  13
ATOM     13  N   UNL     1       2.653 -43.495  26.178  0.00  0.00    -0.281 N 
ATOM     14  C   UNL     1       2.826 -44.078  27.422  0.00  0.00    +0.248 C 
ATOM     30  O   UNL     1       3.657 -43.720  28.244  0.00  0.00    -0.270 OA
ATOM     31  H   UNL     1       2.066 -44.008  25.520  0.00  0.00    +0.155 HD
BRANCH  14  15
ATOM     15  C   UNL     1       1.961 -45.236  27.804  0.00  0.00    +0.037 A 
ATOM     16  C   UNL     1       0.523 -45.069  28.026  0.00  0.00    +0.013 A 
ATOM     17  C   UNL     1      -0.286 -46.199  28.410  0.00  0.00    +0.005 A 
ATOM     18  C   UNL     1       0.344 -47.508  28.572  0.00  0.00    -0.033 A 
ATOM     28  C   UNL     1       1.772 -47.646  28.340  0.00  0.00    +0.005 A 
ATOM     29  C   UNL     1       2.568 -46.540  27.965  0.00  0.00    +0.013 A 
BRANCH  18  19
ATOM     19  C   UNL     1      -0.438 -48.764  29.000  0.00  0.00    +0.119 C 
BRANCH  19  20
ATOM     20  N   UNL     1      -0.827 -49.726  27.926  0.00  0.00    -0.302 NA
ATOM     21  C   UNL     1      -2.319 -49.642  27.593  0.00  0.00    +0.066 C 
ATOM     22  C   UNL     1      -2.704 -50.639  26.452  0.00  0.00    -0.064 C 
ATOM     23  N   UNL     1      -2.321 -52.060  26.869  0.00  0.00    +0.379 N 
ATOM     24  C   UNL     1      -2.735 -53.007  25.823  0.00  0.00    -0.096 C 
ATOM     25  H   UNL     1      -2.893 -52.307  27.794  0.00  0.00    -0.082 HD
ATOM     26  C   UNL     1      -0.839 -52.151  27.204  0.00  0.00    -0.064 C 
ATOM     27  C   UNL     1      -0.461 -51.136  28.318  0.00  0.00    +0.066 C 
ENDBRANCH  19  20
ENDBRANCH  18  19
ENDBRANCH  14  15
ENDBRANCH  12  13
TORSDOF 6
ENDMDL
