MODEL 1
REMARK VINA RESULT:      -9.7      0.000      0.000
REMARK  Name = C:\Users\Docking\Desktop\test protocol\1iep_ligandH.pdb
REMARK  8 active torsions:
REMARK  status: ('A' for Active; 'I' for Inactive)
REMARK    1  A    between atoms: _5  and  _11
REMARK    2  A    between atoms: _19  and  _21
REMARK    3  A    between atoms: _22  and  _66
REMARK    4  A    between atoms: _27  and  _30
REMARK    5  A    between atoms: _32  and  _33
REMARK    6  A    between atoms: _38  and  _43
REMARK    7  A    between atoms: _43  and  _46
REMARK    8  A    between atoms: _53  and  _55
REMARK                            x       y       z     vdW  Elec       q    Type
REMARK                         _______ _______ _______ _____ _____    ______ ____
ROOT
ATOM     10  C   UNL     1     -72.412  43.596  12.842  0.00  0.00    +0.038 A 
ATOM     11  C   UNL     1     -73.495  44.449  12.508  0.00  0.00    +0.047 A 
ATOM     12  C   UNL     1     -74.342  44.174  11.358  0.00  0.00    +0.035 A 
ATOM     32  C   UNL     1     -74.059  43.020  10.571  0.00  0.00    +0.024 A 
ATOM     33  C   UNL     1     -72.961  42.143  10.896  0.00  0.00    +0.007 A 
ATOM     34  C   UNL     1     -72.121  42.411  12.028  0.00  0.00    -0.029 A 
ATOM     35  C   UNL     1     -70.955  41.440  12.325  0.00  0.00    +0.045 C 
ENDROOT
BRANCH  10   9
ATOM      4  C   UNL     1     -69.560  46.557  15.319  0.00  0.00    +0.077 A 
ATOM      5  C   UNL     1     -69.607  47.558  14.292  0.00  0.00    +0.048 A 
ATOM      6  C   UNL     1     -70.370  47.268  13.139  0.00  0.00    +0.116 A 
ATOM      7  N   UNL     1     -71.034  46.065  13.032  0.00  0.00    -0.223 NA
ATOM      8  C   UNL     1     -70.966  45.121  14.041  0.00  0.00    +0.220 A 
ATOM      9  N   UNL     1     -71.632  43.908  13.958  0.00  0.00    -0.283 N 
ATOM     36  H   UNL     1     -71.551  43.236  14.720  0.00  0.00    +0.155 HD
ATOM     37  N   UNL     1     -70.242  45.373  15.151  0.00  0.00    -0.214 NA
BRANCH   4   3
ATOM      1  C   UNL     1     -68.568  47.521  18.978  0.00  0.00    +0.020 A 
ATOM      2  C   UNL     1     -69.345  47.395  17.767  0.00  0.00    +0.013 A 
ATOM      3  C   UNL     1     -68.798  46.717  16.598  0.00  0.00    +0.019 A 
ATOM     38  C   UNL     1     -67.451  46.174  16.689  0.00  0.00    +0.120 A 
ATOM     39  N   UNL     1     -66.726  46.312  17.868  0.00  0.00    -0.263 NA
ATOM     40  C   UNL     1     -67.242  46.964  18.999  0.00  0.00    +0.111 A 
ENDBRANCH   4   3
ENDBRANCH  10   9
BRANCH  12  13
ATOM     13  N   UNL     1     -75.450  45.009  10.964  0.00  0.00    -0.281 N 
ATOM     14  C   UNL     1     -75.408  46.290  10.439  0.00  0.00    +0.248 C 
ATOM     30  O   UNL     1     -74.412  46.999  10.426  0.00  0.00    -0.270 OA
ATOM     31  H   UNL     1     -76.379  44.606  11.089  0.00  0.00    +0.155 HD
BRANCH  14  15
ATOM     15  C   UNL     1     -76.654  46.873   9.856  0.00  0.00    +0.037 A 
ATOM     16  C   UNL     1     -77.671  46.023   9.230  0.00  0.00    +0.013 A 
ATOM     17  C   UNL     1     -78.856  46.613   8.661  0.00  0.00    +0.005 A 
ATOM     18  C   UNL     1     -79.032  48.062   8.716  0.00  0.00    -0.033 A 
ATOM     28  C   UNL     1     -78.011  48.881   9.348  0.00  0.00    +0.005 A 
ATOM     29  C   UNL     1     -76.847  48.307   9.906  0.00  0.00    +0.013 A 
BRANCH  18  19
ATOM     19  C   UNL     1     -80.256  48.780   8.116  0.00  0.00    +0.119 C 
BRANCH  19  20
ATOM     20  N   UNL     1     -80.188  49.153   6.671  0.00  0.00    -0.302 NA
ATOM     21  C   UNL     1     -79.599  50.551   6.466  0.00  0.00    +0.066 C 
ATOM     22  C   UNL     1     -79.515  50.917   4.948  0.00  0.00    -0.064 C 
ATOM     23  N   UNL     1     -80.909  50.819   4.325  0.00  0.00    +0.379 N 
ATOM     24  C   UNL     1     -80.844  51.218   2.912  0.00  0.00    -0.096 C 
ATOM     25  H   UNL     1     -81.567  51.548   4.853  0.00  0.00    -0.082 HD
ATOM     26  C   UNL     1     -81.503  49.432   4.527  0.00  0.00    -0.064 C 
ATOM     27  C   UNL     1     -81.555  49.067   6.037  0.00  0.00    +0.066 C 
ENDBRANCH  19  20
ENDBRANCH  18  19
ENDBRANCH  14  15
ENDBRANCH  12  13
TORSDOF 6
ENDMDL
MODEL 2
REMARK VINA RESULT:      -9.0     28.038     31.094
REMARK  Name = C:\Users\Docking\Desktop\test protocol\1iep_ligandH.pdb
REMARK  8 active torsions:
REMARK  status: ('A' for Active; 'I' for Inactive)
REMARK    1  A    between atoms: _5  and  _11
REMARK    2  A    between atoms: _19  and  _21
REMARK    3  A    between atoms: _22  and  _66
REMARK    4  A    between atoms: _27  and  _30
REMARK    5  A    between atoms: _32  and  _33
REMARK    6  A    between atoms: _38  and  _43
REMARK    7  A    between atoms: _43  and  _46
REMARK    8  A    between atoms: _53  and  _55
REMARK                            x       y       z     vdW  Elec       q    Type
REMARK                         _______ _______ _______ _____ _____    ______ ____
ROOT
ATOM     10  C   UNL     1     -72.046  21.328  23.853  0.00  0.00    +0.038 A 
ATOM     11  C   UNL     1     -71.054  21.976  24.632  0.00  0.00    +0.047 A 
ATOM     12  C   UNL     1     -69.658  21.977  24.224  0.00  0.00    +0.035 A 
ATOM     32  C   UNL     1     -69.308  21.311  23.013  0.00  0.00    +0.024 A 
ATOM     33  C   UNL     1     -70.303  20.647  22.209  0.00  0.00    +0.007 A 
ATOM     34  C   UNL     1     -71.681  20.640  22.608  0.00  0.00    -0.029 A 
ATOM     35  C   UNL     1     -72.705  19.906  21.711  0.00  0.00    +0.045 C 
ENDROOT
BRANCH  10   9
ATOM      4  C   UNL     1     -75.690  19.567  26.433  0.00  0.00    +0.077 A 
ATOM      5  C   UNL     1     -74.893  18.481  26.926  0.00  0.00    +0.048 A 
ATOM      6  C   UNL     1     -73.553  18.407  26.486  0.00  0.00    +0.116 A 
ATOM      7  N   UNL     1     -73.056  19.355  25.617  0.00  0.00    -0.223 NA
ATOM      8  C   UNL     1     -73.852  20.389  25.160  0.00  0.00    +0.220 A 
ATOM      9  N   UNL     1     -73.371  21.358  24.292  0.00  0.00    -0.283 N 
ATOM     36  H   UNL     1     -73.992  22.101  23.972  0.00  0.00    +0.155 HD
ATOM     37  N   UNL     1     -75.136  20.481  25.564  0.00  0.00    -0.214 NA
BRANCH   4   3
ATOM      1  C   UNL     1     -79.583  19.904  26.266  0.00  0.00    +0.020 A 
ATOM      2  C   UNL     1     -78.217  19.687  25.851  0.00  0.00    +0.013 A 
ATOM      3  C   UNL     1     -77.123  19.783  26.809  0.00  0.00    +0.019 A 
ATOM     38  C   UNL     1     -77.449  20.101  28.191  0.00  0.00    +0.120 A 
ATOM     39  N   UNL     1     -78.774  20.306  28.562  0.00  0.00    -0.263 NA
ATOM     40  C   UNL     1     -79.835  20.219  27.647  0.00  0.00    +0.111 A 
ENDBRANCH   4   3
ENDBRANCH  10   9
BRANCH  12  13
ATOM     13  N   UNL     1     -68.605  22.611  24.979  0.00  0.00    -0.281 N 
ATOM     14  C   UNL     1     -68.508  23.941  25.353  0.00  0.00    +0.248 C 
ATOM     30  O   UNL     1     -69.212  24.837  24.910  0.00  0.00    -0.270 OA
ATOM     31  H   UNL     1     -67.839  22.006  25.273  0.00  0.00    +0.155 HD
BRANCH  14  15
ATOM     15  C   UNL     1     -67.471  24.336  26.354  0.00  0.00    +0.037 A 
ATOM     16  C   UNL     1     -67.686  25.460  27.269  0.00  0.00    +0.013 A 
ATOM     17  C   UNL     1     -66.662  25.830  28.213  0.00  0.00    +0.005 A 
ATOM     18  C   UNL     1     -65.412  25.074  28.248  0.00  0.00    -0.033 A 
ATOM     28  C   UNL     1     -65.227  23.960  27.332  0.00  0.00    +0.005 A 
ATOM     29  C   UNL     1     -66.229  23.595  26.405  0.00  0.00    +0.013 A 
BRANCH  18  19
ATOM     19  C   UNL     1     -64.256  25.411  29.208  0.00  0.00    +0.119 C 
BRANCH  19  20
ATOM     20  N   UNL     1     -64.580  26.254  30.397  0.00  0.00    -0.302 NA
ATOM     21  C   UNL     1     -64.095  27.697  30.228  0.00  0.00    +0.066 C 
ATOM     22  C   UNL     1     -64.461  28.570  31.473  0.00  0.00    -0.064 C 
ATOM     23  N   UNL     1     -63.859  27.940  32.730  0.00  0.00    +0.379 N 
ATOM     24  C   UNL     1     -64.153  28.789  33.893  0.00  0.00    -0.096 C 
ATOM     25  H   UNL     1     -62.752  27.916  32.598  0.00  0.00    -0.082 HD
ATOM     26  C   UNL     1     -64.334  26.504  32.904  0.00  0.00    -0.064 C 
ATOM     27  C   UNL     1     -63.991  25.653  31.650  0.00  0.00    +0.066 C 
ENDBRANCH  19  20
ENDBRANCH  18  19
ENDBRANCH  14  15
ENDBRANCH  12  13
TORSDOF 6
ENDMDL
MODEL 3
REMARK VINA RESULT:      -8.6     27.800     31.440
REMARK  Name = C:\Users\Docking\Desktop\test protocol\1iep_ligandH.pdb
REMARK  8 active torsions:
REMARK  status: ('A' for Active; 'I' for Inactive)
REMARK    1  A    between atoms: _5  and  _11
REMARK    2  A    between atoms: _19  and  _21
REMARK    3  A    between atoms: _22  and  _66
REMARK    4  A    between atoms: _27  and  _30
REMARK    5  A    between atoms: _32  and  _33
REMARK    6  A    between atoms: _38  and  _43
REMARK    7  A    between atoms: _43  and  _46
REMARK    8  A    between atoms: _53  and  _55
REMARK                            x       y       z     vdW  Elec       q    Type
REMARK                         _______ _______ _______ _____ _____    ______ ____
ROOT
ATOM     10  C   UNL     1     -71.843  21.379  23.948  0.00  0.00    +0.038 A 
ATOM     11  C   UNL     1     -70.940  22.101  24.770  0.00  0.00    +0.047 A 
ATOM     12  C   UNL     1     -69.522  22.166  24.453  0.00  0.00    +0.035 A 
ATOM     32  C   UNL     1     -69.058  21.486  23.289  0.00  0.00    +0.024 A 
ATOM     33  C   UNL     1     -69.962  20.747  22.444  0.00  0.00    +0.007 A 
ATOM     34  C   UNL     1     -71.361  20.677  22.753  0.00  0.00    -0.029 A 
ATOM     35  C   UNL     1     -72.283  19.865  21.814  0.00  0.00    +0.045 C 
ENDROOT
BRANCH  10   9
ATOM      4  C   UNL     1     -75.555  19.501  26.343  0.00  0.00    +0.077 A 
ATOM      5  C   UNL     1     -74.737  18.474  26.922  0.00  0.00    +0.048 A 
ATOM      6  C   UNL     1     -73.369  18.460  26.572  0.00  0.00    +0.116 A 
ATOM      7  N   UNL     1     -72.865  19.407  25.707  0.00  0.00    -0.223 NA
ATOM      8  C   UNL     1     -73.681  20.383  25.165  0.00  0.00    +0.220 A 
ATOM      9  N   UNL     1     -73.195  21.351  24.300  0.00  0.00    -0.283 N 
ATOM     36  H   UNL     1     -73.830  22.049  23.915  0.00  0.00    +0.155 HD
ATOM     37  N   UNL     1     -74.992  20.417  25.482  0.00  0.00    -0.214 NA
BRANCH   4   3
ATOM      1  C   UNL     1     -79.047  21.006  27.261  0.00  0.00    +0.020 A 
ATOM      2  C   UNL     1     -77.627  20.916  27.007  0.00  0.00    +0.013 A 
ATOM      3  C   UNL     1     -77.019  19.650  26.618  0.00  0.00    +0.019 A 
ATOM     38  C   UNL     1     -77.882  18.485  26.492  0.00  0.00    +0.120 A 
ATOM     39  N   UNL     1     -79.245  18.602  26.744  0.00  0.00    -0.263 NA
ATOM     40  C   UNL     1     -79.841  19.814  27.121  0.00  0.00    +0.111 A 
ENDBRANCH   4   3
ENDBRANCH  10   9
BRANCH  12  13
ATOM     13  N   UNL     1     -68.556  22.877  25.254  0.00  0.00    -0.281 N 
ATOM     14  C   UNL     1     -68.442  24.245  25.435  0.00  0.00    +0.248 C 
ATOM     30  O   UNL     1     -69.024  25.082  24.762  0.00  0.00    -0.270 OA
ATOM     31  H   UNL     1     -67.874  22.300  25.747  0.00  0.00    +0.155 HD
BRANCH  14  15
ATOM     15  C   UNL     1     -67.539  24.758  26.510  0.00  0.00    +0.037 A 
ATOM     16  C   UNL     1     -66.343  24.016  26.916  0.00  0.00    +0.013 A 
ATOM     17  C   UNL     1     -65.498  24.525  27.968  0.00  0.00    +0.005 A 
ATOM     18  C   UNL     1     -65.847  25.785  28.620  0.00  0.00    -0.033 A 
ATOM     28  C   UNL     1     -67.037  26.503  28.194  0.00  0.00    +0.005 A 
ATOM     29  C   UNL     1     -67.868  26.007  27.164  0.00  0.00    +0.013 A 
BRANCH  18  19
ATOM     19  C   UNL     1     -65.016  26.392  29.766  0.00  0.00    +0.119 C 
BRANCH  19  20
ATOM     20  N   UNL     1     -63.814  25.629  30.217  0.00  0.00    -0.302 NA
ATOM     21  C   UNL     1     -64.049  24.928  31.558  0.00  0.00    +0.066 C 
ATOM     22  C   UNL     1     -62.790  24.117  32.005  0.00  0.00    -0.064 C 
ATOM     23  N   UNL     1     -61.584  25.055  32.088  0.00  0.00    +0.379 N 
ATOM     24  C   UNL     1     -60.412  24.307  32.563  0.00  0.00    -0.096 C 
ATOM     25  H   UNL     1     -61.817  25.837  32.847  0.00  0.00    -0.082 HD
ATOM     26  C   UNL     1     -61.345  25.758  30.759  0.00  0.00    -0.064 C 
ATOM     27  C   UNL     1     -62.613  26.538  30.310  0.00  0.00    +0.066 C 
ENDBRANCH  19  20
ENDBRANCH  18  19
ENDBRANCH  14  15
ENDBRANCH  12  13
TORSDOF 6
ENDMDL
MODEL 4
REMARK VINA RESULT:      -7.9     32.751     34.127
REMARK  Name = C:\Users\Docking\Desktop\test protocol\1iep_ligandH.pdb
REMARK  8 active torsions:
REMARK  status: ('A' for Active; 'I' for Inactive)
REMARK    1  A    between atoms: _5  and  _11
REMARK    2  A    between atoms: _19  and  _21
REMARK    3  A    between atoms: _22  and  _66
REMARK    4  A    between atoms: _27  and  _30
REMARK    5  A    between atoms: _32  and  _33
REMARK    6  A    between atoms: _38  and  _43
REMARK    7  A    between atoms: _43  and  _46
REMARK    8  A    between atoms: _53  and  _55
REMARK                            x       y       z     vdW  Elec       q    Type
REMARK                         _______ _______ _______ _____ _____    ______ ____
ROOT
ATOM     10  C   UNL     1    -100.837  32.131  32.843  0.00  0.00    +0.038 A 
ATOM     11  C   UNL     1    -100.376  33.353  32.289  0.00  0.00    +0.047 A 
ATOM     12  C   UNL     1    -101.019  33.941  31.124  0.00  0.00    +0.035 A 
ATOM     32  C   UNL     1    -102.131  33.259  30.550  0.00  0.00    +0.024 A 
ATOM     33  C   UNL     1    -102.611  32.015  31.098  0.00  0.00    +0.007 A 
ATOM     34  C   UNL     1    -101.979  31.429  32.246  0.00  0.00    -0.029 A 
ATOM     35  C   UNL     1    -102.533  30.090  32.788  0.00  0.00    +0.045 C 
ENDROOT
BRANCH  10   9
ATOM      4  C   UNL     1     -97.292  29.622  34.887  0.00  0.00    +0.077 A 
ATOM      5  C   UNL     1     -96.710  29.297  33.617  0.00  0.00    +0.048 A 
ATOM      6  C   UNL     1     -97.358  29.788  32.462  0.00  0.00    +0.116 A 
ATOM      7  N   UNL     1     -98.501  30.548  32.579  0.00  0.00    -0.223 NA
ATOM      8  C   UNL     1     -99.037  30.843  33.819  0.00  0.00    +0.220 A 
ATOM      9  N   UNL     1    -100.182  31.612  33.962  0.00  0.00    -0.283 N 
ATOM     36  H   UNL     1    -100.550  31.800  34.894  0.00  0.00    +0.155 HD
ATOM     37  N   UNL     1     -98.439  30.384  34.938  0.00  0.00    -0.214 NA
BRANCH   4   3
ATOM      1  C   UNL     1     -94.919  29.163  37.962  0.00  0.00    +0.020 A 
ATOM      2  C   UNL     1     -95.423  29.621  36.688  0.00  0.00    +0.013 A 
ATOM      3  C   UNL     1     -96.723  29.179  36.199  0.00  0.00    +0.019 A 
ATOM     38  C   UNL     1     -97.494  28.268  37.031  0.00  0.00    +0.120 A 
ATOM     39  N   UNL     1     -96.983  27.844  38.253  0.00  0.00    -0.263 NA
ATOM     40  C   UNL     1     -95.732  28.260  38.733  0.00  0.00    +0.111 A 
ENDBRANCH   4   3
ENDBRANCH  10   9
BRANCH  12  13
ATOM     13  N   UNL     1    -100.591  35.176  30.514  0.00  0.00    -0.281 N 
ATOM     14  C   UNL     1     -99.518  35.377  29.662  0.00  0.00    +0.248 C 
ATOM     30  O   UNL     1     -98.630  34.560  29.464  0.00  0.00    -0.270 OA
ATOM     31  H   UNL     1    -101.147  36.001  30.737  0.00  0.00    +0.155 HD
BRANCH  14  15
ATOM     15  C   UNL     1     -99.406  36.679  28.936  0.00  0.00    +0.037 A 
ATOM     16  C   UNL     1     -99.134  36.726  27.498  0.00  0.00    +0.013 A 
ATOM     17  C   UNL     1     -99.014  37.995  26.825  0.00  0.00    +0.005 A 
ATOM     18  C   UNL     1     -99.167  39.229  27.592  0.00  0.00    -0.033 A 
ATOM     28  C   UNL     1     -99.442  39.153  29.018  0.00  0.00    +0.005 A 
ATOM     29  C   UNL     1     -99.559  37.911  29.680  0.00  0.00    +0.013 A 
BRANCH  18  19
ATOM     19  C   UNL     1     -99.035  40.628  26.962  0.00  0.00    +0.119 C 
BRANCH  19  20
ATOM     20  N   UNL     1     -97.748  40.949  26.274  0.00  0.00    -0.302 NA
ATOM     21  C   UNL     1     -96.549  40.839  27.219  0.00  0.00    +0.066 C 
ATOM     22  C   UNL     1     -95.209  41.156  26.478  0.00  0.00    -0.064 C 
ATOM     23  N   UNL     1     -95.288  42.554  25.863  0.00  0.00    +0.379 N 
ATOM     24  C   UNL     1     -94.009  42.878  25.215  0.00  0.00    -0.096 C 
ATOM     25  H   UNL     1     -95.440  43.281  26.695  0.00  0.00    -0.082 HD
ATOM     26  C   UNL     1     -96.480  42.672  24.924  0.00  0.00    -0.064 C 
ATOM     27  C   UNL     1     -97.803  42.327  25.663  0.00  0.00    +0.066 C 
ENDBRANCH  19  20
ENDBRANCH  18  19
ENDBRANCH  14  15
ENDBRANCH  12  13
TORSDOF 6
ENDMDL
MODEL 5
REMARK VINA RESULT:      -7.9     23.054     25.035
REMARK  Name = C:\Users\Docking\Desktop\test protocol\1iep_ligandH.pdb
REMARK  8 active torsions:
REMARK  status: ('A' for Active; 'I' for Inactive)
REMARK    1  A    between atoms: _5  and  _11
REMARK    2  A    between atoms: _19  and  _21
REMARK    3  A    between atoms: _22  and  _66
REMARK    4  A    between atoms: _27  and  _30
REMARK    5  A    between atoms: _32  and  _33
REMARK    6  A    between atoms: _38  and  _43
REMARK    7  A    between atoms: _43  and  _46
REMARK    8  A    between atoms: _53  and  _55
REMARK                            x       y       z     vdW  Elec       q    Type
REMARK                         _______ _______ _______ _____ _____    ______ ____
ROOT
ATOM     10  C   UNL     1     -94.703  39.618  26.060  0.00  0.00    +0.038 A 
ATOM     11  C   UNL     1     -94.398  38.978  24.832  0.00  0.00    +0.047 A 
ATOM     12  C   UNL     1     -95.441  38.372  24.019  0.00  0.00    +0.035 A 
ATOM     32  C   UNL     1     -96.786  38.440  24.486  0.00  0.00    +0.024 A 
ATOM     33  C   UNL     1     -97.114  39.086  25.732  0.00  0.00    +0.007 A 
ATOM     34  C   UNL     1     -96.089  39.682  26.540  0.00  0.00    -0.029 A 
ATOM     35  C   UNL     1     -96.499  40.355  27.870  0.00  0.00    +0.045 C 
ENDROOT
BRANCH  10   9
ATOM      4  C   UNL     1     -91.577  43.147  26.957  0.00  0.00    +0.077 A 
ATOM      5  C   UNL     1     -92.038  43.920  25.840  0.00  0.00    +0.048 A 
ATOM      6  C   UNL     1     -93.076  43.370  25.055  0.00  0.00    +0.116 A 
ATOM      7  N   UNL     1     -93.607  42.139  25.374  0.00  0.00    -0.223 NA
ATOM      8  C   UNL     1     -93.138  41.419  26.457  0.00  0.00    +0.220 A 
ATOM      9  N   UNL     1     -93.663  40.182  26.801  0.00  0.00    -0.283 N 
ATOM     36  H   UNL     1     -93.284  39.679  27.603  0.00  0.00    +0.155 HD
ATOM     37  N   UNL     1     -92.146  41.921  27.221  0.00  0.00    -0.214 NA
BRANCH   4   3
ATOM      1  C   UNL     1     -88.468  43.165  29.331  0.00  0.00    +0.020 A 
ATOM      2  C   UNL     1     -89.499  42.682  28.442  0.00  0.00    +0.013 A 
ATOM      3  C   UNL     1     -90.488  43.594  27.883  0.00  0.00    +0.019 A 
ATOM     38  C   UNL     1     -90.405  45.001  28.245  0.00  0.00    +0.120 A 
ATOM     39  N   UNL     1     -89.401  45.438  29.104  0.00  0.00    -0.263 NA
ATOM     40  C   UNL     1     -88.445  44.568  29.650  0.00  0.00    +0.111 A 
ENDBRANCH   4   3
ENDBRANCH  10   9
BRANCH  12  13
ATOM     13  N   UNL     1     -95.190  37.702  22.767  0.00  0.00    -0.281 N 
ATOM     14  C   UNL     1     -94.417  38.143  21.705  0.00  0.00    +0.248 C 
ATOM     30  O   UNL     1     -93.995  39.283  21.584  0.00  0.00    -0.270 OA
ATOM     31  H   UNL     1     -95.635  36.792  22.650  0.00  0.00    +0.155 HD
BRANCH  14  15
ATOM     15  C   UNL     1     -94.076  37.182  20.612  0.00  0.00    +0.037 A 
ATOM     16  C   UNL     1     -94.903  36.000  20.354  0.00  0.00    +0.013 A 
ATOM     17  C   UNL     1     -94.542  35.080  19.305  0.00  0.00    +0.005 A 
ATOM     18  C   UNL     1     -93.347  35.339  18.505  0.00  0.00    -0.033 A 
ATOM     28  C   UNL     1     -92.548  36.522  18.779  0.00  0.00    +0.005 A 
ATOM     29  C   UNL     1     -92.898  37.425  19.807  0.00  0.00    +0.013 A 
BRANCH  18  19
ATOM     19  C   UNL     1     -92.875  34.400  17.379  0.00  0.00    +0.119 C 
BRANCH  19  20
ATOM     20  N   UNL     1     -92.423  33.032  17.774  0.00  0.00    -0.302 NA
ATOM     21  C   UNL     1     -93.583  32.034  17.815  0.00  0.00    +0.066 C 
ATOM     22  C   UNL     1     -93.090  30.603  18.207  0.00  0.00    -0.064 C 
ATOM     23  N   UNL     1     -92.381  30.666  19.561  0.00  0.00    +0.379 N 
ATOM     24  C   UNL     1     -91.966  29.313  19.961  0.00  0.00    -0.096 C 
ATOM     25  H   UNL     1     -93.120  31.029  20.313  0.00  0.00    -0.082 HD
ATOM     26  C   UNL     1     -91.227  31.658  19.531  0.00  0.00    -0.064 C 
ATOM     27  C   UNL     1     -91.724  33.070  19.111  0.00  0.00    +0.066 C 
ENDBRANCH  19  20
ENDBRANCH  18  19
ENDBRANCH  14  15
ENDBRANCH  12  13
TORSDOF 6
ENDMDL
