MODEL 1
REMARK VINA RESULT:      -7.8      0.000      0.000
REMARK  Name = C:\Users\Docking\Desktop\test protocol\1iep_ligandH.pdb
REMARK  8 active torsions:
REMARK  status: ('A' for Active; 'I' for Inactive)
REMARK    1  A    between atoms: _5  and  _11
REMARK    2  A    between atoms: _19  and  _21
REMARK    3  A    between atoms: _22  and  _66
REMARK    4  A    between atoms: _27  and  _30
REMARK    5  A    between atoms: _32  and  _33
REMARK    6  A    between atoms: _38  and  _43
REMARK    7  A    between atoms: _43  and  _46
REMARK    8  A    between atoms: _53  and  _55
REMARK                            x       y       z     vdW  Elec       q    Type
REMARK                         _______ _______ _______ _____ _____    ______ ____
ROOT
ATOM     10  C   UNL     1      -9.555  16.499  -2.885  0.00  0.00    +0.038 A 
ATOM     11  C   UNL     1      -8.606  15.558  -3.361  0.00  0.00    +0.047 A 
ATOM     12  C   UNL     1      -9.021  14.251  -3.845  0.00  0.00    +0.035 A 
ATOM     32  C   UNL     1     -10.411  13.935  -3.831  0.00  0.00    +0.024 A 
ATOM     33  C   UNL     1     -11.388  14.879  -3.350  0.00  0.00    +0.007 A 
ATOM     34  C   UNL     1     -10.985  16.170  -2.870  0.00  0.00    -0.029 A 
ATOM     35  C   UNL     1     -12.076  17.139  -2.359  0.00  0.00    +0.045 C 
ENDROOT
BRANCH  10   9
ATOM      4  C   UNL     1      -7.770  19.367   0.524  0.00  0.00    +0.077 A 
ATOM      5  C   UNL     1      -7.765  18.310   1.494  0.00  0.00    +0.048 A 
ATOM      6  C   UNL     1      -8.237  17.045   1.077  0.00  0.00    +0.116 A 
ATOM      7  N   UNL     1      -8.678  16.862  -0.215  0.00  0.00    -0.223 NA
ATOM      8  C   UNL     1      -8.670  17.904  -1.125  0.00  0.00    +0.220 A 
ATOM      9  N   UNL     1      -9.101  17.740  -2.433  0.00  0.00    -0.283 N 
ATOM     36  H   UNL     1      -9.087  18.535  -3.071  0.00  0.00    +0.155 HD
ATOM     37  N   UNL     1      -8.226  19.122  -0.752  0.00  0.00    -0.214 NA
BRANCH   4   3
ATOM      1  C   UNL     1      -7.071  23.205   0.240  0.00  0.00    +0.020 A 
ATOM      2  C   UNL     1      -7.547  21.881  -0.085  0.00  0.00    +0.013 A 
ATOM      3  C   UNL     1      -7.298  20.759   0.812  0.00  0.00    +0.019 A 
ATOM     38  C   UNL     1      -6.560  21.014   2.039  0.00  0.00    +0.120 A 
ATOM     39  N   UNL     1      -6.112  22.300   2.325  0.00  0.00    -0.263 NA
ATOM     40  C   UNL     1      -6.344  23.387   1.469  0.00  0.00    +0.111 A 
ENDBRANCH   4   3
ENDBRANCH  10   9
BRANCH  12  13
ATOM     13  N   UNL     1      -8.102  13.252  -4.332  0.00  0.00    -0.281 N 
ATOM     14  C   UNL     1      -7.506  13.180  -5.580  0.00  0.00    +0.248 C 
ATOM     30  O   UNL     1      -7.839  13.852  -6.545  0.00  0.00    -0.270 OA
ATOM     31  H   UNL     1      -7.863  12.507  -3.678  0.00  0.00    +0.155 HD
BRANCH  14  15
ATOM     15  C   UNL     1      -6.386  12.212  -5.791  0.00  0.00    +0.037 A 
ATOM     16  C   UNL     1      -4.999  12.668  -5.904  0.00  0.00    +0.013 A 
ATOM     17  C   UNL     1      -3.940  11.715  -6.125  0.00  0.00    +0.005 A 
ATOM     18  C   UNL     1      -4.265  10.295  -6.232  0.00  0.00    -0.033 A 
ATOM     28  C   UNL     1      -5.650   9.870  -6.110  0.00  0.00    +0.005 A 
ATOM     29  C   UNL     1      -6.691  10.801  -5.895  0.00  0.00    +0.013 A 
BRANCH  18  19
ATOM     19  C   UNL     1      -3.202   9.210  -6.487  0.00  0.00    +0.119 C 
BRANCH  19  20
ATOM     20  N   UNL     1      -3.349   7.922  -5.747  0.00  0.00    -0.302 NA
ATOM     21  C   UNL     1      -3.030   8.076  -4.257  0.00  0.00    +0.066 C 
ATOM     22  C   UNL     1      -3.210   6.723  -3.494  0.00  0.00    -0.064 C 
ATOM     23  N   UNL     1      -2.316   5.658  -4.132  0.00  0.00    +0.379 N 
ATOM     24  C   UNL     1      -2.440   4.400  -3.380  0.00  0.00    -0.096 C 
ATOM     25  H   UNL     1      -1.261   6.005  -4.041  0.00  0.00    -0.082 HD
ATOM     26  C   UNL     1      -2.624   5.501  -5.614  0.00  0.00    -0.064 C 
ATOM     27  C   UNL     1      -2.471   6.857  -6.358  0.00  0.00    +0.066 C 
ENDBRANCH  19  20
ENDBRANCH  18  19
ENDBRANCH  14  15
ENDBRANCH  12  13
TORSDOF 6
ENDMDL
MODEL 2
REMARK VINA RESULT:      -7.6      6.618      9.703
REMARK  Name = C:\Users\Docking\Desktop\test protocol\1iep_ligandH.pdb
REMARK  8 active torsions:
REMARK  status: ('A' for Active; 'I' for Inactive)
REMARK    1  A    between atoms: _5  and  _11
REMARK    2  A    between atoms: _19  and  _21
REMARK    3  A    between atoms: _22  and  _66
REMARK    4  A    between atoms: _27  and  _30
REMARK    5  A    between atoms: _32  and  _33
REMARK    6  A    between atoms: _38  and  _43
REMARK    7  A    between atoms: _43  and  _46
REMARK    8  A    between atoms: _53  and  _55
REMARK                            x       y       z     vdW  Elec       q    Type
REMARK                         _______ _______ _______ _____ _____    ______ ____
ROOT
ATOM     10  C   UNL     1      -5.967  10.940  -6.312  0.00  0.00    +0.038 A 
ATOM     11  C   UNL     1      -5.232   9.727  -6.319  0.00  0.00    +0.047 A 
ATOM     12  C   UNL     1      -3.815   9.704  -5.991  0.00  0.00    +0.035 A 
ATOM     32  C   UNL     1      -3.179  10.936  -5.659  0.00  0.00    +0.024 A 
ATOM     33  C   UNL     1      -3.911  12.178  -5.648  0.00  0.00    +0.007 A 
ATOM     34  C   UNL     1      -5.308  12.207  -5.973  0.00  0.00    -0.029 A 
ATOM     35  C   UNL     1      -6.041  13.568  -5.952  0.00  0.00    +0.045 C 
ENDROOT
BRANCH  10   9
ATOM      4  C   UNL     1     -10.550  10.003  -5.234  0.00  0.00    +0.077 A 
ATOM      5  C   UNL     1     -10.206   9.521  -3.928  0.00  0.00    +0.048 A 
ATOM      6  C   UNL     1      -8.837   9.523  -3.575  0.00  0.00    +0.116 A 
ATOM      7  N   UNL     1      -7.893   9.977  -4.469  0.00  0.00    -0.223 NA
ATOM      8  C   UNL     1      -8.258  10.435  -5.722  0.00  0.00    +0.220 A 
ATOM      9  N   UNL     1      -7.326  10.903  -6.634  0.00  0.00    -0.283 N 
ATOM     36  H   UNL     1      -7.635  11.225  -7.551  0.00  0.00    +0.155 HD
ATOM     37  N   UNL     1      -9.558  10.441  -6.084  0.00  0.00    -0.214 NA
BRANCH   4   3
ATOM      1  C   UNL     1     -13.649  10.070  -7.620  0.00  0.00    +0.020 A 
ATOM      2  C   UNL     1     -12.277  10.005  -7.172  0.00  0.00    +0.013 A 
ATOM      3  C   UNL     1     -11.953  10.066  -5.752  0.00  0.00    +0.019 A 
ATOM     38  C   UNL     1     -13.050  10.192  -4.804  0.00  0.00    +0.120 A 
ATOM     39  N   UNL     1     -14.361  10.254  -5.265  0.00  0.00    -0.263 NA
ATOM     40  C   UNL     1     -14.685  10.198  -6.629  0.00  0.00    +0.111 A 
ENDBRANCH   4   3
ENDBRANCH  10   9
BRANCH  12  13
ATOM     13  N   UNL     1      -3.015   8.505  -5.989  0.00  0.00    -0.281 N 
ATOM     14  C   UNL     1      -3.035   7.469  -5.069  0.00  0.00    +0.248 C 
ATOM     30  O   UNL     1      -3.598   7.518  -3.985  0.00  0.00    -0.270 OA
ATOM     31  H   UNL     1      -2.353   8.407  -6.759  0.00  0.00    +0.155 HD
BRANCH  14  15
ATOM     15  C   UNL     1      -2.315   6.201  -5.394  0.00  0.00    +0.037 A 
ATOM     16  C   UNL     1      -0.900   6.206  -5.776  0.00  0.00    +0.013 A 
ATOM     17  C   UNL     1      -0.234   4.970  -6.101  0.00  0.00    +0.005 A 
ATOM     18  C   UNL     1      -0.982   3.717  -6.044  0.00  0.00    -0.033 A 
ATOM     28  C   UNL     1      -2.383   3.739  -5.657  0.00  0.00    +0.005 A 
ATOM     29  C   UNL     1      -3.040   4.949  -5.339  0.00  0.00    +0.013 A 
BRANCH  18  19
ATOM     19  C   UNL     1      -0.357   2.353  -6.394  0.00  0.00    +0.119 C 
BRANCH  19  20
ATOM     20  N   UNL     1      -1.133   1.460  -7.305  0.00  0.00    -0.302 NA
ATOM     21  C   UNL     1      -0.708  -0.005  -7.172  0.00  0.00    +0.066 C 
ATOM     22  C   UNL     1      -1.545  -0.929  -8.116  0.00  0.00    -0.064 C 
ATOM     23  N   UNL     1      -1.391  -0.450  -9.560  0.00  0.00    +0.379 N 
ATOM     24  C   UNL     1      -2.130  -1.351 -10.457  0.00  0.00    -0.096 C 
ATOM     25  H   UNL     1      -0.311  -0.520  -9.826  0.00  0.00    -0.082 HD
ATOM     26  C   UNL     1      -1.808   1.007  -9.702  0.00  0.00    -0.064 C 
ATOM     27  C   UNL     1      -0.991   1.912  -8.738  0.00  0.00    +0.066 C 
ENDBRANCH  19  20
ENDBRANCH  18  19
ENDBRANCH  14  15
ENDBRANCH  12  13
TORSDOF 6
ENDMDL
MODEL 3
REMARK VINA RESULT:      -7.6      2.201     12.618
REMARK  Name = C:\Users\Docking\Desktop\test protocol\1iep_ligandH.pdb
REMARK  8 active torsions:
REMARK  status: ('A' for Active; 'I' for Inactive)
REMARK    1  A    between atoms: _5  and  _11
REMARK    2  A    between atoms: _19  and  _21
REMARK    3  A    between atoms: _22  and  _66
REMARK    4  A    between atoms: _27  and  _30
REMARK    5  A    between atoms: _32  and  _33
REMARK    6  A    between atoms: _38  and  _43
REMARK    7  A    between atoms: _43  and  _46
REMARK    8  A    between atoms: _53  and  _55
REMARK                            x       y       z     vdW  Elec       q    Type
REMARK                         _______ _______ _______ _____ _____    ______ ____
ROOT
ATOM     10  C   UNL     1      -8.826  14.002  -2.958  0.00  0.00    +0.038 A 
ATOM     11  C   UNL     1      -8.474  15.290  -2.478  0.00  0.00    +0.047 A 
ATOM     12  C   UNL     1      -9.459  16.356  -2.392  0.00  0.00    +0.035 A 
ATOM     32  C   UNL     1     -10.795  16.076  -2.800  0.00  0.00    +0.024 A 
ATOM     33  C   UNL     1     -11.171  14.773  -3.291  0.00  0.00    +0.007 A 
ATOM     34  C   UNL     1     -10.202  13.718  -3.381  0.00  0.00    -0.029 A 
ATOM     35  C   UNL     1     -10.660  12.343  -3.922  0.00  0.00    +0.045 C 
ENDROOT
BRANCH  10   9
ATOM      4  C   UNL     1      -5.219  11.758  -5.191  0.00  0.00    +0.077 A 
ATOM      5  C   UNL     1      -5.326  12.606  -6.343  0.00  0.00    +0.048 A 
ATOM      6  C   UNL     1      -6.327  13.603  -6.324  0.00  0.00    +0.116 A 
ATOM      7  N   UNL     1      -7.153  13.733  -5.229  0.00  0.00    -0.223 NA
ATOM      8  C   UNL     1      -7.024  12.897  -4.135  0.00  0.00    +0.220 A 
ATOM      9  N   UNL     1      -7.840  13.015  -3.020  0.00  0.00    -0.283 N 
ATOM     36  H   UNL     1      -7.718  12.375  -2.236  0.00  0.00    +0.155 HD
ATOM     37  N   UNL     1      -6.077  11.936  -4.129  0.00  0.00    -0.214 NA
BRANCH   4   3
ATOM      1  C   UNL     1      -3.162   8.485  -5.792  0.00  0.00    +0.020 A 
ATOM      2  C   UNL     1      -4.158   9.517  -5.963  0.00  0.00    +0.013 A 
ATOM      3  C   UNL     1      -4.209  10.660  -5.059  0.00  0.00    +0.019 A 
ATOM     38  C   UNL     1      -3.228  10.729  -3.986  0.00  0.00    +0.120 A 
ATOM     39  N   UNL     1      -2.282   9.719  -3.846  0.00  0.00    -0.263 NA
ATOM     40  C   UNL     1      -2.225   8.614  -4.707  0.00  0.00    +0.111 A 
ENDBRANCH   4   3
ENDBRANCH  10   9
BRANCH  12  13
ATOM     13  N   UNL     1      -9.158  17.685  -1.920  0.00  0.00    -0.281 N 
ATOM     14  C   UNL     1      -9.034  18.116  -0.610  0.00  0.00    +0.248 C 
ATOM     30  O   UNL     1      -9.375  17.466   0.367  0.00  0.00    -0.270 OA
ATOM     31  H   UNL     1      -9.020  18.394  -2.640  0.00  0.00    +0.155 HD
BRANCH  14  15
ATOM     15  C   UNL     1      -8.461  19.471  -0.346  0.00  0.00    +0.037 A 
ATOM     16  C   UNL     1      -7.020  19.665  -0.167  0.00  0.00    +0.013 A 
ATOM     17  C   UNL     1      -6.495  20.980   0.103  0.00  0.00    +0.005 A 
ATOM     18  C   UNL     1      -7.413  22.113   0.194  0.00  0.00    -0.033 A 
ATOM     28  C   UNL     1      -8.838  21.893   0.006  0.00  0.00    +0.005 A 
ATOM     29  C   UNL     1      -9.356  20.605  -0.258  0.00  0.00    +0.013 A 
BRANCH  18  19
ATOM     19  C   UNL     1      -6.944  23.548   0.499  0.00  0.00    +0.119 C 
BRANCH  19  20
ATOM     20  N   UNL     1      -6.483  23.835   1.890  0.00  0.00    -0.302 NA
ATOM     21  C   UNL     1      -7.332  24.917   2.565  0.00  0.00    +0.066 C 
ATOM     22  C   UNL     1      -6.850  25.188   4.027  0.00  0.00    -0.064 C 
ATOM     23  N   UNL     1      -5.374  25.591   4.008  0.00  0.00    +0.379 N 
ATOM     24  C   UNL     1      -4.934  25.903   5.376  0.00  0.00    -0.096 C 
ATOM     25  H   UNL     1      -5.286  26.523   3.403  0.00  0.00    -0.082 HD
ATOM     26  C   UNL     1      -4.524  24.522   3.337  0.00  0.00    -0.064 C 
ATOM     27  C   UNL     1      -5.029  24.238   1.895  0.00  0.00    +0.066 C 
ENDBRANCH  19  20
ENDBRANCH  18  19
ENDBRANCH  14  15
ENDBRANCH  12  13
TORSDOF 6
ENDMDL
MODEL 4
REMARK VINA RESULT:      -7.6     16.862     21.366
REMARK  Name = C:\Users\Docking\Desktop\test protocol\1iep_ligandH.pdb
REMARK  8 active torsions:
REMARK  status: ('A' for Active; 'I' for Inactive)
REMARK    1  A    between atoms: _5  and  _11
REMARK    2  A    between atoms: _19  and  _21
REMARK    3  A    between atoms: _22  and  _66
REMARK    4  A    between atoms: _27  and  _30
REMARK    5  A    between atoms: _32  and  _33
REMARK    6  A    between atoms: _38  and  _43
REMARK    7  A    between atoms: _43  and  _46
REMARK    8  A    between atoms: _53  and  _55
REMARK                            x       y       z     vdW  Elec       q    Type
REMARK                         _______ _______ _______ _____ _____    ______ ____
ROOT
ATOM     10  C   UNL     1       3.460  31.499   3.490  0.00  0.00    +0.038 A 
ATOM     11  C   UNL     1       2.209  31.226   4.099  0.00  0.00    +0.047 A 
ATOM     12  C   UNL     1       2.008  31.419   5.527  0.00  0.00    +0.035 A 
ATOM     32  C   UNL     1       3.105  31.894   6.304  0.00  0.00    +0.024 A 
ATOM     33  C   UNL     1       4.384  32.175   5.702  0.00  0.00    +0.007 A 
ATOM     34  C   UNL     1       4.588  31.984   4.294  0.00  0.00    -0.029 A 
ATOM     35  C   UNL     1       5.983  32.295   3.703  0.00  0.00    +0.045 C 
ENDROOT
BRANCH  10   9
ATOM      4  C   UNL     1       3.385  28.690  -0.402  0.00  0.00    +0.077 A 
ATOM      5  C   UNL     1       3.073  27.524   0.374  0.00  0.00    +0.048 A 
ATOM      6  C   UNL     1       2.948  27.688   1.771  0.00  0.00    +0.116 A 
ATOM      7  N   UNL     1       3.123  28.931   2.341  0.00  0.00    -0.223 NA
ATOM      8  C   UNL     1       3.424  30.035   1.565  0.00  0.00    +0.220 A 
ATOM      9  N   UNL     1       3.596  31.295   2.115  0.00  0.00    -0.283 N 
ATOM     36  H   UNL     1       3.825  32.083   1.509  0.00  0.00    +0.155 HD
ATOM     37  N   UNL     1       3.550  29.904   0.228  0.00  0.00    -0.214 NA
BRANCH   4   3
ATOM      1  C   UNL     1       2.687  28.282  -4.229  0.00  0.00    +0.020 A 
ATOM      2  C   UNL     1       2.480  28.275  -2.799  0.00  0.00    +0.013 A 
ATOM      3  C   UNL     1       3.546  28.679  -1.890  0.00  0.00    +0.019 A 
ATOM     38  C   UNL     1       4.818  29.088  -2.465  0.00  0.00    +0.120 A 
ATOM     39  N   UNL     1       4.989  29.083  -3.845  0.00  0.00    -0.263 NA
ATOM     40  C   UNL     1       3.972  28.695  -4.730  0.00  0.00    +0.111 A 
ENDBRANCH   4   3
ENDBRANCH  10   9
BRANCH  12  13
ATOM     13  N   UNL     1       0.763  31.152   6.202  0.00  0.00    -0.281 N 
ATOM     14  C   UNL     1      -0.452  31.797   6.036  0.00  0.00    +0.248 C 
ATOM     30  O   UNL     1      -0.598  32.850   5.432  0.00  0.00    -0.270 OA
ATOM     31  H   UNL     1       0.778  30.394   6.885  0.00  0.00    +0.155 HD
BRANCH  14  15
ATOM     15  C   UNL     1      -1.678  31.194   6.640  0.00  0.00    +0.037 A 
ATOM     16  C   UNL     1      -1.858  31.132   8.093  0.00  0.00    +0.013 A 
ATOM     17  C   UNL     1      -3.043  30.529   8.650  0.00  0.00    +0.005 A 
ATOM     18  C   UNL     1      -4.060  29.986   7.752  0.00  0.00    -0.033 A 
ATOM     28  C   UNL     1      -3.858  30.066   6.315  0.00  0.00    +0.005 A 
ATOM     29  C   UNL     1      -2.698  30.655   5.766  0.00  0.00    +0.013 A 
BRANCH  18  19
ATOM     19  C   UNL     1      -5.346  29.306   8.259  0.00  0.00    +0.119 C 
BRANCH  19  20
ATOM     20  N   UNL     1      -6.511  29.266   7.326  0.00  0.00    -0.302 NA
ATOM     21  C   UNL     1      -7.778  29.841   7.965  0.00  0.00    +0.066 C 
ATOM     22  C   UNL     1      -8.982  29.812   6.967  0.00  0.00    -0.064 C 
ATOM     23  N   UNL     1      -9.216  28.376   6.497  0.00  0.00    +0.379 N 
ATOM     24  C   UNL     1     -10.384  28.336   5.604  0.00  0.00    -0.096 C 
ATOM     25  H   UNL     1      -9.456  27.761   7.395  0.00  0.00    -0.082 HD
ATOM     26  C   UNL     1      -7.960  27.795   5.863  0.00  0.00    -0.064 C 
ATOM     27  C   UNL     1      -6.763  27.856   6.852  0.00  0.00    +0.066 C 
ENDBRANCH  19  20
ENDBRANCH  18  19
ENDBRANCH  14  15
ENDBRANCH  12  13
TORSDOF 6
ENDMDL
MODEL 5
REMARK VINA RESULT:      -7.3      4.721     15.982
REMARK  Name = C:\Users\Docking\Desktop\test protocol\1iep_ligandH.pdb
REMARK  8 active torsions:
REMARK  status: ('A' for Active; 'I' for Inactive)
REMARK    1  A    between atoms: _5  and  _11
REMARK    2  A    between atoms: _19  and  _21
REMARK    3  A    between atoms: _22  and  _66
REMARK    4  A    between atoms: _27  and  _30
REMARK    5  A    between atoms: _32  and  _33
REMARK    6  A    between atoms: _38  and  _43
REMARK    7  A    between atoms: _43  and  _46
REMARK    8  A    between atoms: _53  and  _55
REMARK                            x       y       z     vdW  Elec       q    Type
REMARK                         _______ _______ _______ _____ _____    ______ ____
ROOT
ATOM     10  C   UNL     1      -2.352   3.250  -5.626  0.00  0.00    +0.038 A 
ATOM     11  C   UNL     1      -2.807   4.584  -5.783  0.00  0.00    +0.047 A 
ATOM     12  C   UNL     1      -2.989   5.457  -4.634  0.00  0.00    +0.035 A 
ATOM     32  C   UNL     1      -2.696   4.939  -3.339  0.00  0.00    +0.024 A 
ATOM     33  C   UNL     1      -2.234   3.586  -3.161  0.00  0.00    +0.007 A 
ATOM     34  C   UNL     1      -2.054   2.719  -4.290  0.00  0.00    -0.029 A 
ATOM     35  C   UNL     1      -1.562   1.274  -4.040  0.00  0.00    +0.045 C 
ENDROOT
BRANCH  10   9
ATOM      4  C   UNL     1       0.337   1.326  -9.105  0.00  0.00    +0.077 A 
ATOM      5  C   UNL     1       1.523   1.979  -8.631  0.00  0.00    +0.048 A 
ATOM      6  C   UNL     1       1.397   2.808  -7.494  0.00  0.00    +0.116 A 
ATOM      7  N   UNL     1       0.171   2.964  -6.883  0.00  0.00    -0.223 NA
ATOM      8  C   UNL     1      -0.953   2.320  -7.367  0.00  0.00    +0.220 A 
ATOM      9  N   UNL     1      -2.194   2.456  -6.764  0.00  0.00    -0.283 N 
ATOM     36  H   UNL     1      -3.001   1.970  -7.156  0.00  0.00    +0.155 HD
ATOM     37  N   UNL     1      -0.859   1.524  -8.453  0.00  0.00    -0.214 NA
BRANCH   4   3
ATOM      1  C   UNL     1       1.325  -1.351 -11.781  0.00  0.00    +0.020 A 
ATOM      2  C   UNL     1       1.401  -0.493 -10.622  0.00  0.00    +0.013 A 
ATOM      3  C   UNL     1       0.310   0.416 -10.294  0.00  0.00    +0.019 A 
ATOM     38  C   UNL     1      -0.855   0.431 -11.166  0.00  0.00    +0.120 A 
ATOM     39  N   UNL     1      -0.900  -0.406 -12.277  0.00  0.00    -0.263 NA
ATOM     40  C   UNL     1       0.145  -1.283 -12.603  0.00  0.00    +0.111 A 
ENDBRANCH   4   3
ENDBRANCH  10   9
BRANCH  12  13
ATOM     13  N   UNL     1      -3.456   6.818  -4.731  0.00  0.00    -0.281 N 
ATOM     14  C   UNL     1      -2.714   7.956  -5.001  0.00  0.00    +0.248 C 
ATOM     30  O   UNL     1      -1.493   8.004  -4.988  0.00  0.00    -0.270 OA
ATOM     31  H   UNL     1      -4.456   6.960  -4.584  0.00  0.00    +0.155 HD
BRANCH  14  15
ATOM     15  C   UNL     1      -3.431   9.229  -5.316  0.00  0.00    +0.037 A 
ATOM     16  C   UNL     1      -2.697  10.460  -5.619  0.00  0.00    +0.013 A 
ATOM     17  C   UNL     1      -3.414  11.678  -5.902  0.00  0.00    +0.005 A 
ATOM     18  C   UNL     1      -4.875  11.670  -5.885  0.00  0.00    -0.033 A 
ATOM     28  C   UNL     1      -5.578  10.433  -5.587  0.00  0.00    +0.005 A 
ATOM     29  C   UNL     1      -4.879   9.238  -5.307  0.00  0.00    +0.013 A 
BRANCH  18  19
ATOM     19  C   UNL     1      -5.721  12.928  -6.155  0.00  0.00    +0.119 C 
BRANCH  19  20
ATOM     20  N   UNL     1      -6.851  13.206  -5.219  0.00  0.00    -0.302 NA
ATOM     21  C   UNL     1      -8.135  13.581  -5.965  0.00  0.00    +0.066 C 
ATOM     22  C   UNL     1      -9.313  13.846  -4.971  0.00  0.00    -0.064 C 
ATOM     23  N   UNL     1      -8.912  14.951  -3.992  0.00  0.00    +0.379 N 
ATOM     24  C   UNL     1     -10.039  15.243  -3.094  0.00  0.00    -0.096 C 
ATOM     25  H   UNL     1      -8.707  15.871  -4.587  0.00  0.00    -0.082 HD
ATOM     26  C   UNL     1      -7.635  14.587  -3.249  0.00  0.00    -0.064 C 
ATOM     27  C   UNL     1      -6.479  14.297  -4.246  0.00  0.00    +0.066 C 
ENDBRANCH  19  20
ENDBRANCH  18  19
ENDBRANCH  14  15
ENDBRANCH  12  13
TORSDOF 6
ENDMDL
