MODEL 1
REMARK VINA RESULT:      -7.5      0.000      0.000
REMARK  Name = C:\Users\Docking\Desktop\test protocol\1iep_ligandH.pdb
REMARK  8 active torsions:
REMARK  status: ('A' for Active; 'I' for Inactive)
REMARK    1  A    between atoms: _5  and  _11
REMARK    2  A    between atoms: _19  and  _21
REMARK    3  A    between atoms: _22  and  _66
REMARK    4  A    between atoms: _27  and  _30
REMARK    5  A    between atoms: _32  and  _33
REMARK    6  A    between atoms: _38  and  _43
REMARK    7  A    between atoms: _43  and  _46
REMARK    8  A    between atoms: _53  and  _55
REMARK                            x       y       z     vdW  Elec       q    Type
REMARK                         _______ _______ _______ _____ _____    ______ ____
ROOT
ATOM     10  C   UNL     1      14.601  -4.927 -45.361  0.00  0.00    +0.038 A 
ATOM     11  C   UNL     1      14.658  -4.017 -46.448  0.00  0.00    +0.047 A 
ATOM     12  C   UNL     1      14.762  -2.584 -46.226  0.00  0.00    +0.035 A 
ATOM     32  C   UNL     1      14.809  -2.110 -44.882  0.00  0.00    +0.024 A 
ATOM     33  C   UNL     1      14.751  -3.020 -43.765  0.00  0.00    +0.007 A 
ATOM     34  C   UNL     1      14.646  -4.435 -43.979  0.00  0.00    -0.029 A 
ATOM     35  C   UNL     1      14.581  -5.364 -42.743  0.00  0.00    +0.045 C 
ENDROOT
BRANCH  10   9
ATOM      4  C   UNL     1      16.544  -9.180 -46.443  0.00  0.00    +0.077 A 
ATOM      5  C   UNL     1      17.867  -8.628 -46.498  0.00  0.00    +0.048 A 
ATOM      6  C   UNL     1      18.004  -7.244 -46.249  0.00  0.00    +0.116 A 
ATOM      7  N   UNL     1      16.893  -6.478 -45.967  0.00  0.00    -0.223 NA
ATOM      8  C   UNL     1      15.631  -7.042 -45.923  0.00  0.00    +0.220 A 
ATOM      9  N   UNL     1      14.501  -6.293 -45.633  0.00  0.00    -0.283 N 
ATOM     36  H   UNL     1      13.587  -6.745 -45.617  0.00  0.00    +0.155 HD
ATOM     37  N   UNL     1      15.474  -8.361 -46.158  0.00  0.00    -0.214 NA
BRANCH   4   3
ATOM      1  C   UNL     1      16.907 -12.985 -47.275  0.00  0.00    +0.020 A 
ATOM      2  C   UNL     1      17.255 -11.599 -47.058  0.00  0.00    +0.013 A 
ATOM      3  C   UNL     1      16.238 -10.626 -46.680  0.00  0.00    +0.019 A 
ATOM     38  C   UNL     1      14.868 -11.091 -46.527  0.00  0.00    +0.120 A 
ATOM     39  N   UNL     1      14.562 -12.431 -46.743  0.00  0.00    -0.263 NA
ATOM     40  C   UNL     1      15.532 -13.376 -47.109  0.00  0.00    +0.111 A 
ENDBRANCH   4   3
ENDBRANCH  10   9
BRANCH  12  13
ATOM     13  N   UNL     1      14.815  -1.612 -47.290  0.00  0.00    -0.281 N 
ATOM     14  C   UNL     1      13.767  -0.891 -47.838  0.00  0.00    +0.248 C 
ATOM     30  O   UNL     1      12.585  -1.130 -47.639  0.00  0.00    -0.270 OA
ATOM     31  H   UNL     1      15.738  -1.435 -47.688  0.00  0.00    +0.155 HD
BRANCH  14  15
ATOM     15  C   UNL     1      14.076   0.252 -48.750  0.00  0.00    +0.037 A 
ATOM     16  C   UNL     1      13.013   0.962 -49.465  0.00  0.00    +0.013 A 
ATOM     17  C   UNL     1      13.340   2.051 -50.352  0.00  0.00    +0.005 A 
ATOM     18  C   UNL     1      14.739   2.436 -50.528  0.00  0.00    -0.033 A 
ATOM     28  C   UNL     1      15.773   1.717 -49.802  0.00  0.00    +0.005 A 
ATOM     29  C   UNL     1      15.456   0.649 -48.933  0.00  0.00    +0.013 A 
BRANCH  18  19
ATOM     19  C   UNL     1      15.181   3.571 -51.470  0.00  0.00    +0.119 C 
BRANCH  19  20
ATOM     20  N   UNL     1      15.797   3.177 -52.773  0.00  0.00    -0.302 NA
ATOM     21  C   UNL     1      17.183   3.798 -52.964  0.00  0.00    +0.066 C 
ATOM     22  C   UNL     1      17.821   3.358 -54.322  0.00  0.00    -0.064 C 
ATOM     23  N   UNL     1      16.890   3.748 -55.471  0.00  0.00    +0.379 N 
ATOM     24  C   UNL     1      17.513   3.388 -56.752  0.00  0.00    -0.096 C 
ATOM     25  H   UNL     1      16.774   4.857 -55.451  0.00  0.00    -0.082 HD
ATOM     26  C   UNL     1      15.508   3.137 -55.287  0.00  0.00    -0.064 C 
ATOM     27  C   UNL     1      14.895   3.557 -53.922  0.00  0.00    +0.066 C 
ENDBRANCH  19  20
ENDBRANCH  18  19
ENDBRANCH  14  15
ENDBRANCH  12  13
TORSDOF 6
ENDMDL
MODEL 2
REMARK VINA RESULT:      -7.4     27.243     33.125
REMARK  Name = C:\Users\Docking\Desktop\test protocol\1iep_ligandH.pdb
REMARK  8 active torsions:
REMARK  status: ('A' for Active; 'I' for Inactive)
REMARK    1  A    between atoms: _5  and  _11
REMARK    2  A    between atoms: _19  and  _21
REMARK    3  A    between atoms: _22  and  _66
REMARK    4  A    between atoms: _27  and  _30
REMARK    5  A    between atoms: _32  and  _33
REMARK    6  A    between atoms: _38  and  _43
REMARK    7  A    between atoms: _43  and  _46
REMARK    8  A    between atoms: _53  and  _55
REMARK                            x       y       z     vdW  Elec       q    Type
REMARK                         _______ _______ _______ _____ _____    ______ ____
ROOT
ATOM     10  C   UNL     1      35.000 -25.974 -28.877  0.00  0.00    +0.038 A 
ATOM     11  C   UNL     1      34.409 -24.787 -29.382  0.00  0.00    +0.047 A 
ATOM     12  C   UNL     1      33.346 -24.109 -28.657  0.00  0.00    +0.035 A 
ATOM     32  C   UNL     1      32.910 -24.666 -27.420  0.00  0.00    +0.024 A 
ATOM     33  C   UNL     1      33.498 -25.872 -26.893  0.00  0.00    +0.007 A 
ATOM     34  C   UNL     1      34.546 -26.547 -27.604  0.00  0.00    -0.029 A 
ATOM     35  C   UNL     1      35.136 -27.840 -26.995  0.00  0.00    +0.045 C 
ENDROOT
BRANCH  10   9
ATOM      4  C   UNL     1      36.535 -28.941 -32.323  0.00  0.00    +0.077 A 
ATOM      5  C   UNL     1      35.197 -29.330 -32.667  0.00  0.00    +0.048 A 
ATOM      6  C   UNL     1      34.143 -28.749 -31.928  0.00  0.00    +0.116 A 
ATOM      7  N   UNL     1      34.417 -27.847 -30.923  0.00  0.00    -0.223 NA
ATOM      8  C   UNL     1      35.719 -27.495 -30.616  0.00  0.00    +0.220 A 
ATOM      9  N   UNL     1      36.018 -26.584 -29.614  0.00  0.00    -0.283 N 
ATOM     36  H   UNL     1      36.991 -26.356 -29.414  0.00  0.00    +0.155 HD
ATOM     37  N   UNL     1      36.743 -28.037 -31.306  0.00  0.00    -0.214 NA
BRANCH   4   3
ATOM      1  C   UNL     1      40.178 -29.312 -33.698  0.00  0.00    +0.020 A 
ATOM      2  C   UNL     1      39.030 -28.762 -33.015  0.00  0.00    +0.013 A 
ATOM      3  C   UNL     1      37.755 -29.466 -33.015  0.00  0.00    +0.019 A 
ATOM     38  C   UNL     1      37.673 -30.736 -33.721  0.00  0.00    +0.120 A 
ATOM     39  N   UNL     1      38.795 -31.241 -34.372  0.00  0.00    -0.263 NA
ATOM     40  C   UNL     1      40.027 -30.571 -34.379  0.00  0.00    +0.111 A 
ENDBRANCH   4   3
ENDBRANCH  10   9
BRANCH  12  13
ATOM     13  N   UNL     1      32.703 -22.906 -29.124  0.00  0.00    -0.281 N 
ATOM     14  C   UNL     1      31.491 -22.789 -29.784  0.00  0.00    +0.248 C 
ATOM     30  O   UNL     1      30.872 -23.727 -30.264  0.00  0.00    -0.270 OA
ATOM     31  H   UNL     1      33.203 -22.034 -28.947  0.00  0.00    +0.155 HD
BRANCH  14  15
ATOM     15  C   UNL     1      30.885 -21.432 -29.946  0.00  0.00    +0.037 A 
ATOM     16  C   UNL     1      29.461 -21.200 -29.688  0.00  0.00    +0.013 A 
ATOM     17  C   UNL     1      28.898 -19.885 -29.868  0.00  0.00    +0.005 A 
ATOM     18  C   UNL     1      29.761 -18.791 -30.307  0.00  0.00    -0.033 A 
ATOM     28  C   UNL     1      31.171 -19.048 -30.551  0.00  0.00    +0.005 A 
ATOM     29  C   UNL     1      31.725 -20.336 -30.377  0.00  0.00    +0.013 A 
BRANCH  18  19
ATOM     19  C   UNL     1      29.242 -17.361 -30.546  0.00  0.00    +0.119 C 
BRANCH  19  20
ATOM     20  N   UNL     1      28.815 -16.580 -29.347  0.00  0.00    -0.302 NA
ATOM     21  C   UNL     1      27.895 -15.413 -29.719  0.00  0.00    +0.066 C 
ATOM     22  C   UNL     1      27.440 -14.620 -28.451  0.00  0.00    -0.064 C 
ATOM     23  N   UNL     1      28.673 -14.119 -27.696  0.00  0.00    +0.379 N 
ATOM     24  C   UNL     1      28.248 -13.324 -26.535  0.00  0.00    -0.096 C 
ATOM     25  H   UNL     1      29.237 -13.444 -28.381  0.00  0.00    -0.082 HD
ATOM     26  C   UNL     1      29.594 -15.273 -27.325  0.00  0.00    -0.064 C 
ATOM     27  C   UNL     1      30.017 -16.072 -28.589  0.00  0.00    +0.066 C 
ENDBRANCH  19  20
ENDBRANCH  18  19
ENDBRANCH  14  15
ENDBRANCH  12  13
TORSDOF 6
ENDMDL
MODEL 3
REMARK VINA RESULT:      -7.3     26.097     31.690
REMARK  Name = C:\Users\Docking\Desktop\test protocol\1iep_ligandH.pdb
REMARK  8 active torsions:
REMARK  status: ('A' for Active; 'I' for Inactive)
REMARK    1  A    between atoms: _5  and  _11
REMARK    2  A    between atoms: _19  and  _21
REMARK    3  A    between atoms: _22  and  _66
REMARK    4  A    between atoms: _27  and  _30
REMARK    5  A    between atoms: _32  and  _33
REMARK    6  A    between atoms: _38  and  _43
REMARK    7  A    between atoms: _43  and  _46
REMARK    8  A    between atoms: _53  and  _55
REMARK                            x       y       z     vdW  Elec       q    Type
REMARK                         _______ _______ _______ _____ _____    ______ ____
ROOT
ATOM     10  C   UNL     1      34.681 -23.783 -28.785  0.00  0.00    +0.038 A 
ATOM     11  C   UNL     1      33.681 -22.970 -29.376  0.00  0.00    +0.047 A 
ATOM     12  C   UNL     1      32.928 -22.009 -28.586  0.00  0.00    +0.035 A 
ATOM     32  C   UNL     1      33.222 -21.900 -27.195  0.00  0.00    +0.024 A 
ATOM     33  C   UNL     1      34.234 -22.720 -26.577  0.00  0.00    +0.007 A 
ATOM     34  C   UNL     1      34.979 -23.671 -27.352  0.00  0.00    -0.029 A 
ATOM     35  C   UNL     1      36.048 -24.528 -26.635  0.00  0.00    +0.045 C 
ENDROOT
BRANCH  10   9
ATOM      4  C   UNL     1      34.971 -27.889 -31.254  0.00  0.00    +0.077 A 
ATOM      5  C   UNL     1      33.640 -28.274 -30.884  0.00  0.00    +0.048 A 
ATOM      6  C   UNL     1      32.916 -27.391 -30.052  0.00  0.00    +0.116 A 
ATOM      7  N   UNL     1      33.491 -26.213 -29.627  0.00  0.00    -0.223 NA
ATOM      8  C   UNL     1      34.779 -25.873 -30.000  0.00  0.00    +0.220 A 
ATOM      9  N   UNL     1      35.374 -24.689 -29.591  0.00  0.00    -0.283 N 
ATOM     36  H   UNL     1      36.328 -24.478 -29.882  0.00  0.00    +0.155 HD
ATOM     37  N   UNL     1      35.491 -26.700 -30.794  0.00  0.00    -0.214 NA
BRANCH   4   3
ATOM      1  C   UNL     1      38.122 -29.570 -32.849  0.00  0.00    +0.020 A 
ATOM      2  C   UNL     1      37.309 -28.756 -31.976  0.00  0.00    +0.013 A 
ATOM      3  C   UNL     1      35.860 -28.715 -32.131  0.00  0.00    +0.019 A 
ATOM     38  C   UNL     1      35.261 -29.516 -33.188  0.00  0.00    +0.120 A 
ATOM     39  N   UNL     1      36.070 -30.289 -34.015  0.00  0.00    -0.263 NA
ATOM     40  C   UNL     1      37.465 -30.336 -33.876  0.00  0.00    +0.111 A 
ENDBRANCH   4   3
ENDBRANCH  10   9
BRANCH  12  13
ATOM     13  N   UNL     1      31.895 -21.162 -29.130  0.00  0.00    -0.281 N 
ATOM     14  C   UNL     1      30.548 -21.148 -28.808  0.00  0.00    +0.248 C 
ATOM     30  O   UNL     1      29.985 -22.013 -28.153  0.00  0.00    -0.270 OA
ATOM     31  H   UNL     1      32.194 -20.492 -29.838  0.00  0.00    +0.155 HD
BRANCH  14  15
ATOM     15  C   UNL     1      29.701 -20.018 -29.296  0.00  0.00    +0.037 A 
ATOM     16  C   UNL     1      28.240 -20.067 -29.201  0.00  0.00    +0.013 A 
ATOM     17  C   UNL     1      27.445 -18.970 -29.694  0.00  0.00    +0.005 A 
ATOM     18  C   UNL     1      28.112 -17.813 -30.287  0.00  0.00    -0.033 A 
ATOM     28  C   UNL     1      29.563 -17.788 -30.364  0.00  0.00    +0.005 A 
ATOM     29  C   UNL     1      30.345 -18.862 -29.882  0.00  0.00    +0.013 A 
BRANCH  18  19
ATOM     19  C   UNL     1      27.343 -16.608 -30.859  0.00  0.00    +0.119 C 
BRANCH  19  20
ATOM     20  N   UNL     1      27.548 -15.287 -30.192  0.00  0.00    -0.302 NA
ATOM     21  C   UNL     1      27.321 -15.367 -28.679  0.00  0.00    +0.066 C 
ATOM     22  C   UNL     1      27.562 -13.982 -27.994  0.00  0.00    -0.064 C 
ATOM     23  N   UNL     1      26.640 -12.937 -28.625  0.00  0.00    +0.379 N 
ATOM     24  C   UNL     1      26.822 -11.647 -27.944  0.00  0.00    -0.096 C 
ATOM     25  H   UNL     1      25.589 -13.266 -28.453  0.00  0.00    -0.082 HD
ATOM     26  C   UNL     1      26.856 -12.854 -30.130  0.00  0.00    -0.064 C 
ATOM     27  C   UNL     1      26.644 -14.241 -30.797  0.00  0.00    +0.066 C 
ENDBRANCH  19  20
ENDBRANCH  18  19
ENDBRANCH  14  15
ENDBRANCH  12  13
TORSDOF 6
ENDMDL
MODEL 4
REMARK VINA RESULT:      -7.2     27.693     34.893
REMARK  Name = C:\Users\Docking\Desktop\test protocol\1iep_ligandH.pdb
REMARK  8 active torsions:
REMARK  status: ('A' for Active; 'I' for Inactive)
REMARK    1  A    between atoms: _5  and  _11
REMARK    2  A    between atoms: _19  and  _21
REMARK    3  A    between atoms: _22  and  _66
REMARK    4  A    between atoms: _27  and  _30
REMARK    5  A    between atoms: _32  and  _33
REMARK    6  A    between atoms: _38  and  _43
REMARK    7  A    between atoms: _43  and  _46
REMARK    8  A    between atoms: _53  and  _55
REMARK                            x       y       z     vdW  Elec       q    Type
REMARK                         _______ _______ _______ _____ _____    ______ ____
ROOT
ATOM     10  C   UNL     1      32.320 -22.318 -27.575  0.00  0.00    +0.038 A 
ATOM     11  C   UNL     1      32.791 -23.355 -28.420  0.00  0.00    +0.047 A 
ATOM     12  C   UNL     1      34.137 -23.889 -28.276  0.00  0.00    +0.035 A 
ATOM     32  C   UNL     1      34.975 -23.344 -27.260  0.00  0.00    +0.024 A 
ATOM     33  C   UNL     1      34.512 -22.289 -26.393  0.00  0.00    +0.007 A 
ATOM     34  C   UNL     1      33.186 -21.757 -26.532  0.00  0.00    -0.029 A 
ATOM     35  C   UNL     1      32.745 -20.621 -25.580  0.00  0.00    +0.045 C 
ENDROOT
BRANCH  10   9
ATOM      4  C   UNL     1      29.146 -19.334 -29.592  0.00  0.00    +0.077 A 
ATOM      5  C   UNL     1      30.170 -18.646 -30.325  0.00  0.00    +0.048 A 
ATOM      6  C   UNL     1      31.501 -19.086 -30.149  0.00  0.00    +0.116 A 
ATOM      7  N   UNL     1      31.776 -20.137 -29.302  0.00  0.00    -0.223 NA
ATOM      8  C   UNL     1      30.766 -20.778 -28.609  0.00  0.00    +0.220 A 
ATOM      9  N   UNL     1      31.019 -21.843 -27.758  0.00  0.00    -0.283 N 
ATOM     36  H   UNL     1      30.247 -22.284 -27.259  0.00  0.00    +0.155 HD
ATOM     37  N   UNL     1      29.487 -20.376 -28.758  0.00  0.00    -0.214 NA
BRANCH   4   3
ATOM      1  C   UNL     1      25.791 -17.452 -30.298  0.00  0.00    +0.020 A 
ATOM      2  C   UNL     1      27.206 -17.737 -30.242  0.00  0.00    +0.013 A 
ATOM      3  C   UNL     1      27.692 -18.988 -29.675  0.00  0.00    +0.019 A 
ATOM     38  C   UNL     1      26.712 -19.938 -29.170  0.00  0.00    +0.120 A 
ATOM     39  N   UNL     1      25.355 -19.635 -29.236  0.00  0.00    -0.263 NA
ATOM     40  C   UNL     1      24.876 -18.434 -29.778  0.00  0.00    +0.111 A 
ENDBRANCH   4   3
ENDBRANCH  10   9
BRANCH  12  13
ATOM     13  N   UNL     1      34.674 -24.936 -29.109  0.00  0.00    -0.281 N 
ATOM     14  C   UNL     1      34.610 -26.305 -28.904  0.00  0.00    +0.248 C 
ATOM     30  O   UNL     1      34.265 -26.831 -27.856  0.00  0.00    -0.270 OA
ATOM     31  H   UNL     1      35.160 -24.631 -29.953  0.00  0.00    +0.155 HD
BRANCH  14  15
ATOM     15  C   UNL     1      35.000 -27.221 -30.019  0.00  0.00    +0.037 A 
ATOM     16  C   UNL     1      34.942 -26.785 -31.416  0.00  0.00    +0.013 A 
ATOM     17  C   UNL     1      35.307 -27.695 -32.473  0.00  0.00    +0.005 A 
ATOM     18  C   UNL     1      35.736 -29.050 -32.136  0.00  0.00    -0.033 A 
ATOM     28  C   UNL     1      35.790 -29.454 -30.740  0.00  0.00    +0.005 A 
ATOM     29  C   UNL     1      35.431 -28.566 -29.702  0.00  0.00    +0.013 A 
BRANCH  18  19
ATOM     19  C   UNL     1      36.124 -30.094 -33.200  0.00  0.00    +0.119 C 
BRANCH  19  20
ATOM     20  N   UNL     1      37.490 -29.990 -33.793  0.00  0.00    -0.302 NA
ATOM     21  C   UNL     1      38.104 -31.366 -34.067  0.00  0.00    +0.066 C 
ATOM     22  C   UNL     1      39.524 -31.239 -34.708  0.00  0.00    -0.064 C 
ATOM     23  N   UNL     1      40.426 -30.418 -33.785  0.00  0.00    +0.379 N 
ATOM     24  C   UNL     1      41.778 -30.345 -34.358  0.00  0.00    -0.096 C 
ATOM     25  H   UNL     1      40.498 -30.960 -32.814  0.00  0.00    -0.082 HD
ATOM     26  C   UNL     1      39.822 -29.049 -33.505  0.00  0.00    -0.064 C 
ATOM     27  C   UNL     1      38.399 -29.186 -32.895  0.00  0.00    +0.066 C 
ENDBRANCH  19  20
ENDBRANCH  18  19
ENDBRANCH  14  15
ENDBRANCH  12  13
TORSDOF 6
ENDMDL
MODEL 5
REMARK VINA RESULT:      -7.0     23.027     26.046
REMARK  Name = C:\Users\Docking\Desktop\test protocol\1iep_ligandH.pdb
REMARK  8 active torsions:
REMARK  status: ('A' for Active; 'I' for Inactive)
REMARK    1  A    between atoms: _5  and  _11
REMARK    2  A    between atoms: _19  and  _21
REMARK    3  A    between atoms: _22  and  _66
REMARK    4  A    between atoms: _27  and  _30
REMARK    5  A    between atoms: _32  and  _33
REMARK    6  A    between atoms: _38  and  _43
REMARK    7  A    between atoms: _43  and  _46
REMARK    8  A    between atoms: _53  and  _55
REMARK                            x       y       z     vdW  Elec       q    Type
REMARK                         _______ _______ _______ _____ _____    ______ ____
ROOT
ATOM     10  C   UNL     1      37.283 -17.039 -49.008  0.00  0.00    +0.038 A 
ATOM     11  C   UNL     1      37.334 -16.060 -50.034  0.00  0.00    +0.047 A 
ATOM     12  C   UNL     1      36.147 -15.706 -50.796  0.00  0.00    +0.035 A 
ATOM     32  C   UNL     1      34.923 -16.367 -50.485  0.00  0.00    +0.024 A 
ATOM     33  C   UNL     1      34.853 -17.365 -49.447  0.00  0.00    +0.007 A 
ATOM     34  C   UNL     1      36.021 -17.720 -48.694  0.00  0.00    -0.029 A 
ATOM     35  C   UNL     1      35.889 -18.801 -47.596  0.00  0.00    +0.045 C 
ENDROOT
BRANCH  10   9
ATOM      4  C   UNL     1      41.220 -19.687 -48.286  0.00  0.00    +0.077 A 
ATOM      5  C   UNL     1      40.905 -20.561 -49.379  0.00  0.00    +0.048 A 
ATOM      6  C   UNL     1      39.717 -20.298 -50.098  0.00  0.00    +0.116 A 
ATOM      7  N   UNL     1      38.912 -19.239 -49.741  0.00  0.00    -0.223 NA
ATOM      8  C   UNL     1      39.244 -18.416 -48.680  0.00  0.00    +0.220 A 
ATOM      9  N   UNL     1      38.453 -17.340 -48.308  0.00  0.00    -0.283 N 
ATOM     36  H   UNL     1      38.729 -16.762 -47.515  0.00  0.00    +0.155 HD
ATOM     37  N   UNL     1      40.372 -18.647 -47.977  0.00  0.00    -0.214 NA
BRANCH   4   3
ATOM      1  C   UNL     1      44.751 -20.737 -46.970  0.00  0.00    +0.020 A 
ATOM      2  C   UNL     1      43.595 -20.630 -47.831  0.00  0.00    +0.013 A 
ATOM      3  C   UNL     1      42.442 -19.832 -47.433  0.00  0.00    +0.019 A 
ATOM     38  C   UNL     1      42.491 -19.150 -46.149  0.00  0.00    +0.120 A 
ATOM     39  N   UNL     1      43.617 -19.273 -45.341  0.00  0.00    -0.263 NA
ATOM     40  C   UNL     1      44.732 -20.039 -45.712  0.00  0.00    +0.111 A 
ENDBRANCH   4   3
ENDBRANCH  10   9
BRANCH  12  13
ATOM     13  N   UNL     1      36.140 -14.726 -51.854  0.00  0.00    -0.281 N 
ATOM     14  C   UNL     1      36.773 -13.494 -51.877  0.00  0.00    +0.248 C 
ATOM     30  O   UNL     1      37.269 -12.953 -50.900  0.00  0.00    -0.270 OA
ATOM     31  H   UNL     1      35.603 -14.970 -52.686  0.00  0.00    +0.155 HD
BRANCH  14  15
ATOM     15  C   UNL     1      36.854 -12.749 -53.170  0.00  0.00    +0.037 A 
ATOM     16  C   UNL     1      36.872 -11.284 -53.203  0.00  0.00    +0.013 A 
ATOM     17  C   UNL     1      36.933 -10.590 -54.465  0.00  0.00    +0.005 A 
ATOM     18  C   UNL     1      36.978 -11.360 -55.705  0.00  0.00    -0.033 A 
ATOM     28  C   UNL     1      36.964 -12.812 -55.643  0.00  0.00    +0.005 A 
ATOM     29  C   UNL     1      36.903 -13.496 -54.409  0.00  0.00    +0.013 A 
BRANCH  18  19
ATOM     19  C   UNL     1      37.023 -10.703 -57.097  0.00  0.00    +0.119 C 
BRANCH  19  20
ATOM     20  N   UNL     1      35.796  -9.987 -57.556  0.00  0.00    -0.302 NA
ATOM     21  C   UNL     1      35.287 -10.520 -58.898  0.00  0.00    +0.066 C 
ATOM     22  C   UNL     1      33.990  -9.775 -59.352  0.00  0.00    -0.064 C 
ATOM     23  N   UNL     1      34.269  -8.273 -59.435  0.00  0.00    +0.379 N 
ATOM     24  C   UNL     1      33.068  -7.577 -59.917  0.00  0.00    -0.096 C 
ATOM     25  H   UNL     1      35.075  -8.121 -60.191  0.00  0.00    -0.082 HD
ATOM     26  C   UNL     1      34.778  -7.736 -58.105  0.00  0.00    -0.064 C 
ATOM     27  C   UNL     1      36.051  -8.503 -57.649  0.00  0.00    +0.066 C 
ENDBRANCH  19  20
ENDBRANCH  18  19
ENDBRANCH  14  15
ENDBRANCH  12  13
TORSDOF 6
ENDMDL
