MODEL 1
REMARK VINA RESULT:      -8.2      0.000      0.000
REMARK  Name = C:\Users\Docking\Desktop\test protocol\1iep_ligandH.pdb
REMARK  8 active torsions:
REMARK  status: ('A' for Active; 'I' for Inactive)
REMARK    1  A    between atoms: _5  and  _11
REMARK    2  A    between atoms: _19  and  _21
REMARK    3  A    between atoms: _22  and  _66
REMARK    4  A    between atoms: _27  and  _30
REMARK    5  A    between atoms: _32  and  _33
REMARK    6  A    between atoms: _38  and  _43
REMARK    7  A    between atoms: _43  and  _46
REMARK    8  A    between atoms: _53  and  _55
REMARK                            x       y       z     vdW  Elec       q    Type
REMARK                         _______ _______ _______ _____ _____    ______ ____
ROOT
ATOM     10  C   UNL     1      10.168 -16.530 -21.537  0.00  0.00    +0.038 A 
ATOM     11  C   UNL     1       9.180 -17.054 -20.664  0.00  0.00    +0.047 A 
ATOM     12  C   UNL     1       8.952 -16.472 -19.351  0.00  0.00    +0.035 A 
ATOM     32  C   UNL     1       9.746 -15.356 -18.958  0.00  0.00    +0.024 A 
ATOM     33  C   UNL     1      10.755 -14.811 -19.832  0.00  0.00    +0.007 A 
ATOM     34  C   UNL     1      10.987 -15.382 -21.128  0.00  0.00    -0.029 A 
ATOM     35  C   UNL     1      12.087 -14.761 -22.021  0.00  0.00    +0.045 C 
ENDROOT
BRANCH  10   9
ATOM      4  C   UNL     1       8.466 -18.308 -25.657  0.00  0.00    +0.077 A 
ATOM      5  C   UNL     1       7.108 -18.049 -25.276  0.00  0.00    +0.048 A 
ATOM      6  C   UNL     1       6.889 -17.465 -24.009  0.00  0.00    +0.116 A 
ATOM      7  N   UNL     1       7.957 -17.164 -23.192  0.00  0.00    -0.223 NA
ATOM      8  C   UNL     1       9.255 -17.428 -23.589  0.00  0.00    +0.220 A 
ATOM      9  N   UNL     1      10.345 -17.127 -22.787  0.00  0.00    -0.283 N 
ATOM     36  H   UNL     1      11.287 -17.344 -23.113  0.00  0.00    +0.155 HD
ATOM     37  N   UNL     1       9.490 -17.987 -24.794  0.00  0.00    -0.214 NA
BRANCH   4   3
ATOM      1  C   UNL     1      10.384 -19.136 -28.965  0.00  0.00    +0.020 A 
ATOM      2  C   UNL     1      10.049 -18.514 -27.704  0.00  0.00    +0.013 A 
ATOM      3  C   UNL     1       8.859 -18.918 -26.967  0.00  0.00    +0.019 A 
ATOM     38  C   UNL     1       8.023 -19.965 -27.535  0.00  0.00    +0.120 A 
ATOM     39  N   UNL     1       8.369 -20.545 -28.752  0.00  0.00    -0.263 NA
ATOM     40  C   UNL     1       9.511 -20.162 -29.472  0.00  0.00    +0.111 A 
ENDBRANCH   4   3
ENDBRANCH  10   9
BRANCH  12  13
ATOM     13  N   UNL     1       7.968 -16.966 -18.419  0.00  0.00    -0.281 N 
ATOM     14  C   UNL     1       8.169 -17.801 -17.332  0.00  0.00    +0.248 C 
ATOM     30  O   UNL     1       9.199 -18.425 -17.120  0.00  0.00    -0.270 OA
ATOM     31  H   UNL     1       7.008 -16.664 -18.580  0.00  0.00    +0.155 HD
BRANCH  14  15
ATOM     15  C   UNL     1       7.062 -17.980 -16.344  0.00  0.00    +0.037 A 
ATOM     16  C   UNL     1       7.314 -17.933 -14.902  0.00  0.00    +0.013 A 
ATOM     17  C   UNL     1       6.231 -18.125 -13.971  0.00  0.00    +0.005 A 
ATOM     18  C   UNL     1       4.883 -18.366 -14.481  0.00  0.00    -0.033 A 
ATOM     28  C   UNL     1       4.659 -18.403 -15.917  0.00  0.00    +0.005 A 
ATOM     29  C   UNL     1       5.719 -18.216 -16.832  0.00  0.00    +0.013 A 
BRANCH  18  19
ATOM     19  C   UNL     1       3.671 -18.604 -13.561  0.00  0.00    +0.119 C 
BRANCH  19  20
ATOM     20  N   UNL     1       3.951 -18.965 -12.139  0.00  0.00    -0.302 NA
ATOM     21  C   UNL     1       3.076 -20.125 -11.658  0.00  0.00    +0.066 C 
ATOM     22  C   UNL     1       3.398 -20.504 -10.176  0.00  0.00    -0.064 C 
ATOM     23  N   UNL     1       3.208 -19.275  -9.284  0.00  0.00    +0.379 N 
ATOM     24  C   UNL     1       3.455 -19.643  -7.883  0.00  0.00    -0.096 C 
ATOM     25  H   UNL     1       2.143 -18.958  -9.369  0.00  0.00    -0.082 HD
ATOM     26  C   UNL     1       4.073 -18.116  -9.758  0.00  0.00    -0.064 C 
ATOM     27  C   UNL     1       3.766 -17.767 -11.241  0.00  0.00    +0.066 C 
ENDBRANCH  19  20
ENDBRANCH  18  19
ENDBRANCH  14  15
ENDBRANCH  12  13
TORSDOF 6
ENDMDL
MODEL 2
REMARK VINA RESULT:      -8.2     29.145     33.804
REMARK  Name = C:\Users\Docking\Desktop\test protocol\1iep_ligandH.pdb
REMARK  8 active torsions:
REMARK  status: ('A' for Active; 'I' for Inactive)
REMARK    1  A    between atoms: _5  and  _11
REMARK    2  A    between atoms: _19  and  _21
REMARK    3  A    between atoms: _22  and  _66
REMARK    4  A    between atoms: _27  and  _30
REMARK    5  A    between atoms: _32  and  _33
REMARK    6  A    between atoms: _38  and  _43
REMARK    7  A    between atoms: _43  and  _46
REMARK    8  A    between atoms: _53  and  _55
REMARK                            x       y       z     vdW  Elec       q    Type
REMARK                         _______ _______ _______ _____ _____    ______ ____
ROOT
ATOM     10  C   UNL     1     -19.939 -28.158 -30.384  0.00  0.00    +0.038 A 
ATOM     11  C   UNL     1     -19.792 -27.847 -31.760  0.00  0.00    +0.047 A 
ATOM     12  C   UNL     1     -20.608 -28.501 -32.771  0.00  0.00    +0.035 A 
ATOM     32  C   UNL     1     -21.567 -29.466 -32.344  0.00  0.00    +0.024 A 
ATOM     33  C   UNL     1     -21.728 -29.795 -30.950  0.00  0.00    +0.007 A 
ATOM     34  C   UNL     1     -20.924 -29.155 -29.949  0.00  0.00    -0.029 A 
ATOM     35  C   UNL     1     -21.136 -29.551 -28.469  0.00  0.00    +0.045 C 
ENDROOT
BRANCH  10   9
ATOM      4  C   UNL     1     -19.009 -24.495 -27.425  0.00  0.00    +0.077 A 
ATOM      5  C   UNL     1     -20.228 -23.824 -27.777  0.00  0.00    +0.048 A 
ATOM      6  C   UNL     1     -21.062 -24.452 -28.729  0.00  0.00    +0.116 A 
ATOM      7  N   UNL     1     -20.696 -25.660 -29.281  0.00  0.00    -0.223 NA
ATOM      8  C   UNL     1     -19.513 -26.280 -28.920  0.00  0.00    +0.220 A 
ATOM      9  N   UNL     1     -19.129 -27.499 -29.457  0.00  0.00    -0.283 N 
ATOM     36  H   UNL     1     -18.245 -27.919 -29.170  0.00  0.00    +0.155 HD
ATOM     37  N   UNL     1     -18.698 -25.700 -28.015  0.00  0.00    -0.214 NA
BRANCH   4   3
ATOM      1  C   UNL     1     -16.998 -22.089 -25.087  0.00  0.00    +0.020 A 
ATOM      2  C   UNL     1     -17.968 -22.554 -26.052  0.00  0.00    +0.013 A 
ATOM      3  C   UNL     1     -18.025 -23.960 -26.432  0.00  0.00    +0.019 A 
ATOM     38  C   UNL     1     -17.079 -24.876 -25.813  0.00  0.00    +0.120 A 
ATOM     39  N   UNL     1     -16.155 -24.399 -24.889  0.00  0.00    -0.263 NA
ATOM     40  C   UNL     1     -16.090 -23.048 -24.516  0.00  0.00    +0.111 A 
ENDBRANCH   4   3
ENDBRANCH  10   9
BRANCH  12  13
ATOM     13  N   UNL     1     -20.498 -28.232 -34.183  0.00  0.00    -0.281 N 
ATOM     14  C   UNL     1     -20.559 -27.006 -34.824  0.00  0.00    +0.248 C 
ATOM     30  O   UNL     1     -20.932 -25.968 -34.296  0.00  0.00    -0.270 OA
ATOM     31  H   UNL     1     -20.359 -29.045 -34.784  0.00  0.00    +0.155 HD
BRANCH  14  15
ATOM     15  C   UNL     1     -20.160 -26.921 -36.262  0.00  0.00    +0.037 A 
ATOM     16  C   UNL     1     -19.487 -25.735 -36.796  0.00  0.00    +0.013 A 
ATOM     17  C   UNL     1     -19.129 -25.673 -38.191  0.00  0.00    +0.005 A 
ATOM     18  C   UNL     1     -19.443 -26.803 -39.062  0.00  0.00    -0.033 A 
ATOM     28  C   UNL     1     -20.107 -27.970 -38.505  0.00  0.00    +0.005 A 
ATOM     29  C   UNL     1     -20.460 -28.034 -37.138  0.00  0.00    +0.013 A 
BRANCH  18  19
ATOM     19  C   UNL     1     -19.117 -26.815 -40.567  0.00  0.00    +0.119 C 
BRANCH  19  20
ATOM     20  N   UNL     1     -17.831 -27.448 -40.983  0.00  0.00    -0.302 NA
ATOM     21  C   UNL     1     -16.956 -26.492 -41.798  0.00  0.00    +0.066 C 
ATOM     22  C   UNL     1     -15.604 -27.163 -42.205  0.00  0.00    -0.064 C 
ATOM     23  N   UNL     1     -15.891 -28.441 -42.996  0.00  0.00    +0.379 N 
ATOM     24  C   UNL     1     -14.623 -29.044 -43.431  0.00  0.00    -0.096 C 
ATOM     25  H   UNL     1     -16.459 -28.152 -43.911  0.00  0.00    -0.082 HD
ATOM     26  C   UNL     1     -16.763 -29.397 -42.195  0.00  0.00    -0.064 C 
ATOM     27  C   UNL     1     -18.091 -28.710 -41.769  0.00  0.00    +0.066 C 
ENDBRANCH  19  20
ENDBRANCH  18  19
ENDBRANCH  14  15
ENDBRANCH  12  13
TORSDOF 6
ENDMDL
MODEL 3
REMARK VINA RESULT:      -7.9     16.302     20.464
REMARK  Name = C:\Users\Docking\Desktop\test protocol\1iep_ligandH.pdb
REMARK  8 active torsions:
REMARK  status: ('A' for Active; 'I' for Inactive)
REMARK    1  A    between atoms: _5  and  _11
REMARK    2  A    between atoms: _19  and  _21
REMARK    3  A    between atoms: _22  and  _66
REMARK    4  A    between atoms: _27  and  _30
REMARK    5  A    between atoms: _32  and  _33
REMARK    6  A    between atoms: _38  and  _43
REMARK    7  A    between atoms: _43  and  _46
REMARK    8  A    between atoms: _53  and  _55
REMARK                            x       y       z     vdW  Elec       q    Type
REMARK                         _______ _______ _______ _____ _____    ______ ____
ROOT
ATOM     10  C   UNL     1      15.262  -2.005 -23.861  0.00  0.00    +0.038 A 
ATOM     11  C   UNL     1      14.300  -1.047 -23.451  0.00  0.00    +0.047 A 
ATOM     12  C   UNL     1      14.627   0.369 -23.388  0.00  0.00    +0.035 A 
ATOM     32  C   UNL     1      15.944   0.774 -23.752  0.00  0.00    +0.024 A 
ATOM     33  C   UNL     1      16.935  -0.186 -24.171  0.00  0.00    +0.007 A 
ATOM     34  C   UNL     1      16.618  -1.585 -24.232  0.00  0.00    -0.029 A 
ATOM     35  C   UNL     1      17.722  -2.570 -24.682  0.00  0.00    +0.045 C 
ENDROOT
BRANCH  10   9
ATOM      4  C   UNL     1      14.932  -6.368 -21.886  0.00  0.00    +0.077 A 
ATOM      5  C   UNL     1      15.573  -5.934 -20.678  0.00  0.00    +0.048 A 
ATOM      6  C   UNL     1      15.978  -4.582 -20.608  0.00  0.00    +0.116 A 
ATOM      7  N   UNL     1      15.754  -3.736 -21.672  0.00  0.00    -0.223 NA
ATOM      8  C   UNL     1      15.135  -4.187 -22.824  0.00  0.00    +0.220 A 
ATOM      9  N   UNL     1      14.893  -3.352 -23.903  0.00  0.00    -0.283 N 
ATOM     36  H   UNL     1      14.440  -3.725 -24.738  0.00  0.00    +0.155 HD
ATOM     37  N   UNL     1      14.740  -5.474 -22.916  0.00  0.00    -0.214 NA
BRANCH   4   3
ATOM      1  C   UNL     1      12.651  -9.540 -22.076  0.00  0.00    +0.020 A 
ATOM      2  C   UNL     1      13.072  -8.178 -21.841  0.00  0.00    +0.013 A 
ATOM      3  C   UNL     1      14.443  -7.765 -22.111  0.00  0.00    +0.019 A 
ATOM     38  C   UNL     1      15.371  -8.762 -22.622  0.00  0.00    +0.120 A 
ATOM     39  N   UNL     1      14.938 -10.067 -22.837  0.00  0.00    -0.263 NA
ATOM     40  C   UNL     1      13.621 -10.476 -22.580  0.00  0.00    +0.111 A 
ENDBRANCH   4   3
ENDBRANCH  10   9
BRANCH  12  13
ATOM     13  N   UNL     1      13.695   1.386 -22.971  0.00  0.00    -0.281 N 
ATOM     14  C   UNL     1      13.223   2.462 -23.706  0.00  0.00    +0.248 C 
ATOM     30  O   UNL     1      13.698   2.834 -24.768  0.00  0.00    -0.270 OA
ATOM     31  H   UNL     1      13.339   1.304 -22.019  0.00  0.00    +0.155 HD
BRANCH  14  15
ATOM     15  C   UNL     1      12.065   3.245 -23.177  0.00  0.00    +0.037 A 
ATOM     16  C   UNL     1      11.808   3.344 -21.738  0.00  0.00    +0.013 A 
ATOM     17  C   UNL     1      10.674   4.092 -21.256  0.00  0.00    +0.005 A 
ATOM     18  C   UNL     1       9.789   4.749 -22.215  0.00  0.00    -0.033 A 
ATOM     28  C   UNL     1      10.071   4.639 -23.637  0.00  0.00    +0.005 A 
ATOM     29  C   UNL     1      11.180   3.906 -24.113  0.00  0.00    +0.013 A 
BRANCH  18  19
ATOM     19  C   UNL     1       8.544   5.550 -21.791  0.00  0.00    +0.119 C 
BRANCH  19  20
ATOM     20  N   UNL     1       7.385   5.562 -22.733  0.00  0.00    -0.302 NA
ATOM     21  C   UNL     1       6.521   6.815 -22.564  0.00  0.00    +0.066 C 
ATOM     22  C   UNL     1       5.326   6.822 -23.573  0.00  0.00    -0.064 C 
ATOM     23  N   UNL     1       4.489   5.556 -23.377  0.00  0.00    +0.379 N 
ATOM     24  C   UNL     1       3.333   5.587 -24.284  0.00  0.00    -0.096 C 
ATOM     25  H   UNL     1       4.101   5.566 -22.332  0.00  0.00    -0.082 HD
ATOM     26  C   UNL     1       5.342   4.306 -23.540  0.00  0.00    -0.064 C 
ATOM     27  C   UNL     1       6.543   4.323 -22.554  0.00  0.00    +0.066 C 
ENDBRANCH  19  20
ENDBRANCH  18  19
ENDBRANCH  14  15
ENDBRANCH  12  13
TORSDOF 6
ENDMDL
MODEL 4
REMARK VINA RESULT:      -7.7      7.035     17.124
REMARK  Name = C:\Users\Docking\Desktop\test protocol\1iep_ligandH.pdb
REMARK  8 active torsions:
REMARK  status: ('A' for Active; 'I' for Inactive)
REMARK    1  A    between atoms: _5  and  _11
REMARK    2  A    between atoms: _19  and  _21
REMARK    3  A    between atoms: _22  and  _66
REMARK    4  A    between atoms: _27  and  _30
REMARK    5  A    between atoms: _32  and  _33
REMARK    6  A    between atoms: _38  and  _43
REMARK    7  A    between atoms: _43  and  _46
REMARK    8  A    between atoms: _53  and  _55
REMARK                            x       y       z     vdW  Elec       q    Type
REMARK                         _______ _______ _______ _____ _____    ______ ____
ROOT
ATOM     10  C   UNL     1       9.013 -21.214 -28.735  0.00  0.00    +0.038 A 
ATOM     11  C   UNL     1       8.495 -20.823 -29.996  0.00  0.00    +0.047 A 
ATOM     12  C   UNL     1       9.031 -21.370 -31.232  0.00  0.00    +0.035 A 
ATOM     32  C   UNL     1      10.094 -22.315 -31.148  0.00  0.00    +0.024 A 
ATOM     33  C   UNL     1      10.634 -22.723 -29.875  0.00  0.00    +0.007 A 
ATOM     34  C   UNL     1      10.111 -22.185 -28.652  0.00  0.00    -0.029 A 
ATOM     35  C   UNL     1      10.733 -22.654 -27.316  0.00  0.00    +0.045 C 
ENDROOT
BRANCH  10   9
ATOM      4  C   UNL     1       8.933 -17.921 -25.244  0.00  0.00    +0.077 A 
ATOM      5  C   UNL     1      10.107 -17.270 -25.751  0.00  0.00    +0.048 A 
ATOM      6  C   UNL     1      10.705 -17.818 -26.907  0.00  0.00    +0.116 A 
ATOM      7  N   UNL     1      10.161 -18.935 -27.505  0.00  0.00    -0.223 NA
ATOM      8  C   UNL     1       9.029 -19.539 -26.990  0.00  0.00    +0.220 A 
ATOM      9  N   UNL     1       8.461 -20.658 -27.579  0.00  0.00    -0.283 N 
ATOM     36  H   UNL     1       7.630 -21.079 -27.165  0.00  0.00    +0.155 HD
ATOM     37  N   UNL     1       8.440 -19.035 -25.886  0.00  0.00    -0.214 NA
BRANCH   4   3
ATOM      1  C   UNL     1       6.106 -16.628 -22.870  0.00  0.00    +0.020 A 
ATOM      2  C   UNL     1       6.782 -17.067 -24.069  0.00  0.00    +0.013 A 
ATOM      3  C   UNL     1       8.185 -17.458 -24.033  0.00  0.00    +0.019 A 
ATOM     38  C   UNL     1       8.882 -17.395 -22.756  0.00  0.00    +0.120 A 
ATOM     39  N   UNL     1       8.205 -16.967 -21.618  0.00  0.00    -0.263 NA
ATOM     40  C   UNL     1       6.855 -16.586 -21.642  0.00  0.00    +0.111 A 
ENDBRANCH   4   3
ENDBRANCH  10   9
BRANCH  12  13
ATOM     13  N   UNL     1       8.550 -21.005 -32.542  0.00  0.00    -0.281 N 
ATOM     14  C   UNL     1       7.738 -21.743 -33.387  0.00  0.00    +0.248 C 
ATOM     30  O   UNL     1       7.475 -22.926 -33.234  0.00  0.00    -0.270 OA
ATOM     31  H   UNL     1       8.843 -20.091 -32.887  0.00  0.00    +0.155 HD
BRANCH  14  15
ATOM     15  C   UNL     1       7.144 -21.073 -34.584  0.00  0.00    +0.037 A 
ATOM     16  C   UNL     1       6.905 -19.628 -34.606  0.00  0.00    +0.013 A 
ATOM     17  C   UNL     1       6.315 -19.010 -35.767  0.00  0.00    +0.005 A 
ATOM     18  C   UNL     1       5.961 -19.838 -36.917  0.00  0.00    -0.033 A 
ATOM     28  C   UNL     1       6.213 -21.269 -36.871  0.00  0.00    +0.005 A 
ATOM     29  C   UNL     1       6.790 -21.878 -35.734  0.00  0.00    +0.013 A 
BRANCH  18  19
ATOM     19  C   UNL     1       5.307 -19.267 -38.190  0.00  0.00    +0.119 C 
BRANCH  19  20
ATOM     20  N   UNL     1       4.115 -18.386 -38.010  0.00  0.00    -0.302 NA
ATOM     21  C   UNL     1       2.983 -18.748 -38.975  0.00  0.00    +0.066 C 
ATOM     22  C   UNL     1       1.735 -17.831 -38.758  0.00  0.00    -0.064 C 
ATOM     23  N   UNL     1       2.144 -16.368 -38.928  0.00  0.00    +0.379 N 
ATOM     24  C   UNL     1       0.961 -15.507 -38.781  0.00  0.00    -0.096 C 
ATOM     25  H   UNL     1       2.528 -16.242 -39.967  0.00  0.00    -0.082 HD
ATOM     26  C   UNL     1       3.271 -16.000 -37.973  0.00  0.00    -0.064 C 
ATOM     27  C   UNL     1       4.496 -16.936 -38.177  0.00  0.00    +0.066 C 
ENDBRANCH  19  20
ENDBRANCH  18  19
ENDBRANCH  14  15
ENDBRANCH  12  13
TORSDOF 6
ENDMDL
MODEL 5
REMARK VINA RESULT:      -7.7     26.458     32.094
REMARK  Name = C:\Users\Docking\Desktop\test protocol\1iep_ligandH.pdb
REMARK  8 active torsions:
REMARK  status: ('A' for Active; 'I' for Inactive)
REMARK    1  A    between atoms: _5  and  _11
REMARK    2  A    between atoms: _19  and  _21
REMARK    3  A    between atoms: _22  and  _66
REMARK    4  A    between atoms: _27  and  _30
REMARK    5  A    between atoms: _32  and  _33
REMARK    6  A    between atoms: _38  and  _43
REMARK    7  A    between atoms: _43  and  _46
REMARK    8  A    between atoms: _53  and  _55
REMARK                            x       y       z     vdW  Elec       q    Type
REMARK                         _______ _______ _______ _____ _____    ______ ____
ROOT
ATOM     10  C   UNL     1     -13.500 -28.666 -41.908  0.00  0.00    +0.038 A 
ATOM     11  C   UNL     1     -12.977 -27.504 -41.287  0.00  0.00    +0.047 A 
ATOM     12  C   UNL     1     -11.775 -26.857 -41.789  0.00  0.00    +0.035 A 
ATOM     32  C   UNL     1     -11.131 -27.421 -42.929  0.00  0.00    +0.024 A 
ATOM     33  C   UNL     1     -11.648 -28.603 -43.573  0.00  0.00    +0.007 A 
ATOM     34  C   UNL     1     -12.832 -29.246 -43.080  0.00  0.00    -0.029 A 
ATOM     35  C   UNL     1     -13.338 -30.515 -43.806  0.00  0.00    +0.045 C 
ENDROOT
BRANCH  10   9
ATOM      4  C   UNL     1     -18.247 -28.748 -41.204  0.00  0.00    +0.077 A 
ATOM      5  C   UNL     1     -18.434 -27.518 -41.918  0.00  0.00    +0.048 A 
ATOM      6  C   UNL     1     -17.281 -26.892 -42.445  0.00  0.00    +0.116 A 
ATOM      7  N   UNL     1     -16.040 -27.463 -42.265  0.00  0.00    -0.223 NA
ATOM      8  C   UNL     1     -15.895 -28.650 -41.570  0.00  0.00    +0.220 A 
ATOM      9  N   UNL     1     -14.657 -29.246 -41.384  0.00  0.00    -0.283 N 
ATOM     36  H   UNL     1     -14.591 -30.117 -40.859  0.00  0.00    +0.155 HD
ATOM     37  N   UNL     1     -16.980 -29.266 -41.056  0.00  0.00    -0.214 NA
BRANCH   4   3
ATOM      1  C   UNL     1     -20.306 -31.118 -38.871  0.00  0.00    +0.020 A 
ATOM      2  C   UNL     1     -19.191 -30.385 -39.424  0.00  0.00    +0.013 A 
ATOM      3  C   UNL     1     -19.367 -29.530 -40.591  0.00  0.00    +0.019 A 
ATOM     38  C   UNL     1     -20.695 -29.438 -41.179  0.00  0.00    +0.120 A 
ATOM     39  N   UNL     1     -21.750 -30.157 -40.626  0.00  0.00    -0.263 NA
ATOM     40  C   UNL     1     -21.592 -30.984 -39.504  0.00  0.00    +0.111 A 
ENDBRANCH   4   3
ENDBRANCH  10   9
BRANCH  12  13
ATOM     13  N   UNL     1     -11.194 -25.679 -41.195  0.00  0.00    -0.281 N 
ATOM     14  C   UNL     1     -11.807 -24.464 -40.938  0.00  0.00    +0.248 C 
ATOM     30  O   UNL     1     -12.898 -24.134 -41.378  0.00  0.00    -0.270 OA
ATOM     31  H   UNL     1     -10.211 -25.750 -40.932  0.00  0.00    +0.155 HD
BRANCH  14  15
ATOM     15  C   UNL     1     -11.100 -23.466 -40.079  0.00  0.00    +0.037 A 
ATOM     16  C   UNL     1     -11.043 -23.620 -38.623  0.00  0.00    +0.013 A 
ATOM     17  C   UNL     1     -10.369 -22.634 -37.817  0.00  0.00    +0.005 A 
ATOM     18  C   UNL     1      -9.744 -21.484 -38.466  0.00  0.00    -0.033 A 
ATOM     28  C   UNL     1      -9.810 -21.358 -39.912  0.00  0.00    +0.005 A 
ATOM     29  C   UNL     1     -10.471 -22.323 -40.706  0.00  0.00    +0.013 A 
BRANCH  18  19
ATOM     19  C   UNL     1      -9.022 -20.372 -37.682  0.00  0.00    +0.119 C 
BRANCH  19  20
ATOM     20  N   UNL     1      -8.544 -19.189 -38.458  0.00  0.00    -0.302 NA
ATOM     21  C   UNL     1      -7.125 -18.775 -38.058  0.00  0.00    +0.066 C 
ATOM     22  C   UNL     1      -6.632 -17.549 -38.895  0.00  0.00    -0.064 C 
ATOM     23  N   UNL     1      -7.608 -16.385 -38.713  0.00  0.00    +0.379 N 
ATOM     24  C   UNL     1      -7.117 -15.214 -39.453  0.00  0.00    -0.096 C 
ATOM     25  H   UNL     1      -7.621 -16.121 -37.630  0.00  0.00    -0.082 HD
ATOM     26  C   UNL     1      -9.022 -16.790 -39.106  0.00  0.00    -0.064 C 
ATOM     27  C   UNL     1      -9.491 -18.026 -38.289  0.00  0.00    +0.066 C 
ENDBRANCH  19  20
ENDBRANCH  18  19
ENDBRANCH  14  15
ENDBRANCH  12  13
TORSDOF 6
ENDMDL
