MODEL 1
REMARK VINA RESULT:      -8.7      0.000      0.000
REMARK  Name = C:\Users\Docking\Desktop\test protocol\1iep_ligandH.pdb
REMARK  8 active torsions:
REMARK  status: ('A' for Active; 'I' for Inactive)
REMARK    1  A    between atoms: _5  and  _11
REMARK    2  A    between atoms: _19  and  _21
REMARK    3  A    between atoms: _22  and  _66
REMARK    4  A    between atoms: _27  and  _30
REMARK    5  A    between atoms: _32  and  _33
REMARK    6  A    between atoms: _38  and  _43
REMARK    7  A    between atoms: _43  and  _46
REMARK    8  A    between atoms: _53  and  _55
REMARK                            x       y       z     vdW  Elec       q    Type
REMARK                         _______ _______ _______ _____ _____    ______ ____
ROOT
ATOM     10  C   UNL     1     129.200  60.852  43.334  0.00  0.00    +0.038 A 
ATOM     11  C   UNL     1     128.930  61.109  41.966  0.00  0.00    +0.047 A 
ATOM     12  C   UNL     1     129.925  60.844  40.939  0.00  0.00    +0.035 A 
ATOM     32  C   UNL     1     131.186  60.313  41.342  0.00  0.00    +0.024 A 
ATOM     33  C   UNL     1     131.478  60.047  42.728  0.00  0.00    +0.007 A 
ATOM     34  C   UNL     1     130.500  60.309  43.746  0.00  0.00    -0.029 A 
ATOM     35  C   UNL     1     130.870  60.010  45.217  0.00  0.00    +0.045 C 
ENDROOT
BRANCH  10   9
ATOM      4  C   UNL     1     125.618  59.492  46.225  0.00  0.00    +0.077 A 
ATOM      5  C   UNL     1     125.715  58.125  45.800  0.00  0.00    +0.048 A 
ATOM      6  C   UNL     1     126.694  57.815  44.830  0.00  0.00    +0.116 A 
ATOM      7  N   UNL     1     127.512  58.806  44.330  0.00  0.00    -0.223 NA
ATOM      8  C   UNL     1     127.391  60.114  44.761  0.00  0.00    +0.220 A 
ATOM      9  N   UNL     1     128.207  61.125  44.278  0.00  0.00    -0.283 N 
ATOM     36  H   UNL     1     128.082  62.079  44.616  0.00  0.00    +0.155 HD
ATOM     37  N   UNL     1     126.462  60.436  45.685  0.00  0.00    -0.214 NA
BRANCH   4   3
ATOM      1  C   UNL     1     123.494  59.840  49.491  0.00  0.00    +0.020 A 
ATOM      2  C   UNL     1     124.457  59.332  48.541  0.00  0.00    +0.013 A 
ATOM      3  C   UNL     1     124.635  59.975  47.246  0.00  0.00    +0.019 A 
ATOM     38  C   UNL     1     123.817  61.140  46.940  0.00  0.00    +0.120 A 
ATOM     39  N   UNL     1     122.897  61.605  47.874  0.00  0.00    -0.263 NA
ATOM     40  C   UNL     1     122.715  60.993  49.123  0.00  0.00    +0.111 A 
ENDBRANCH   4   3
ENDBRANCH  10   9
BRANCH  12  13
ATOM     13  N   UNL     1     129.711  61.092  39.535  0.00  0.00    -0.281 N 
ATOM     14  C   UNL     1     130.327  62.040  38.734  0.00  0.00    +0.248 C 
ATOM     30  O   UNL     1     131.007  62.964  39.155  0.00  0.00    -0.270 OA
ATOM     31  H   UNL     1     129.020  60.498  39.076  0.00  0.00    +0.155 HD
BRANCH  14  15
ATOM     15  C   UNL     1     130.152  61.956  37.252  0.00  0.00    +0.037 A 
ATOM     16  C   UNL     1     131.013  62.716  36.342  0.00  0.00    +0.013 A 
ATOM     17  C   UNL     1     130.811  62.630  34.917  0.00  0.00    +0.005 A 
ATOM     18  C   UNL     1     129.744  61.780  34.394  0.00  0.00    -0.033 A 
ATOM     28  C   UNL     1     128.909  61.034  35.320  0.00  0.00    +0.005 A 
ATOM     29  C   UNL     1     129.102  61.116  36.717  0.00  0.00    +0.013 A 
BRANCH  18  19
ATOM     19  C   UNL     1     129.444  61.645  32.889  0.00  0.00    +0.119 C 
BRANCH  19  20
ATOM     20  N   UNL     1     128.773  62.800  32.220  0.00  0.00    -0.302 NA
ATOM     21  C   UNL     1     127.257  62.605  32.121  0.00  0.00    +0.066 C 
ATOM     22  C   UNL     1     126.569  63.832  31.439  0.00  0.00    -0.064 C 
ATOM     23  N   UNL     1     127.179  64.049  30.053  0.00  0.00    +0.379 N 
ATOM     24  C   UNL     1     126.494  65.166  29.385  0.00  0.00    -0.096 C 
ATOM     25  H   UNL     1     126.990  63.129  29.452  0.00  0.00    -0.082 HD
ATOM     26  C   UNL     1     128.686  64.241  30.141  0.00  0.00    -0.064 C 
ATOM     27  C   UNL     1     129.357  63.030  30.848  0.00  0.00    +0.066 C 
ENDBRANCH  19  20
ENDBRANCH  18  19
ENDBRANCH  14  15
ENDBRANCH  12  13
TORSDOF 6
ENDMDL
MODEL 2
REMARK VINA RESULT:      -8.5     30.828     33.678
REMARK  Name = C:\Users\Docking\Desktop\test protocol\1iep_ligandH.pdb
REMARK  8 active torsions:
REMARK  status: ('A' for Active; 'I' for Inactive)
REMARK    1  A    between atoms: _5  and  _11
REMARK    2  A    between atoms: _19  and  _21
REMARK    3  A    between atoms: _22  and  _66
REMARK    4  A    between atoms: _27  and  _30
REMARK    5  A    between atoms: _32  and  _33
REMARK    6  A    between atoms: _38  and  _43
REMARK    7  A    between atoms: _43  and  _46
REMARK    8  A    between atoms: _53  and  _55
REMARK                            x       y       z     vdW  Elec       q    Type
REMARK                         _______ _______ _______ _____ _____    ______ ____
ROOT
ATOM     10  C   UNL     1     151.266  38.813  27.293  0.00  0.00    +0.038 A 
ATOM     11  C   UNL     1     150.536  39.236  26.153  0.00  0.00    +0.047 A 
ATOM     12  C   UNL     1     150.367  40.649  25.848  0.00  0.00    +0.035 A 
ATOM     32  C   UNL     1     150.958  41.604  26.726  0.00  0.00    +0.024 A 
ATOM     33  C   UNL     1     151.703  41.192  27.889  0.00  0.00    +0.007 A 
ATOM     34  C   UNL     1     151.871  39.800  28.196  0.00  0.00    -0.029 A 
ATOM     35  C   UNL     1     152.673  39.416  29.461  0.00  0.00    +0.045 C 
ENDROOT
BRANCH  10   9
ATOM      4  C   UNL     1     149.599  34.634  28.962  0.00  0.00    +0.077 A 
ATOM      5  C   UNL     1     148.375  35.233  29.410  0.00  0.00    +0.048 A 
ATOM      6  C   UNL     1     148.217  36.621  29.198  0.00  0.00    +0.116 A 
ATOM      7  N   UNL     1     149.215  37.346  28.583  0.00  0.00    -0.223 NA
ATOM      8  C   UNL     1     150.384  36.737  28.165  0.00  0.00    +0.220 A 
ATOM      9  N   UNL     1     151.397  37.445  27.537  0.00  0.00    -0.283 N 
ATOM     36  H   UNL     1     152.247  36.960  27.250  0.00  0.00    +0.155 HD
ATOM     37  N   UNL     1     150.559  35.413  28.357  0.00  0.00    -0.214 NA
BRANCH   4   3
ATOM      1  C   UNL     1     150.082  31.054  30.463  0.00  0.00    +0.020 A 
ATOM      2  C   UNL     1     149.766  32.461  30.372  0.00  0.00    +0.013 A 
ATOM      3  C   UNL     1     149.913  33.178  29.112  0.00  0.00    +0.019 A 
ATOM     38  C   UNL     1     150.385  32.436  27.952  0.00  0.00    +0.120 A 
ATOM     39  N   UNL     1     150.684  31.082  28.070  0.00  0.00    -0.263 NA
ATOM     40  C   UNL     1     150.548  30.382  29.278  0.00  0.00    +0.111 A 
ENDBRANCH   4   3
ENDBRANCH  10   9
BRANCH  12  13
ATOM     13  N   UNL     1     149.630  41.138  24.710  0.00  0.00    -0.281 N 
ATOM     14  C   UNL     1     148.257  41.156  24.529  0.00  0.00    +0.248 C 
ATOM     30  O   UNL     1     147.458  40.556  25.233  0.00  0.00    -0.270 OA
ATOM     31  H   UNL     1     150.188  41.516  23.944  0.00  0.00    +0.155 HD
BRANCH  14  15
ATOM     15  C   UNL     1     147.689  41.944  23.393  0.00  0.00    +0.037 A 
ATOM     16  C   UNL     1     146.463  41.520  22.712  0.00  0.00    +0.013 A 
ATOM     17  C   UNL     1     145.946  42.288  21.607  0.00  0.00    +0.005 A 
ATOM     18  C   UNL     1     146.655  43.492  21.178  0.00  0.00    -0.033 A 
ATOM     28  C   UNL     1     147.866  43.893  21.875  0.00  0.00    +0.005 A 
ATOM     29  C   UNL     1     148.376  43.141  22.957  0.00  0.00    +0.013 A 
BRANCH  18  19
ATOM     19  C   UNL     1     146.187  44.361  19.996  0.00  0.00    +0.119 C 
BRANCH  19  20
ATOM     20  N   UNL     1     145.872  45.792  20.283  0.00  0.00    -0.302 NA
ATOM     21  C   UNL     1     144.416  45.984  20.719  0.00  0.00    +0.066 C 
ATOM     22  C   UNL     1     144.110  47.484  21.036  0.00  0.00    -0.064 C 
ATOM     23  N   UNL     1     144.423  48.337  19.806  0.00  0.00    +0.379 N 
ATOM     24  C   UNL     1     144.081  49.740  20.082  0.00  0.00    -0.096 C 
ATOM     25  H   UNL     1     143.768  47.986  18.975  0.00  0.00    -0.082 HD
ATOM     26  C   UNL     1     145.868  48.150  19.364  0.00  0.00    -0.064 C 
ATOM     27  C   UNL     1     146.170  46.653  19.079  0.00  0.00    +0.066 C 
ENDBRANCH  19  20
ENDBRANCH  18  19
ENDBRANCH  14  15
ENDBRANCH  12  13
TORSDOF 6
ENDMDL
MODEL 3
REMARK VINA RESULT:      -8.4     10.685     17.870
REMARK  Name = C:\Users\Docking\Desktop\test protocol\1iep_ligandH.pdb
REMARK  8 active torsions:
REMARK  status: ('A' for Active; 'I' for Inactive)
REMARK    1  A    between atoms: _5  and  _11
REMARK    2  A    between atoms: _19  and  _21
REMARK    3  A    between atoms: _22  and  _66
REMARK    4  A    between atoms: _27  and  _30
REMARK    5  A    between atoms: _32  and  _33
REMARK    6  A    between atoms: _38  and  _43
REMARK    7  A    between atoms: _43  and  _46
REMARK    8  A    between atoms: _53  and  _55
REMARK                            x       y       z     vdW  Elec       q    Type
REMARK                         _______ _______ _______ _____ _____    ______ ____
ROOT
ATOM     10  C   UNL     1     128.312  54.223  47.131  0.00  0.00    +0.038 A 
ATOM     11  C   UNL     1     127.363  53.457  47.856  0.00  0.00    +0.047 A 
ATOM     12  C   UNL     1     126.067  54.011  48.216  0.00  0.00    +0.035 A 
ATOM     32  C   UNL     1     125.770  55.348  47.820  0.00  0.00    +0.024 A 
ATOM     33  C   UNL     1     126.724  56.141  47.085  0.00  0.00    +0.007 A 
ATOM     34  C   UNL     1     128.004  55.600  46.729  0.00  0.00    -0.029 A 
ATOM     35  C   UNL     1     128.990  56.498  45.945  0.00  0.00    +0.045 C 
ENDROOT
BRANCH  10   9
ATOM      4  C   UNL     1     132.834  53.024  48.203  0.00  0.00    +0.077 A 
ATOM      5  C   UNL     1     132.751  53.632  49.500  0.00  0.00    +0.048 A 
ATOM      6  C   UNL     1     131.529  54.249  49.850  0.00  0.00    +0.116 A 
ATOM      7  N   UNL     1     130.475  54.251  48.961  0.00  0.00    -0.223 NA
ATOM      8  C   UNL     1     130.590  53.657  47.718  0.00  0.00    +0.220 A 
ATOM      9  N   UNL     1     129.541  53.641  46.812  0.00  0.00    -0.283 N 
ATOM     36  H   UNL     1     129.667  53.198  45.902  0.00  0.00    +0.155 HD
ATOM     37  N   UNL     1     131.747  53.062  47.360  0.00  0.00    -0.214 NA
BRANCH   4   3
ATOM      1  C   UNL     1     135.254  50.329  46.725  0.00  0.00    +0.020 A 
ATOM      2  C   UNL     1     134.045  50.953  47.212  0.00  0.00    +0.013 A 
ATOM      3  C   UNL     1     134.057  52.329  47.690  0.00  0.00    +0.019 A 
ATOM     38  C   UNL     1     135.319  53.053  47.662  0.00  0.00    +0.120 A 
ATOM     39  N   UNL     1     136.468  52.426  47.189  0.00  0.00    -0.263 NA
ATOM     40  C   UNL     1     136.469  51.101  46.728  0.00  0.00    +0.111 A 
ENDBRANCH   4   3
ENDBRANCH  10   9
BRANCH  12  13
ATOM     13  N   UNL     1     125.066  53.285  48.958  0.00  0.00    -0.281 N 
ATOM     14  C   UNL     1     125.081  52.945  50.300  0.00  0.00    +0.248 C 
ATOM     30  O   UNL     1     126.062  53.029  51.024  0.00  0.00    -0.270 OA
ATOM     31  H   UNL     1     124.247  52.985  48.428  0.00  0.00    +0.155 HD
BRANCH  14  15
ATOM     15  C   UNL     1     123.828  52.422  50.927  0.00  0.00    +0.037 A 
ATOM     16  C   UNL     1     123.742  51.043  51.415  0.00  0.00    +0.013 A 
ATOM     17  C   UNL     1     122.516  50.559  52.000  0.00  0.00    +0.005 A 
ATOM     18  C   UNL     1     121.367  51.456  52.100  0.00  0.00    -0.033 A 
ATOM     28  C   UNL     1     121.482  52.820  51.612  0.00  0.00    +0.005 A 
ATOM     29  C   UNL     1     122.682  53.298  51.037  0.00  0.00    +0.013 A 
BRANCH  18  19
ATOM     19  C   UNL     1     120.013  51.018  52.689  0.00  0.00    +0.119 C 
BRANCH  19  20
ATOM     20  N   UNL     1     119.486  51.801  53.846  0.00  0.00    -0.302 NA
ATOM     21  C   UNL     1     120.420  51.736  55.058  0.00  0.00    +0.066 C 
ATOM     22  C   UNL     1     119.864  52.580  56.251  0.00  0.00    -0.064 C 
ATOM     23  N   UNL     1     118.466  52.079  56.618  0.00  0.00    +0.379 N 
ATOM     24  C   UNL     1     117.964  52.832  57.777  0.00  0.00    -0.096 C 
ATOM     25  H   UNL     1     118.558  51.011  56.922  0.00  0.00    -0.082 HD
ATOM     26  C   UNL     1     117.531  52.138  55.418  0.00  0.00    -0.064 C 
ATOM     27  C   UNL     1     118.107  51.321  54.228  0.00  0.00    +0.066 C 
ENDBRANCH  19  20
ENDBRANCH  18  19
ENDBRANCH  14  15
ENDBRANCH  12  13
TORSDOF 6
ENDMDL
MODEL 4
REMARK VINA RESULT:      -8.1      1.577      2.169
REMARK  Name = C:\Users\Docking\Desktop\test protocol\1iep_ligandH.pdb
REMARK  8 active torsions:
REMARK  status: ('A' for Active; 'I' for Inactive)
REMARK    1  A    between atoms: _5  and  _11
REMARK    2  A    between atoms: _19  and  _21
REMARK    3  A    between atoms: _22  and  _66
REMARK    4  A    between atoms: _27  and  _30
REMARK    5  A    between atoms: _32  and  _33
REMARK    6  A    between atoms: _38  and  _43
REMARK    7  A    between atoms: _43  and  _46
REMARK    8  A    between atoms: _53  and  _55
REMARK                            x       y       z     vdW  Elec       q    Type
REMARK                         _______ _______ _______ _____ _____    ______ ____
ROOT
ATOM     10  C   UNL     1     130.122  60.224  43.967  0.00  0.00    +0.038 A 
ATOM     11  C   UNL     1     130.142  60.874  42.706  0.00  0.00    +0.047 A 
ATOM     12  C   UNL     1     131.138  60.537  41.702  0.00  0.00    +0.035 A 
ATOM     32  C   UNL     1     132.098  59.530  42.014  0.00  0.00    +0.024 A 
ATOM     33  C   UNL     1     132.093  58.860  43.291  0.00  0.00    +0.007 A 
ATOM     34  C   UNL     1     131.114  59.191  44.286  0.00  0.00    -0.029 A 
ATOM     35  C   UNL     1     131.160  58.445  45.640  0.00  0.00    +0.045 C 
ENDROOT
BRANCH  10   9
ATOM      4  C   UNL     1     125.714  59.857  45.832  0.00  0.00    +0.077 A 
ATOM      5  C   UNL     1     125.321  58.878  44.860  0.00  0.00    +0.048 A 
ATOM      6  C   UNL     1     126.280  58.501  43.893  0.00  0.00    +0.116 A 
ATOM      7  N   UNL     1     127.536  59.068  43.907  0.00  0.00    -0.223 NA
ATOM      8  C   UNL     1     127.882  60.011  44.857  0.00  0.00    +0.220 A 
ATOM      9  N   UNL     1     129.142  60.588  44.894  0.00  0.00    -0.283 N 
ATOM     36  H   UNL     1     129.357  61.285  45.607  0.00  0.00    +0.155 HD
ATOM     37  N   UNL     1     126.984  60.388  45.790  0.00  0.00    -0.214 NA
BRANCH   4   3
ATOM      1  C   UNL     1     124.058  60.458  49.324  0.00  0.00    +0.020 A 
ATOM      2  C   UNL     1     124.954  59.947  48.312  0.00  0.00    +0.013 A 
ATOM      3  C   UNL     1     124.814  60.355  46.920  0.00  0.00    +0.019 A 
ATOM     38  C   UNL     1     123.751  61.289  46.582  0.00  0.00    +0.120 A 
ATOM     39  N   UNL     1     122.902  61.763  47.578  0.00  0.00    -0.263 NA
ATOM     40  C   UNL     1     123.026  61.376  48.921  0.00  0.00    +0.111 A 
ENDBRANCH   4   3
ENDBRANCH  10   9
BRANCH  12  13
ATOM     13  N   UNL     1     131.213  61.168  40.408  0.00  0.00    -0.281 N 
ATOM     14  C   UNL     1     132.162  62.069  39.953  0.00  0.00    +0.248 C 
ATOM     30  O   UNL     1     132.976  62.635  40.668  0.00  0.00    -0.270 OA
ATOM     31  H   UNL     1     130.477  60.921  39.746  0.00  0.00    +0.155 HD
BRANCH  14  15
ATOM     15  C   UNL     1     132.205  62.400  38.496  0.00  0.00    +0.037 A 
ATOM     16  C   UNL     1     131.185  63.254  37.881  0.00  0.00    +0.013 A 
ATOM     17  C   UNL     1     131.240  63.543  36.470  0.00  0.00    +0.005 A 
ATOM     18  C   UNL     1     132.320  62.979  35.664  0.00  0.00    -0.033 A 
ATOM     28  C   UNL     1     133.321  62.139  36.302  0.00  0.00    +0.005 A 
ATOM     29  C   UNL     1     133.270  61.853  37.684  0.00  0.00    +0.013 A 
BRANCH  18  19
ATOM     19  C   UNL     1     132.445  63.218  34.148  0.00  0.00    +0.119 C 
BRANCH  19  20
ATOM     20  N   UNL     1     131.182  63.227  33.351  0.00  0.00    -0.302 NA
ATOM     21  C   UNL     1     130.414  61.908  33.475  0.00  0.00    +0.066 C 
ATOM     22  C   UNL     1     129.085  61.944  32.654  0.00  0.00    -0.064 C 
ATOM     23  N   UNL     1     129.402  62.250  31.189  0.00  0.00    +0.379 N 
ATOM     24  C   UNL     1     128.160  62.227  30.403  0.00  0.00    -0.096 C 
ATOM     25  H   UNL     1     130.059  61.434  30.808  0.00  0.00    -0.082 HD
ATOM     26  C   UNL     1     130.168  63.559  31.056  0.00  0.00    -0.064 C 
ATOM     27  C   UNL     1     131.473  63.523  31.900  0.00  0.00    +0.066 C 
ENDBRANCH  19  20
ENDBRANCH  18  19
ENDBRANCH  14  15
ENDBRANCH  12  13
TORSDOF 6
ENDMDL
MODEL 5
REMARK VINA RESULT:      -8.0      4.190      6.038
REMARK  Name = C:\Users\Docking\Desktop\test protocol\1iep_ligandH.pdb
REMARK  8 active torsions:
REMARK  status: ('A' for Active; 'I' for Inactive)
REMARK    1  A    between atoms: _5  and  _11
REMARK    2  A    between atoms: _19  and  _21
REMARK    3  A    between atoms: _22  and  _66
REMARK    4  A    between atoms: _27  and  _30
REMARK    5  A    between atoms: _32  and  _33
REMARK    6  A    between atoms: _38  and  _43
REMARK    7  A    between atoms: _43  and  _46
REMARK    8  A    between atoms: _53  and  _55
REMARK                            x       y       z     vdW  Elec       q    Type
REMARK                         _______ _______ _______ _____ _____    ______ ____
ROOT
ATOM     10  C   UNL     1     132.866  62.199  41.231  0.00  0.00    +0.038 A 
ATOM     11  C   UNL     1     132.855  61.986  39.829  0.00  0.00    +0.047 A 
ATOM     12  C   UNL     1     133.175  63.060  38.902  0.00  0.00    +0.035 A 
ATOM     32  C   UNL     1     133.505  64.339  39.438  0.00  0.00    +0.024 A 
ATOM     33  C   UNL     1     133.519  64.574  40.861  0.00  0.00    +0.007 A 
ATOM     34  C   UNL     1     133.202  63.518  41.780  0.00  0.00    -0.029 A 
ATOM     35  C   UNL     1     133.227  63.828  43.294  0.00  0.00    +0.045 C 
ENDROOT
BRANCH  10   9
ATOM      4  C   UNL     1     129.705  59.355  43.457  0.00  0.00    +0.077 A 
ATOM      5  C   UNL     1     128.587  60.072  42.914  0.00  0.00    +0.048 A 
ATOM      6  C   UNL     1     128.869  61.171  42.072  0.00  0.00    +0.116 A 
ATOM      7  N   UNL     1     130.175  61.518  41.800  0.00  0.00    -0.223 NA
ATOM      8  C   UNL     1     131.229  60.806  42.341  0.00  0.00    +0.220 A 
ATOM      9  N   UNL     1     132.550  61.132  42.075  0.00  0.00    -0.283 N 
ATOM     36  H   UNL     1     133.300  60.586  42.499  0.00  0.00    +0.155 HD
ATOM     37  N   UNL     1     130.986  59.753  43.149  0.00  0.00    -0.214 NA
BRANCH   4   3
ATOM      1  C   UNL     1     130.527  56.262  45.707  0.00  0.00    +0.020 A 
ATOM      2  C   UNL     1     130.713  57.399  44.835  0.00  0.00    +0.013 A 
ATOM      3  C   UNL     1     129.569  58.169  44.360  0.00  0.00    +0.019 A 
ATOM     38  C   UNL     1     128.241  57.758  44.791  0.00  0.00    +0.120 A 
ATOM     39  N   UNL     1     128.093  56.658  45.630  0.00  0.00    -0.263 NA
ATOM     40  C   UNL     1     129.186  55.909  46.091  0.00  0.00    +0.111 A 
ENDBRANCH   4   3
ENDBRANCH  10   9
BRANCH  12  13
ATOM     13  N   UNL     1     133.173  62.905  37.468  0.00  0.00    -0.281 N 
ATOM     14  C   UNL     1     132.140  63.171  36.585  0.00  0.00    +0.248 C 
ATOM     30  O   UNL     1     130.983  63.381  36.917  0.00  0.00    -0.270 OA
ATOM     31  H   UNL     1     134.038  62.558  37.055  0.00  0.00    +0.155 HD
BRANCH  14  15
ATOM     15  C   UNL     1     132.431  63.192  35.119  0.00  0.00    +0.037 A 
ATOM     16  C   UNL     1     133.376  62.247  34.518  0.00  0.00    +0.013 A 
ATOM     17  C   UNL     1     133.651  62.300  33.104  0.00  0.00    +0.005 A 
ATOM     18  C   UNL     1     132.978  63.302  32.281  0.00  0.00    -0.033 A 
ATOM     28  C   UNL     1     132.042  64.223  32.902  0.00  0.00    +0.005 A 
ATOM     29  C   UNL     1     131.770  64.175  34.287  0.00  0.00    +0.013 A 
BRANCH  18  19
ATOM     19  C   UNL     1     133.228  63.445  30.767  0.00  0.00    +0.119 C 
BRANCH  19  20
ATOM     20  N   UNL     1     134.560  63.967  30.340  0.00  0.00    -0.302 NA
ATOM     21  C   UNL     1     134.443  64.958  29.178  0.00  0.00    +0.066 C 
ATOM     22  C   UNL     1     135.844  65.511  28.759  0.00  0.00    -0.064 C 
ATOM     23  N   UNL     1     136.759  64.344  28.385  0.00  0.00    +0.379 N 
ATOM     24  C   UNL     1     138.058  64.864  27.935  0.00  0.00    -0.096 C 
ATOM     25  H   UNL     1     136.292  63.810  27.525  0.00  0.00    -0.082 HD
ATOM     26  C   UNL     1     136.879  63.352  29.534  0.00  0.00    -0.064 C 
ATOM     27  C   UNL     1     135.479  62.831  29.962  0.00  0.00    +0.066 C 
ENDBRANCH  19  20
ENDBRANCH  18  19
ENDBRANCH  14  15
ENDBRANCH  12  13
TORSDOF 6
ENDMDL
