MODEL 1
REMARK VINA RESULT:     -10.5      0.000      0.000
REMARK  Name = C:\Users\Docking\Desktop\test protocol\1iep_ligandH.pdb
REMARK  8 active torsions:
REMARK  status: ('A' for Active; 'I' for Inactive)
REMARK    1  A    between atoms: _5  and  _11
REMARK    2  A    between atoms: _19  and  _21
REMARK    3  A    between atoms: _22  and  _66
REMARK    4  A    between atoms: _27  and  _30
REMARK    5  A    between atoms: _32  and  _33
REMARK    6  A    between atoms: _38  and  _43
REMARK    7  A    between atoms: _43  and  _46
REMARK    8  A    between atoms: _53  and  _55
REMARK                            x       y       z     vdW  Elec       q    Type
REMARK                         _______ _______ _______ _____ _____    ______ ____
ROOT
ATOM     10  C   UNL     1     -12.669  54.289  42.541  0.00  0.00    +0.038 A 
ATOM     11  C   UNL     1     -11.376  54.486  41.993  0.00  0.00    +0.047 A 
ATOM     12  C   UNL     1     -10.770  55.808  41.951  0.00  0.00    +0.035 A 
ATOM     32  C   UNL     1     -11.508  56.907  42.480  0.00  0.00    +0.024 A 
ATOM     33  C   UNL     1     -12.824  56.725  43.040  0.00  0.00    +0.007 A 
ATOM     34  C   UNL     1     -13.428  55.424  43.081  0.00  0.00    -0.029 A 
ATOM     35  C   UNL     1     -14.844  55.289  43.687  0.00  0.00    +0.045 C 
ENDROOT
BRANCH  10   9
ATOM      4  C   UNL     1     -13.110  49.870  40.721  0.00  0.00    +0.077 A 
ATOM      5  C   UNL     1     -12.222  50.165  39.634  0.00  0.00    +0.048 A 
ATOM      6  C   UNL     1     -11.678  51.468  39.575  0.00  0.00    +0.116 A 
ATOM      7  N   UNL     1     -12.006  52.399  40.538  0.00  0.00    -0.223 NA
ATOM      8  C   UNL     1     -12.867  52.082  41.572  0.00  0.00    +0.220 A 
ATOM      9  N   UNL     1     -13.204  52.999  42.556  0.00  0.00    -0.283 N 
ATOM     36  H   UNL     1     -13.848  52.729  43.298  0.00  0.00    +0.155 HD
ATOM     37  N   UNL     1     -13.400  50.845  41.650  0.00  0.00    -0.214 NA
BRANCH   4   3
ATOM      1  C   UNL     1     -14.126  46.114  40.322  0.00  0.00    +0.020 A 
ATOM      2  C   UNL     1     -13.469  47.379  40.086  0.00  0.00    +0.013 A 
ATOM      3  C   UNL     1     -13.762  48.537  40.921  0.00  0.00    +0.019 A 
ATOM     38  C   UNL     1     -14.731  48.381  41.995  0.00  0.00    +0.120 A 
ATOM     39  N   UNL     1     -15.349  47.151  42.198  0.00  0.00    -0.263 NA
ATOM     40  C   UNL     1     -15.077  46.030  41.400  0.00  0.00    +0.111 A 
ENDBRANCH   4   3
ENDBRANCH  10   9
BRANCH  12  13
ATOM     13  N   UNL     1      -9.463  56.070  41.400  0.00  0.00    -0.281 N 
ATOM     14  C   UNL     1      -9.153  56.552  40.139  0.00  0.00    +0.248 C 
ATOM     30  O   UNL     1      -9.947  56.630  39.214  0.00  0.00    -0.270 OA
ATOM     31  H   UNL     1      -8.672  55.876  42.013  0.00  0.00    +0.155 HD
BRANCH  14  15
ATOM     15  C   UNL     1      -7.754  56.999  39.861  0.00  0.00    +0.037 A 
ATOM     16  C   UNL     1      -7.211  56.998  38.500  0.00  0.00    +0.013 A 
ATOM     17  C   UNL     1      -5.853  57.418  38.263  0.00  0.00    +0.005 A 
ATOM     18  C   UNL     1      -5.027  57.844  39.390  0.00  0.00    -0.033 A 
ATOM     28  C   UNL     1      -5.592  57.839  40.729  0.00  0.00    +0.005 A 
ATOM     29  C   UNL     1      -6.923  57.428  40.966  0.00  0.00    +0.013 A 
BRANCH  18  19
ATOM     19  C   UNL     1      -3.561  58.287  39.232  0.00  0.00    +0.119 C 
BRANCH  19  20
ATOM     20  N   UNL     1      -2.951  58.163  37.875  0.00  0.00    -0.302 NA
ATOM     21  C   UNL     1      -1.430  58.330  37.911  0.00  0.00    +0.066 C 
ATOM     22  C   UNL     1      -0.806  58.175  36.485  0.00  0.00    -0.064 C 
ATOM     23  N   UNL     1      -1.441  59.197  35.540  0.00  0.00    +0.379 N 
ATOM     24  C   UNL     1      -0.815  59.093  34.214  0.00  0.00    -0.096 C 
ATOM     25  H   UNL     1      -1.217  60.213  35.941  0.00  0.00    -0.082 HD
ATOM     26  C   UNL     1      -2.954  59.040  35.500  0.00  0.00    -0.064 C 
ATOM     27  C   UNL     1      -3.561  59.166  36.926  0.00  0.00    +0.066 C 
ENDBRANCH  19  20
ENDBRANCH  18  19
ENDBRANCH  14  15
ENDBRANCH  12  13
TORSDOF 6
ENDMDL
MODEL 2
REMARK VINA RESULT:     -10.3      1.482      2.312
REMARK  Name = C:\Users\Docking\Desktop\test protocol\1iep_ligandH.pdb
REMARK  8 active torsions:
REMARK  status: ('A' for Active; 'I' for Inactive)
REMARK    1  A    between atoms: _5  and  _11
REMARK    2  A    between atoms: _19  and  _21
REMARK    3  A    between atoms: _22  and  _66
REMARK    4  A    between atoms: _27  and  _30
REMARK    5  A    between atoms: _32  and  _33
REMARK    6  A    between atoms: _38  and  _43
REMARK    7  A    between atoms: _43  and  _46
REMARK    8  A    between atoms: _53  and  _55
REMARK                            x       y       z     vdW  Elec       q    Type
REMARK                         _______ _______ _______ _____ _____    ______ ____
ROOT
ATOM     10  C   UNL     1     -12.865  53.573  42.606  0.00  0.00    +0.038 A 
ATOM     11  C   UNL     1     -11.637  53.876  41.963  0.00  0.00    +0.047 A 
ATOM     12  C   UNL     1     -11.096  55.226  41.972  0.00  0.00    +0.035 A 
ATOM     32  C   UNL     1     -11.829  56.243  42.649  0.00  0.00    +0.024 A 
ATOM     33  C   UNL     1     -13.078  55.954  43.307  0.00  0.00    +0.007 A 
ATOM     34  C   UNL     1     -13.619  54.625  43.299  0.00  0.00    -0.029 A 
ATOM     35  C   UNL     1     -14.966  54.373  44.016  0.00  0.00    +0.045 C 
ENDROOT
BRANCH  10   9
ATOM      4  C   UNL     1     -13.243  49.273  40.509  0.00  0.00    +0.077 A 
ATOM      5  C   UNL     1     -12.452  49.685  39.385  0.00  0.00    +0.048 A 
ATOM      6  C   UNL     1     -11.973  51.014  39.382  0.00  0.00    +0.116 A 
ATOM      7  N   UNL     1     -12.269  51.859  40.430  0.00  0.00    -0.223 NA
ATOM      8  C   UNL     1     -13.036  51.430  41.498  0.00  0.00    +0.220 A 
ATOM      9  N   UNL     1     -13.338  52.260  42.566  0.00  0.00    -0.283 N 
ATOM     36  H   UNL     1     -13.913  51.908  43.331  0.00  0.00    +0.155 HD
ATOM     37  N   UNL     1     -13.506  50.166  41.524  0.00  0.00    -0.214 NA
BRANCH   4   3
ATOM      1  C   UNL     1     -15.180  46.167  41.887  0.00  0.00    +0.020 A 
ATOM      2  C   UNL     1     -14.649  47.507  41.790  0.00  0.00    +0.013 A 
ATOM      3  C   UNL     1     -13.818  47.899  40.659  0.00  0.00    +0.019 A 
ATOM     38  C   UNL     1     -13.543  46.903  39.634  0.00  0.00    +0.120 A 
ATOM     39  N   UNL     1     -14.067  45.620  39.755  0.00  0.00    -0.263 NA
ATOM     40  C   UNL     1     -14.866  45.231  40.840  0.00  0.00    +0.111 A 
ENDBRANCH   4   3
ENDBRANCH  10   9
BRANCH  12  13
ATOM     13  N   UNL     1      -9.859  55.594  41.329  0.00  0.00    -0.281 N 
ATOM     14  C   UNL     1      -9.686  56.166  40.079  0.00  0.00    +0.248 C 
ATOM     30  O   UNL     1     -10.562  56.251  39.231  0.00  0.00    -0.270 OA
ATOM     31  H   UNL     1      -9.007  55.411  41.860  0.00  0.00    +0.155 HD
BRANCH  14  15
ATOM     15  C   UNL     1      -8.342  56.708  39.712  0.00  0.00    +0.037 A 
ATOM     16  C   UNL     1      -7.540  57.466  40.676  0.00  0.00    +0.013 A 
ATOM     17  C   UNL     1      -6.254  57.992  40.291  0.00  0.00    +0.005 A 
ATOM     18  C   UNL     1      -5.762  57.760  38.935  0.00  0.00    -0.033 A 
ATOM     28  C   UNL     1      -6.576  57.000  38.001  0.00  0.00    +0.005 A 
ATOM     29  C   UNL     1      -7.837  56.484  38.375  0.00  0.00    +0.013 A 
BRANCH  18  19
ATOM     19  C   UNL     1      -4.411  58.302  38.431  0.00  0.00    +0.119 C 
BRANCH  19  20
ATOM     20  N   UNL     1      -3.174  57.681  38.991  0.00  0.00    -0.302 NA
ATOM     21  C   UNL     1      -2.979  58.021  40.471  0.00  0.00    +0.066 C 
ATOM     22  C   UNL     1      -1.692  57.345  41.046  0.00  0.00    -0.064 C 
ATOM     23  N   UNL     1      -0.478  57.785  40.225  0.00  0.00    +0.379 N 
ATOM     24  C   UNL     1       0.741  57.197  40.798  0.00  0.00    -0.096 C 
ATOM     25  H   UNL     1      -0.394  58.893  40.314  0.00  0.00    -0.082 HD
ATOM     26  C   UNL     1      -0.665  57.454  38.751  0.00  0.00    -0.064 C 
ATOM     27  C   UNL     1      -1.962  58.106  38.198  0.00  0.00    +0.066 C 
ENDBRANCH  19  20
ENDBRANCH  18  19
ENDBRANCH  14  15
ENDBRANCH  12  13
TORSDOF 6
ENDMDL
MODEL 3
REMARK VINA RESULT:      -9.6      9.307     14.946
REMARK  Name = C:\Users\Docking\Desktop\test protocol\1iep_ligandH.pdb
REMARK  8 active torsions:
REMARK  status: ('A' for Active; 'I' for Inactive)
REMARK    1  A    between atoms: _5  and  _11
REMARK    2  A    between atoms: _19  and  _21
REMARK    3  A    between atoms: _22  and  _66
REMARK    4  A    between atoms: _27  and  _30
REMARK    5  A    between atoms: _32  and  _33
REMARK    6  A    between atoms: _38  and  _43
REMARK    7  A    between atoms: _43  and  _46
REMARK    8  A    between atoms: _53  and  _55
REMARK                            x       y       z     vdW  Elec       q    Type
REMARK                         _______ _______ _______ _____ _____    ______ ____
ROOT
ATOM     10  C   UNL     1       2.170  57.692  43.588  0.00  0.00    +0.038 A 
ATOM     11  C   UNL     1       3.271  58.514  43.239  0.00  0.00    +0.047 A 
ATOM     12  C   UNL     1       4.586  58.299  43.824  0.00  0.00    +0.035 A 
ATOM     32  C   UNL     1       4.744  57.235  44.759  0.00  0.00    +0.024 A 
ATOM     33  C   UNL     1       3.634  56.390  45.126  0.00  0.00    +0.007 A 
ATOM     34  C   UNL     1       2.335  56.599  44.554  0.00  0.00    -0.029 A 
ATOM     35  C   UNL     1       1.180  55.667  44.990  0.00  0.00    +0.045 C 
ENDROOT
BRANCH  10   9
ATOM      4  C   UNL     1      -1.307  56.657  40.445  0.00  0.00    +0.077 A 
ATOM      5  C   UNL     1      -0.581  55.537  39.920  0.00  0.00    +0.048 A 
ATOM      6  C   UNL     1       0.687  55.266  40.481  0.00  0.00    +0.116 A 
ATOM      7  N   UNL     1       1.182  56.061  41.492  0.00  0.00    -0.223 NA
ATOM      8  C   UNL     1       0.456  57.134  41.975  0.00  0.00    +0.220 A 
ATOM      9  N   UNL     1       0.930  57.943  42.996  0.00  0.00    -0.283 N 
ATOM     36  H   UNL     1       0.367  58.729  43.319  0.00  0.00    +0.155 HD
ATOM     37  N   UNL     1      -0.757  57.416  41.455  0.00  0.00    -0.214 NA
BRANCH   4   3
ATOM      1  C   UNL     1      -5.073  57.710  40.333  0.00  0.00    +0.020 A 
ATOM      2  C   UNL     1      -3.786  57.313  40.854  0.00  0.00    +0.013 A 
ATOM      3  C   UNL     1      -2.662  57.069  39.959  0.00  0.00    +0.019 A 
ATOM     38  C   UNL     1      -2.876  57.239  38.529  0.00  0.00    +0.120 A 
ATOM     39  N   UNL     1      -4.127  57.621  38.056  0.00  0.00    -0.263 NA
ATOM     40  C   UNL     1      -5.216  57.856  38.908  0.00  0.00    +0.111 A 
ENDBRANCH   4   3
ENDBRANCH  10   9
BRANCH  12  13
ATOM     13  N   UNL     1       5.739  59.107  43.514  0.00  0.00    -0.281 N 
ATOM     14  C   UNL     1       7.066  58.712  43.461  0.00  0.00    +0.248 C 
ATOM     30  O   UNL     1       7.487  57.646  43.885  0.00  0.00    -0.270 OA
ATOM     31  H   UNL     1       5.555  60.089  43.308  0.00  0.00    +0.155 HD
BRANCH  14  15
ATOM     15  C   UNL     1       8.073  59.642  42.866  0.00  0.00    +0.037 A 
ATOM     16  C   UNL     1       9.505  59.331  42.895  0.00  0.00    +0.013 A 
ATOM     17  C   UNL     1      10.457  60.254  42.328  0.00  0.00    +0.005 A 
ATOM     18  C   UNL     1       9.979  61.496  41.726  0.00  0.00    -0.033 A 
ATOM     28  C   UNL     1       8.553  61.777  41.707  0.00  0.00    +0.005 A 
ATOM     29  C   UNL     1       7.617  60.876  42.262  0.00  0.00    +0.013 A 
BRANCH  18  19
ATOM     19  C   UNL     1      10.924  62.549  41.117  0.00  0.00    +0.119 C 
BRANCH  19  20
ATOM     20  N   UNL     1      10.958  62.657  39.628  0.00  0.00    -0.302 NA
ATOM     21  C   UNL     1      10.206  63.893  39.125  0.00  0.00    +0.066 C 
ATOM     22  C   UNL     1      10.271  64.003  37.567  0.00  0.00    -0.064 C 
ATOM     23  N   UNL     1       9.696  62.730  36.944  0.00  0.00    +0.379 N 
ATOM     24  C   UNL     1       9.702  62.854  35.479  0.00  0.00    -0.096 C 
ATOM     25  H   UNL     1       8.635  62.642  37.272  0.00  0.00    -0.082 HD
ATOM     26  C   UNL     1      10.436  61.496  37.441  0.00  0.00    -0.064 C 
ATOM     27  C   UNL     1      10.391  61.411  38.992  0.00  0.00    +0.066 C 
ENDBRANCH  19  20
ENDBRANCH  18  19
ENDBRANCH  14  15
ENDBRANCH  12  13
TORSDOF 6
ENDMDL
MODEL 4
REMARK VINA RESULT:      -9.5     10.004     14.752
REMARK  Name = C:\Users\Docking\Desktop\test protocol\1iep_ligandH.pdb
REMARK  8 active torsions:
REMARK  status: ('A' for Active; 'I' for Inactive)
REMARK    1  A    between atoms: _5  and  _11
REMARK    2  A    between atoms: _19  and  _21
REMARK    3  A    between atoms: _22  and  _66
REMARK    4  A    between atoms: _27  and  _30
REMARK    5  A    between atoms: _32  and  _33
REMARK    6  A    between atoms: _38  and  _43
REMARK    7  A    between atoms: _43  and  _46
REMARK    8  A    between atoms: _53  and  _55
REMARK                            x       y       z     vdW  Elec       q    Type
REMARK                         _______ _______ _______ _____ _____    ______ ____
ROOT
ATOM     10  C   UNL     1       3.603  57.699  46.473  0.00  0.00    +0.038 A 
ATOM     11  C   UNL     1       2.720  57.386  45.409  0.00  0.00    +0.047 A 
ATOM     12  C   UNL     1       2.887  57.981  44.092  0.00  0.00    +0.035 A 
ATOM     32  C   UNL     1       3.967  58.889  43.894  0.00  0.00    +0.024 A 
ATOM     33  C   UNL     1       4.874  59.220  44.965  0.00  0.00    +0.007 A 
ATOM     34  C   UNL     1       4.712  58.638  46.266  0.00  0.00    -0.029 A 
ATOM     35  C   UNL     1       5.710  59.034  47.379  0.00  0.00    +0.045 C 
ENDROOT
BRANCH  10   9
ATOM      4  C   UNL     1       4.083  54.036  49.537  0.00  0.00    +0.077 A 
ATOM      5  C   UNL     1       4.782  53.241  48.570  0.00  0.00    +0.048 A 
ATOM      6  C   UNL     1       4.992  53.809  47.293  0.00  0.00    +0.116 A 
ATOM      7  N   UNL     1       4.532  55.078  47.016  0.00  0.00    -0.223 NA
ATOM      8  C   UNL     1       3.860  55.817  47.971  0.00  0.00    +0.220 A 
ATOM      9  N   UNL     1       3.396  57.099  47.717  0.00  0.00    -0.283 N 
ATOM     36  H   UNL     1       2.897  57.608  48.446  0.00  0.00    +0.155 HD
ATOM     37  N   UNL     1       3.645  55.297  49.198  0.00  0.00    -0.214 NA
BRANCH   4   3
ATOM      1  C   UNL     1       2.260  52.604  52.688  0.00  0.00    +0.020 A 
ATOM      2  C   UNL     1       2.494  53.034  51.329  0.00  0.00    +0.013 A 
ATOM      3  C   UNL     1       3.787  53.576  50.931  0.00  0.00    +0.019 A 
ATOM     38  C   UNL     1       4.831  53.671  51.941  0.00  0.00    +0.120 A 
ATOM     39  N   UNL     1       4.576  53.250  53.242  0.00  0.00    -0.263 NA
ATOM     40  C   UNL     1       3.335  52.727  53.637  0.00  0.00    +0.111 A 
ENDBRANCH   4   3
ENDBRANCH  10   9
BRANCH  12  13
ATOM     13  N   UNL     1       2.017  57.707  42.975  0.00  0.00    -0.281 N 
ATOM     14  C   UNL     1       1.043  56.726  42.875  0.00  0.00    +0.248 C 
ATOM     30  O   UNL     1       0.919  55.794  43.655  0.00  0.00    -0.270 OA
ATOM     31  H   UNL     1       2.133  58.309  42.160  0.00  0.00    +0.155 HD
BRANCH  14  15
ATOM     15  C   UNL     1       0.078  56.781  41.735  0.00  0.00    +0.037 A 
ATOM     16  C   UNL     1       0.180  55.852  40.607  0.00  0.00    +0.013 A 
ATOM     17  C   UNL     1      -0.754  55.938  39.513  0.00  0.00    +0.005 A 
ATOM     18  C   UNL     1      -1.800  56.958  39.542  0.00  0.00    -0.033 A 
ATOM     28  C   UNL     1      -1.881  57.864  40.675  0.00  0.00    +0.005 A 
ATOM     29  C   UNL     1      -0.967  57.783  41.750  0.00  0.00    +0.013 A 
BRANCH  18  19
ATOM     19  C   UNL     1      -2.826  57.136  38.407  0.00  0.00    +0.119 C 
BRANCH  19  20
ATOM     20  N   UNL     1      -2.303  57.548  37.070  0.00  0.00    -0.302 NA
ATOM     21  C   UNL     1      -0.946  58.250  37.176  0.00  0.00    +0.066 C 
ATOM     22  C   UNL     1      -0.403  58.654  35.767  0.00  0.00    -0.064 C 
ATOM     23  N   UNL     1      -1.426  59.552  35.067  0.00  0.00    +0.379 N 
ATOM     24  C   UNL     1      -0.893  59.981  33.766  0.00  0.00    -0.096 C 
ATOM     25  H   UNL     1      -1.560  60.464  35.695  0.00  0.00    -0.082 HD
ATOM     26  C   UNL     1      -2.778  58.862  34.961  0.00  0.00    -0.064 C 
ATOM     27  C   UNL     1      -3.295  58.438  36.364  0.00  0.00    +0.066 C 
ENDBRANCH  19  20
ENDBRANCH  18  19
ENDBRANCH  14  15
ENDBRANCH  12  13
TORSDOF 6
ENDMDL
MODEL 5
REMARK VINA RESULT:      -9.4     15.908     22.491
REMARK  Name = C:\Users\Docking\Desktop\test protocol\1iep_ligandH.pdb
REMARK  8 active torsions:
REMARK  status: ('A' for Active; 'I' for Inactive)
REMARK    1  A    between atoms: _5  and  _11
REMARK    2  A    between atoms: _19  and  _21
REMARK    3  A    between atoms: _22  and  _66
REMARK    4  A    between atoms: _27  and  _30
REMARK    5  A    between atoms: _32  and  _33
REMARK    6  A    between atoms: _38  and  _43
REMARK    7  A    between atoms: _43  and  _46
REMARK    8  A    between atoms: _53  and  _55
REMARK                            x       y       z     vdW  Elec       q    Type
REMARK                         _______ _______ _______ _____ _____    ______ ____
ROOT
ATOM     10  C   UNL     1       7.251  61.481  32.792  0.00  0.00    +0.038 A 
ATOM     11  C   UNL     1       7.651  61.145  34.111  0.00  0.00    +0.047 A 
ATOM     12  C   UNL     1       6.679  61.035  35.187  0.00  0.00    +0.035 A 
ATOM     32  C   UNL     1       5.307  61.271  34.884  0.00  0.00    +0.024 A 
ATOM     33  C   UNL     1       4.882  61.614  33.550  0.00  0.00    +0.007 A 
ATOM     34  C   UNL     1       5.837  61.726  32.485  0.00  0.00    -0.029 A 
ATOM     35  C   UNL     1       5.327  62.103  31.074  0.00  0.00    +0.045 C 
ENDROOT
BRANCH  10   9
ATOM      4  C   UNL     1      10.403  63.979  30.172  0.00  0.00    +0.077 A 
ATOM      5  C   UNL     1      10.057  65.210  30.822  0.00  0.00    +0.048 A 
ATOM      6  C   UNL     1       9.058  65.158  31.820  0.00  0.00    +0.116 A 
ATOM      7  N   UNL     1       8.457  63.959  32.137  0.00  0.00    -0.223 NA
ATOM      8  C   UNL     1       8.813  62.791  31.489  0.00  0.00    +0.220 A 
ATOM      9  N   UNL     1       8.227  61.572  31.797  0.00  0.00    -0.283 N 
ATOM     36  H   UNL     1       8.512  60.734  31.292  0.00  0.00    +0.155 HD
ATOM     37  N   UNL     1       9.763  62.813  30.531  0.00  0.00    -0.214 NA
BRANCH   4   3
ATOM      1  C   UNL     1      12.222  64.099  26.711  0.00  0.00    +0.020 A 
ATOM      2  C   UNL     1      11.184  64.222  27.708  0.00  0.00    +0.013 A 
ATOM      3  C   UNL     1      11.441  63.870  29.099  0.00  0.00    +0.019 A 
ATOM     38  C   UNL     1      12.771  63.394  29.451  0.00  0.00    +0.120 A 
ATOM     39  N   UNL     1      13.750  63.285  28.469  0.00  0.00    -0.263 NA
ATOM     40  C   UNL     1      13.514  63.619  27.127  0.00  0.00    +0.111 A 
ENDBRANCH   4   3
ENDBRANCH  10   9
BRANCH  12  13
ATOM     13  N   UNL     1       7.027  60.706  36.547  0.00  0.00    -0.281 N 
ATOM     14  C   UNL     1       7.362  61.573  37.575  0.00  0.00    +0.248 C 
ATOM     30  O   UNL     1       7.621  62.757  37.422  0.00  0.00    -0.270 OA
ATOM     31  H   UNL     1       7.027  59.713  36.781  0.00  0.00    +0.155 HD
BRANCH  14  15
ATOM     15  C   UNL     1       7.432  61.044  38.971  0.00  0.00    +0.037 A 
ATOM     16  C   UNL     1       8.154  59.808  39.280  0.00  0.00    +0.013 A 
ATOM     17  C   UNL     1       8.192  59.311  40.633  0.00  0.00    +0.005 A 
ATOM     18  C   UNL     1       7.506  60.054  41.688  0.00  0.00    -0.033 A 
ATOM     28  C   UNL     1       6.802  61.280  41.354  0.00  0.00    +0.005 A 
ATOM     29  C   UNL     1       6.762  61.770  40.029  0.00  0.00    +0.013 A 
BRANCH  18  19
ATOM     19  C   UNL     1       7.477  59.587  43.155  0.00  0.00    +0.119 C 
BRANCH  19  20
ATOM     20  N   UNL     1       6.225  59.842  43.929  0.00  0.00    -0.302 NA
ATOM     21  C   UNL     1       6.473  59.840  45.440  0.00  0.00    +0.066 C 
ATOM     22  C   UNL     1       5.157  60.132  46.233  0.00  0.00    -0.064 C 
ATOM     23  N   UNL     1       4.098  59.094  45.857  0.00  0.00    +0.379 N 
ATOM     24  C   UNL     1       2.879  59.330  46.644  0.00  0.00    -0.096 C 
ATOM     25  H   UNL     1       4.494  58.090  46.138  0.00  0.00    -0.082 HD
ATOM     26  C   UNL     1       3.847  59.087  44.355  0.00  0.00    -0.064 C 
ATOM     27  C   UNL     1       5.166  58.826  43.576  0.00  0.00    +0.066 C 
ENDBRANCH  19  20
ENDBRANCH  18  19
ENDBRANCH  14  15
ENDBRANCH  12  13
TORSDOF 6
ENDMDL
