MODEL 1
REMARK VINA RESULT:     -10.7      0.000      0.000
REMARK  Name = C:\Users\Docking\Desktop\test protocol\1iep_ligandH.pdb
REMARK  8 active torsions:
REMARK  status: ('A' for Active; 'I' for Inactive)
REMARK    1  A    between atoms: _5  and  _11
REMARK    2  A    between atoms: _19  and  _21
REMARK    3  A    between atoms: _22  and  _66
REMARK    4  A    between atoms: _27  and  _30
REMARK    5  A    between atoms: _32  and  _33
REMARK    6  A    between atoms: _38  and  _43
REMARK    7  A    between atoms: _43  and  _46
REMARK    8  A    between atoms: _53  and  _55
REMARK                            x       y       z     vdW  Elec       q    Type
REMARK                         _______ _______ _______ _____ _____    ______ ____
ROOT
ATOM     10  C   UNL     1     -40.016  19.745  -4.591  0.00  0.00    +0.038 A 
ATOM     11  C   UNL     1     -39.200  20.903  -4.535  0.00  0.00    +0.047 A 
ATOM     12  C   UNL     1     -38.107  21.100  -5.475  0.00  0.00    +0.035 A 
ATOM     32  C   UNL     1     -37.875  20.097  -6.461  0.00  0.00    +0.024 A 
ATOM     33  C   UNL     1     -38.695  18.913  -6.531  0.00  0.00    +0.007 A 
ATOM     34  C   UNL     1     -39.773  18.712  -5.606  0.00  0.00    -0.029 A 
ATOM     35  C   UNL     1     -40.615  17.421  -5.724  0.00  0.00    +0.045 C 
ENDROOT
BRANCH  10   9
ATOM      4  C   UNL     1     -44.506  20.571  -3.109  0.00  0.00    +0.077 A 
ATOM      5  C   UNL     1     -44.805  21.366  -4.265  0.00  0.00    +0.048 A 
ATOM      6  C   UNL     1     -43.773  21.543  -5.214  0.00  0.00    +0.116 A 
ATOM      7  N   UNL     1     -42.539  20.965  -5.012  0.00  0.00    -0.223 NA
ATOM      8  C   UNL     1     -42.284  20.206  -3.885  0.00  0.00    +0.220 A 
ATOM      9  N   UNL     1     -41.052  19.608  -3.665  0.00  0.00    -0.283 N 
ATOM     36  H   UNL     1     -40.901  19.062  -2.817  0.00  0.00    +0.155 HD
ATOM     37  N   UNL     1     -43.252  20.022  -2.963  0.00  0.00    -0.214 NA
BRANCH   4   3
ATOM      1  C   UNL     1     -46.091  19.570   0.325  0.00  0.00    +0.020 A 
ATOM      2  C   UNL     1     -45.098  19.827  -0.693  0.00  0.00    +0.013 A 
ATOM      3  C   UNL     1     -45.492  20.290  -2.018  0.00  0.00    +0.019 A 
ATOM     38  C   UNL     1     -46.910  20.484  -2.282  0.00  0.00    +0.120 A 
ATOM     39  N   UNL     1     -47.843  20.227  -1.283  0.00  0.00    -0.263 NA
ATOM     40  C   UNL     1     -47.476  19.780  -0.005  0.00  0.00    +0.111 A 
ENDBRANCH   4   3
ENDBRANCH  10   9
BRANCH  12  13
ATOM     13  N   UNL     1     -37.240  22.252  -5.461  0.00  0.00    -0.281 N 
ATOM     14  C   UNL     1     -35.955  22.356  -5.969  0.00  0.00    +0.248 C 
ATOM     30  O   UNL     1     -35.273  21.407  -6.324  0.00  0.00    -0.270 OA
ATOM     31  H   UNL     1     -37.619  23.092  -5.024  0.00  0.00    +0.155 HD
BRANCH  14  15
ATOM     15  C   UNL     1     -35.333  23.710  -6.086  0.00  0.00    +0.037 A 
ATOM     16  C   UNL     1     -35.601  24.758  -5.097  0.00  0.00    +0.013 A 
ATOM     17  C   UNL     1     -35.002  26.061  -5.242  0.00  0.00    +0.005 A 
ATOM     18  C   UNL     1     -34.126  26.323  -6.382  0.00  0.00    -0.033 A 
ATOM     28  C   UNL     1     -33.872  25.264  -7.345  0.00  0.00    +0.005 A 
ATOM     29  C   UNL     1     -34.459  23.986  -7.206  0.00  0.00    +0.013 A 
BRANCH  18  19
ATOM     19  C   UNL     1     -33.460  27.689  -6.628  0.00  0.00    +0.119 C 
BRANCH  19  20
ATOM     20  N   UNL     1     -32.530  27.797  -7.792  0.00  0.00    -0.302 NA
ATOM     21  C   UNL     1     -31.290  26.916  -7.619  0.00  0.00    +0.066 C 
ATOM     22  C   UNL     1     -30.339  27.024  -8.856  0.00  0.00    -0.064 C 
ATOM     23  N   UNL     1     -29.940  28.486  -9.063  0.00  0.00    +0.379 N 
ATOM     24  C   UNL     1     -29.000  28.584 -10.189  0.00  0.00    -0.096 C 
ATOM     25  H   UNL     1     -29.405  28.824  -8.145  0.00  0.00    -0.082 HD
ATOM     26  C   UNL     1     -31.168  29.370  -9.232  0.00  0.00    -0.064 C 
ATOM     27  C   UNL     1     -32.120  29.233  -8.012  0.00  0.00    +0.066 C 
ENDBRANCH  19  20
ENDBRANCH  18  19
ENDBRANCH  14  15
ENDBRANCH  12  13
TORSDOF 6
ENDMDL
MODEL 2
REMARK VINA RESULT:      -9.1      5.270      9.591
REMARK  Name = C:\Users\Docking\Desktop\test protocol\1iep_ligandH.pdb
REMARK  8 active torsions:
REMARK  status: ('A' for Active; 'I' for Inactive)
REMARK    1  A    between atoms: _5  and  _11
REMARK    2  A    between atoms: _19  and  _21
REMARK    3  A    between atoms: _22  and  _66
REMARK    4  A    between atoms: _27  and  _30
REMARK    5  A    between atoms: _32  and  _33
REMARK    6  A    between atoms: _38  and  _43
REMARK    7  A    between atoms: _43  and  _46
REMARK    8  A    between atoms: _53  and  _55
REMARK                            x       y       z     vdW  Elec       q    Type
REMARK                         _______ _______ _______ _____ _____    ______ ____
ROOT
ATOM     10  C   UNL     1     -46.427  22.208   0.494  0.00  0.00    +0.038 A 
ATOM     11  C   UNL     1     -45.475  21.732  -0.443  0.00  0.00    +0.047 A 
ATOM     12  C   UNL     1     -45.738  20.550  -1.249  0.00  0.00    +0.035 A 
ATOM     32  C   UNL     1     -46.983  19.878  -1.076  0.00  0.00    +0.024 A 
ATOM     33  C   UNL     1     -47.962  20.347  -0.127  0.00  0.00    +0.007 A 
ATOM     34  C   UNL     1     -47.707  21.511   0.672  0.00  0.00    -0.029 A 
ATOM     35  C   UNL     1     -48.790  21.965   1.679  0.00  0.00    +0.045 C 
ENDROOT
BRANCH  10   9
ATOM      4  C   UNL     1     -46.133  26.970   1.021  0.00  0.00    +0.077 A 
ATOM      5  C   UNL     1     -46.600  27.206  -0.315  0.00  0.00    +0.048 A 
ATOM      6  C   UNL     1     -46.898  26.075  -1.108  0.00  0.00    +0.116 A 
ATOM      7  N   UNL     1     -46.738  24.807  -0.592  0.00  0.00    -0.223 NA
ATOM      8  C   UNL     1     -46.284  24.614   0.700  0.00  0.00    +0.220 A 
ATOM      9  N   UNL     1     -46.123  23.348   1.241  0.00  0.00    -0.283 N 
ATOM     36  H   UNL     1     -45.778  23.248   2.196  0.00  0.00    +0.155 HD
ATOM     37  N   UNL     1     -45.990  25.678   1.476  0.00  0.00    -0.214 NA
BRANCH   4   3
ATOM      1  C   UNL     1     -45.250  30.465   2.538  0.00  0.00    +0.020 A 
ATOM      2  C   UNL     1     -45.590  29.448   1.570  0.00  0.00    +0.013 A 
ATOM      3  C   UNL     1     -45.779  28.062   1.981  0.00  0.00    +0.019 A 
ATOM     38  C   UNL     1     -45.616  27.737   3.390  0.00  0.00    +0.120 A 
ATOM     39  N   UNL     1     -45.287  28.738   4.299  0.00  0.00    -0.263 NA
ATOM     40  C   UNL     1     -45.101  30.074   3.915  0.00  0.00    +0.111 A 
ENDBRANCH   4   3
ENDBRANCH  10   9
BRANCH  12  13
ATOM     13  N   UNL     1     -44.806  20.016  -2.211  0.00  0.00    -0.281 N 
ATOM     14  C   UNL     1     -44.296  20.638  -3.339  0.00  0.00    +0.248 C 
ATOM     30  O   UNL     1     -44.731  21.678  -3.811  0.00  0.00    -0.270 OA
ATOM     31  H   UNL     1     -44.483  19.064  -2.039  0.00  0.00    +0.155 HD
BRANCH  14  15
ATOM     15  C   UNL     1     -43.146  20.005  -4.054  0.00  0.00    +0.037 A 
ATOM     16  C   UNL     1     -42.189  19.150  -3.347  0.00  0.00    +0.013 A 
ATOM     17  C   UNL     1     -41.079  18.567  -4.058  0.00  0.00    +0.005 A 
ATOM     18  C   UNL     1     -40.921  18.836  -5.485  0.00  0.00    -0.033 A 
ATOM     28  C   UNL     1     -41.888  19.683  -6.162  0.00  0.00    +0.005 A 
ATOM     29  C   UNL     1     -42.977  20.258  -5.469  0.00  0.00    +0.013 A 
BRANCH  18  19
ATOM     19  C   UNL     1     -39.754  18.272  -6.318  0.00  0.00    +0.119 C 
BRANCH  19  20
ATOM     20  N   UNL     1     -38.704  19.236  -6.764  0.00  0.00    -0.302 NA
ATOM     21  C   UNL     1     -37.817  18.649  -7.865  0.00  0.00    +0.066 C 
ATOM     22  C   UNL     1     -36.738  19.679  -8.336  0.00  0.00    -0.064 C 
ATOM     23  N   UNL     1     -35.896  20.114  -7.136  0.00  0.00    +0.379 N 
ATOM     24  C   UNL     1     -34.844  21.038  -7.585  0.00  0.00    -0.096 C 
ATOM     25  H   UNL     1     -35.396  19.206  -6.726  0.00  0.00    -0.082 HD
ATOM     26  C   UNL     1     -36.771  20.696  -6.035  0.00  0.00    -0.064 C 
ATOM     27  C   UNL     1     -37.858  19.676  -5.595  0.00  0.00    +0.066 C 
ENDBRANCH  19  20
ENDBRANCH  18  19
ENDBRANCH  14  15
ENDBRANCH  12  13
TORSDOF 6
ENDMDL
MODEL 3
REMARK VINA RESULT:      -9.1     26.535     27.859
REMARK  Name = C:\Users\Docking\Desktop\test protocol\1iep_ligandH.pdb
REMARK  8 active torsions:
REMARK  status: ('A' for Active; 'I' for Inactive)
REMARK    1  A    between atoms: _5  and  _11
REMARK    2  A    between atoms: _19  and  _21
REMARK    3  A    between atoms: _22  and  _66
REMARK    4  A    between atoms: _27  and  _30
REMARK    5  A    between atoms: _32  and  _33
REMARK    6  A    between atoms: _38  and  _43
REMARK    7  A    between atoms: _43  and  _46
REMARK    8  A    between atoms: _53  and  _55
REMARK                            x       y       z     vdW  Elec       q    Type
REMARK                         _______ _______ _______ _____ _____    ______ ____
ROOT
ATOM     10  C   UNL     1     -45.859   1.780 -22.751  0.00  0.00    +0.038 A 
ATOM     11  C   UNL     1     -44.684   2.531 -23.016  0.00  0.00    +0.047 A 
ATOM     12  C   UNL     1     -44.403   3.044 -24.347  0.00  0.00    +0.035 A 
ATOM     32  C   UNL     1     -45.340   2.775 -25.387  0.00  0.00    +0.024 A 
ATOM     33  C   UNL     1     -46.539   2.013 -25.136  0.00  0.00    +0.007 A 
ATOM     34  C   UNL     1     -46.820   1.503 -23.825  0.00  0.00    -0.029 A 
ATOM     35  C   UNL     1     -48.117   0.687 -23.615  0.00  0.00    +0.045 C 
ENDROOT
BRANCH  10   9
ATOM      4  C   UNL     1     -45.430  -1.552 -19.324  0.00  0.00    +0.077 A 
ATOM      5  C   UNL     1     -44.732  -2.448 -20.200  0.00  0.00    +0.048 A 
ATOM      6  C   UNL     1     -44.509  -2.016 -21.527  0.00  0.00    +0.116 A 
ATOM      7  N   UNL     1     -44.956  -0.779 -21.936  0.00  0.00    -0.223 NA
ATOM      8  C   UNL     1     -45.628   0.060 -21.066  0.00  0.00    +0.220 A 
ATOM      9  N   UNL     1     -46.079   1.313 -21.454  0.00  0.00    -0.283 N 
ATOM     36  H   UNL     1     -46.577   1.899 -20.785  0.00  0.00    +0.155 HD
ATOM     37  N   UNL     1     -45.854  -0.330 -19.795  0.00  0.00    -0.214 NA
BRANCH   4   3
ATOM      1  C   UNL     1     -46.763  -3.298 -16.087  0.00  0.00    +0.020 A 
ATOM      2  C   UNL     1     -46.492  -3.042 -17.483  0.00  0.00    +0.013 A 
ATOM      3  C   UNL     1     -45.739  -1.864 -17.893  0.00  0.00    +0.019 A 
ATOM     38  C   UNL     1     -45.268  -0.957 -16.857  0.00  0.00    +0.120 A 
ATOM     39  N   UNL     1     -45.545  -1.228 -15.520  0.00  0.00    -0.263 NA
ATOM     40  C   UNL     1     -46.271  -2.358 -15.114  0.00  0.00    +0.111 A 
ENDBRANCH   4   3
ENDBRANCH  10   9
BRANCH  12  13
ATOM     13  N   UNL     1     -43.223   3.805 -24.677  0.00  0.00    -0.281 N 
ATOM     14  C   UNL     1     -42.093   3.374 -25.353  0.00  0.00    +0.248 C 
ATOM     30  O   UNL     1     -41.835   2.204 -25.592  0.00  0.00    -0.270 OA
ATOM     31  H   UNL     1     -43.221   4.779 -24.375  0.00  0.00    +0.155 HD
BRANCH  14  15
ATOM     15  C   UNL     1     -41.100   4.390 -25.819  0.00  0.00    +0.037 A 
ATOM     16  C   UNL     1     -39.665   4.097 -25.836  0.00  0.00    +0.013 A 
ATOM     17  C   UNL     1     -38.727   5.100 -26.275  0.00  0.00    +0.005 A 
ATOM     18  C   UNL     1     -39.223   6.406 -26.701  0.00  0.00    -0.033 A 
ATOM     28  C   UNL     1     -40.653   6.668 -26.680  0.00  0.00    +0.005 A 
ATOM     29  C   UNL     1     -41.575   5.688 -26.250  0.00  0.00    +0.013 A 
BRANCH  18  19
ATOM     19  C   UNL     1     -38.293   7.543 -27.165  0.00  0.00    +0.119 C 
BRANCH  19  20
ATOM     20  N   UNL     1     -38.416   7.992 -28.584  0.00  0.00    -0.302 NA
ATOM     21  C   UNL     1     -37.060   8.030 -29.293  0.00  0.00    +0.066 C 
ATOM     22  C   UNL     1     -37.209   8.479 -30.783  0.00  0.00    -0.064 C 
ATOM     23  N   UNL     1     -37.886   9.850 -30.834  0.00  0.00    +0.379 N 
ATOM     24  C   UNL     1     -37.976  10.302 -32.230  0.00  0.00    -0.096 C 
ATOM     25  H   UNL     1     -37.233  10.570 -30.287  0.00  0.00    -0.082 HD
ATOM     26  C   UNL     1     -39.234   9.822 -30.128  0.00  0.00    -0.064 C 
ATOM     27  C   UNL     1     -39.078   9.346 -28.657  0.00  0.00    +0.066 C 
ENDBRANCH  19  20
ENDBRANCH  18  19
ENDBRANCH  14  15
ENDBRANCH  12  13
TORSDOF 6
ENDMDL
MODEL 4
REMARK VINA RESULT:      -8.8     13.910     18.041
REMARK  Name = C:\Users\Docking\Desktop\test protocol\1iep_ligandH.pdb
REMARK  8 active torsions:
REMARK  status: ('A' for Active; 'I' for Inactive)
REMARK    1  A    between atoms: _5  and  _11
REMARK    2  A    between atoms: _19  and  _21
REMARK    3  A    between atoms: _22  and  _66
REMARK    4  A    between atoms: _27  and  _30
REMARK    5  A    between atoms: _32  and  _33
REMARK    6  A    between atoms: _38  and  _43
REMARK    7  A    between atoms: _43  and  _46
REMARK    8  A    between atoms: _53  and  _55
REMARK                            x       y       z     vdW  Elec       q    Type
REMARK                         _______ _______ _______ _____ _____    ______ ____
ROOT
ATOM     10  C   UNL     1     -25.465  13.844   0.418  0.00  0.00    +0.038 A 
ATOM     11  C   UNL     1     -26.786  14.360   0.382  0.00  0.00    +0.047 A 
ATOM     12  C   UNL     1     -27.193  15.449   1.256  0.00  0.00    +0.035 A 
ATOM     32  C   UNL     1     -26.228  15.990   2.155  0.00  0.00    +0.024 A 
ATOM     33  C   UNL     1     -24.882  15.477   2.206  0.00  0.00    +0.007 A 
ATOM     34  C   UNL     1     -24.475  14.402   1.347  0.00  0.00    -0.029 A 
ATOM     35  C   UNL     1     -23.020  13.887   1.450  0.00  0.00    +0.045 C 
ENDROOT
BRANCH  10   9
ATOM      4  C   UNL     1     -25.188   9.178  -0.669  0.00  0.00    +0.077 A 
ATOM      5  C   UNL     1     -25.736   8.789   0.599  0.00  0.00    +0.048 A 
ATOM      6  C   UNL     1     -26.069   9.820   1.505  0.00  0.00    +0.116 A 
ATOM      7  N   UNL     1     -25.866  11.139   1.159  0.00  0.00    -0.223 NA
ATOM      8  C   UNL     1     -25.334  11.479  -0.072  0.00  0.00    +0.220 A 
ATOM      9  N   UNL     1     -25.129  12.798  -0.444  0.00  0.00    -0.283 N 
ATOM     36  H   UNL     1     -24.727  13.008  -1.358  0.00  0.00    +0.155 HD
ATOM     37  N   UNL     1     -25.006  10.513  -0.954  0.00  0.00    -0.214 NA
BRANCH   4   3
ATOM      1  C   UNL     1     -23.161   7.285  -3.428  0.00  0.00    +0.020 A 
ATOM      2  C   UNL     1     -23.497   8.249  -2.406  0.00  0.00    +0.013 A 
ATOM      3  C   UNL     1     -24.790   8.204  -1.734  0.00  0.00    +0.019 A 
ATOM     38  C   UNL     1     -25.728   7.161  -2.123  0.00  0.00    +0.120 A 
ATOM     39  N   UNL     1     -25.377   6.247  -3.112  0.00  0.00    -0.263 NA
ATOM     40  C   UNL     1     -24.137   6.282  -3.766  0.00  0.00    +0.111 A 
ENDBRANCH   4   3
ENDBRANCH  10   9
BRANCH  12  13
ATOM     13  N   UNL     1     -28.522  16.008   1.270  0.00  0.00    -0.281 N 
ATOM     14  C   UNL     1     -28.949  17.203   0.713  0.00  0.00    +0.248 C 
ATOM     30  O   UNL     1     -28.203  18.079   0.301  0.00  0.00    -0.270 OA
ATOM     31  H   UNL     1     -29.235  15.457   1.747  0.00  0.00    +0.155 HD
BRANCH  14  15
ATOM     15  C   UNL     1     -30.416  17.469   0.612  0.00  0.00    +0.037 A 
ATOM     16  C   UNL     1     -31.145  17.245  -0.638  0.00  0.00    +0.013 A 
ATOM     17  C   UNL     1     -32.557  17.527  -0.713  0.00  0.00    +0.005 A 
ATOM     18  C   UNL     1     -33.249  18.034   0.469  0.00  0.00    -0.033 A 
ATOM     28  C   UNL     1     -32.503  18.242   1.699  0.00  0.00    +0.005 A 
ATOM     29  C   UNL     1     -31.119  17.969   1.775  0.00  0.00    +0.013 A 
BRANCH  18  19
ATOM     19  C   UNL     1     -34.750  18.381   0.474  0.00  0.00    +0.119 C 
BRANCH  19  20
ATOM     20  N   UNL     1     -35.715  17.244   0.557  0.00  0.00    -0.302 NA
ATOM     21  C   UNL     1     -35.163  16.082   1.388  0.00  0.00    +0.066 C 
ATOM     22  C   UNL     1     -36.194  14.911   1.482  0.00  0.00    -0.064 C 
ATOM     23  N   UNL     1     -36.561  14.443   0.073  0.00  0.00    +0.379 N 
ATOM     24  C   UNL     1     -37.486  13.303   0.159  0.00  0.00    -0.096 C 
ATOM     25  H   UNL     1     -35.626  14.084  -0.418  0.00  0.00    -0.082 HD
ATOM     26  C   UNL     1     -37.107  15.593  -0.761  0.00  0.00    -0.064 C 
ATOM     27  C   UNL     1     -36.087  16.763  -0.824  0.00  0.00    +0.066 C 
ENDBRANCH  19  20
ENDBRANCH  18  19
ENDBRANCH  14  15
ENDBRANCH  12  13
TORSDOF 6
ENDMDL
MODEL 5
REMARK VINA RESULT:      -8.6     15.900     20.192
REMARK  Name = C:\Users\Docking\Desktop\test protocol\1iep_ligandH.pdb
REMARK  8 active torsions:
REMARK  status: ('A' for Active; 'I' for Inactive)
REMARK    1  A    between atoms: _5  and  _11
REMARK    2  A    between atoms: _19  and  _21
REMARK    3  A    between atoms: _22  and  _66
REMARK    4  A    between atoms: _27  and  _30
REMARK    5  A    between atoms: _32  and  _33
REMARK    6  A    between atoms: _38  and  _43
REMARK    7  A    between atoms: _43  and  _46
REMARK    8  A    between atoms: _53  and  _55
REMARK                            x       y       z     vdW  Elec       q    Type
REMARK                         _______ _______ _______ _____ _____    ______ ____
ROOT
ATOM     10  C   UNL     1     -20.289  27.495  -9.274  0.00  0.00    +0.038 A 
ATOM     11  C   UNL     1     -20.347  26.369  -8.413  0.00  0.00    +0.047 A 
ATOM     12  C   UNL     1     -19.323  25.336  -8.455  0.00  0.00    +0.035 A 
ATOM     32  C   UNL     1     -18.252  25.484  -9.384  0.00  0.00    +0.024 A 
ATOM     33  C   UNL     1     -18.178  26.621 -10.266  0.00  0.00    +0.007 A 
ATOM     34  C   UNL     1     -19.186  27.642 -10.232  0.00  0.00    -0.029 A 
ATOM     35  C   UNL     1     -19.059  28.836 -11.206  0.00  0.00    +0.045 C 
ENDROOT
BRANCH  10   9
ATOM      4  C   UNL     1     -24.698  29.099 -10.285  0.00  0.00    +0.077 A 
ATOM      5  C   UNL     1     -25.006  27.936 -11.066  0.00  0.00    +0.048 A 
ATOM      6  C   UNL     1     -24.000  26.951 -11.188  0.00  0.00    +0.116 A 
ATOM      7  N   UNL     1     -22.781  27.127 -10.571  0.00  0.00    -0.223 NA
ATOM      8  C   UNL     1     -22.515  28.262  -9.827  0.00  0.00    +0.220 A 
ATOM      9  N   UNL     1     -21.299  28.456  -9.191  0.00  0.00    -0.283 N 
ATOM     36  H   UNL     1     -21.139  29.310  -8.657  0.00  0.00    +0.155 HD
ATOM     37  N   UNL     1     -23.459  29.217  -9.696  0.00  0.00    -0.214 NA
BRANCH   4   3
ATOM      1  C   UNL     1     -26.197  32.627  -9.507  0.00  0.00    +0.020 A 
ATOM      2  C   UNL     1     -25.229  31.575  -9.713  0.00  0.00    +0.013 A 
ATOM      3  C   UNL     1     -25.658  30.226 -10.059  0.00  0.00    +0.019 A 
ATOM     38  C   UNL     1     -27.085  29.973 -10.191  0.00  0.00    +0.120 A 
ATOM     39  N   UNL     1     -27.994  31.005  -9.984  0.00  0.00    -0.263 NA
ATOM     40  C   UNL     1     -27.593  32.307  -9.649  0.00  0.00    +0.111 A 
ENDBRANCH   4   3
ENDBRANCH  10   9
BRANCH  12  13
ATOM     13  N   UNL     1     -19.334  24.166  -7.611  0.00  0.00    -0.281 N 
ATOM     14  C   UNL     1     -20.332  23.751  -6.745  0.00  0.00    +0.248 C 
ATOM     30  O   UNL     1     -21.281  24.440  -6.403  0.00  0.00    -0.270 OA
ATOM     31  H   UNL     1     -18.506  23.573  -7.659  0.00  0.00    +0.155 HD
BRANCH  14  15
ATOM     15  C   UNL     1     -20.256  22.376  -6.163  0.00  0.00    +0.037 A 
ATOM     16  C   UNL     1     -19.265  22.038  -5.138  0.00  0.00    +0.013 A 
ATOM     17  C   UNL     1     -19.202  20.700  -4.606  0.00  0.00    +0.005 A 
ATOM     18  C   UNL     1     -20.135  19.689  -5.097  0.00  0.00    -0.033 A 
ATOM     28  C   UNL     1     -21.112  20.053  -6.111  0.00  0.00    +0.005 A 
ATOM     29  C   UNL     1     -21.176  21.363  -6.635  0.00  0.00    +0.013 A 
BRANCH  18  19
ATOM     19  C   UNL     1     -20.127  18.231  -4.601  0.00  0.00    +0.119 C 
BRANCH  19  20
ATOM     20  N   UNL     1     -19.047  17.339  -5.120  0.00  0.00    -0.302 NA
ATOM     21  C   UNL     1     -19.238  17.008  -6.603  0.00  0.00    +0.066 C 
ATOM     22  C   UNL     1     -18.088  16.093  -7.135  0.00  0.00    -0.064 C 
ATOM     23  N   UNL     1     -18.030  14.814  -6.297  0.00  0.00    +0.379 N 
ATOM     24  C   UNL     1     -16.987  13.925  -6.831  0.00  0.00    -0.096 C 
ATOM     25  H   UNL     1     -19.009  14.292  -6.409  0.00  0.00    -0.082 HD
ATOM     26  C   UNL     1     -17.843  15.134  -4.821  0.00  0.00    -0.064 C 
ATOM     27  C   UNL     1     -18.975  16.068  -4.310  0.00  0.00    +0.066 C 
ENDBRANCH  19  20
ENDBRANCH  18  19
ENDBRANCH  14  15
ENDBRANCH  12  13
TORSDOF 6
ENDMDL
