MODEL 1
REMARK VINA RESULT:      -8.0      0.000      0.000
REMARK  Name = C:\Users\Docking\Desktop\test protocol\1iep_ligandH.pdb
REMARK  8 active torsions:
REMARK  status: ('A' for Active; 'I' for Inactive)
REMARK    1  A    between atoms: _5  and  _11
REMARK    2  A    between atoms: _19  and  _21
REMARK    3  A    between atoms: _22  and  _66
REMARK    4  A    between atoms: _27  and  _30
REMARK    5  A    between atoms: _32  and  _33
REMARK    6  A    between atoms: _38  and  _43
REMARK    7  A    between atoms: _43  and  _46
REMARK    8  A    between atoms: _53  and  _55
REMARK                            x       y       z     vdW  Elec       q    Type
REMARK                         _______ _______ _______ _____ _____    ______ ____
ROOT
ATOM     10  C   UNL     1      -6.009  56.533   6.798  0.00  0.00    +0.038 A 
ATOM     11  C   UNL     1      -7.104  56.133   5.989  0.00  0.00    +0.047 A 
ATOM     12  C   UNL     1      -8.427  55.933   6.559  0.00  0.00    +0.035 A 
ATOM     32  C   UNL     1      -8.601  56.152   7.956  0.00  0.00    +0.024 A 
ATOM     33  C   UNL     1      -7.499  56.558   8.794  0.00  0.00    +0.007 A 
ATOM     34  C   UNL     1      -6.191  56.754   8.238  0.00  0.00    -0.029 A 
ATOM     35  C   UNL     1      -5.045  57.183   9.184  0.00  0.00    +0.045 C 
ENDROOT
BRANCH  10   9
ATOM      4  C   UNL     1      -1.598  55.010   5.677  0.00  0.00    +0.077 A 
ATOM      5  C   UNL     1      -1.787  53.767   6.368  0.00  0.00    +0.048 A 
ATOM      6  C   UNL     1      -3.032  53.561   7.004  0.00  0.00    +0.116 A 
ATOM      7  N   UNL     1      -4.007  54.533   6.948  0.00  0.00    -0.223 NA
ATOM      8  C   UNL     1      -3.791  55.722   6.275  0.00  0.00    +0.220 A 
ATOM      9  N   UNL     1      -4.760  56.710   6.198  0.00  0.00    -0.283 N 
ATOM     36  H   UNL     1      -4.560  57.576   5.698  0.00  0.00    +0.155 HD
ATOM     37  N   UNL     1      -2.610  55.943   5.660  0.00  0.00    -0.214 NA
BRANCH   4   3
ATOM      1  C   UNL     1       2.174  55.488   4.756  0.00  0.00    +0.020 A 
ATOM      2  C   UNL     1       0.990  55.118   5.496  0.00  0.00    +0.013 A 
ATOM      3  C   UNL     1      -0.338  55.373   4.953  0.00  0.00    +0.019 A 
ATOM     38  C   UNL     1      -0.434  56.009   3.648  0.00  0.00    +0.120 A 
ATOM     39  N   UNL     1       0.724  56.356   2.959  0.00  0.00    -0.263 NA
ATOM     40  C   UNL     1       2.007  56.116   3.472  0.00  0.00    +0.111 A 
ENDBRANCH   4   3
ENDBRANCH  10   9
BRANCH  12  13
ATOM     13  N   UNL     1      -9.574  55.520   5.789  0.00  0.00    -0.281 N 
ATOM     14  C   UNL     1     -10.737  56.232   5.544  0.00  0.00    +0.248 C 
ATOM     30  O   UNL     1     -11.058  57.254   6.131  0.00  0.00    -0.270 OA
ATOM     31  H   UNL     1      -9.522  54.590   5.373  0.00  0.00    +0.155 HD
BRANCH  14  15
ATOM     15  C   UNL     1     -11.688  55.727   4.507  0.00  0.00    +0.037 A 
ATOM     16  C   UNL     1     -12.753  56.580   3.974  0.00  0.00    +0.013 A 
ATOM     17  C   UNL     1     -13.667  56.063   2.987  0.00  0.00    +0.005 A 
ATOM     18  C   UNL     1     -13.519  54.685   2.525  0.00  0.00    -0.033 A 
ATOM     28  C   UNL     1     -12.450  53.862   3.067  0.00  0.00    +0.005 A 
ATOM     29  C   UNL     1     -11.552  54.365   4.036  0.00  0.00    +0.013 A 
BRANCH  18  19
ATOM     19  C   UNL     1     -14.462  54.043   1.490  0.00  0.00    +0.119 C 
BRANCH  19  20
ATOM     20  N   UNL     1     -15.852  54.581   1.406  0.00  0.00    -0.302 NA
ATOM     21  C   UNL     1     -16.655  54.300   2.679  0.00  0.00    +0.066 C 
ATOM     22  C   UNL     1     -18.100  54.890   2.582  0.00  0.00    -0.064 C 
ATOM     23  N   UNL     1     -18.805  54.306   1.357  0.00  0.00    +0.379 N 
ATOM     24  C   UNL     1     -20.184  54.814   1.296  0.00  0.00    -0.096 C 
ATOM     25  H   UNL     1     -18.858  53.200   1.492  0.00  0.00    -0.082 HD
ATOM     26  C   UNL     1     -18.012  54.578   0.087  0.00  0.00    -0.064 C 
ATOM     27  C   UNL     1     -16.569  54.014   0.205  0.00  0.00    +0.066 C 
ENDBRANCH  19  20
ENDBRANCH  18  19
ENDBRANCH  14  15
ENDBRANCH  12  13
TORSDOF 6
ENDMDL
MODEL 2
REMARK VINA RESULT:      -7.9     13.685     16.176
REMARK  Name = C:\Users\Docking\Desktop\test protocol\1iep_ligandH.pdb
REMARK  8 active torsions:
REMARK  status: ('A' for Active; 'I' for Inactive)
REMARK    1  A    between atoms: _5  and  _11
REMARK    2  A    between atoms: _19  and  _21
REMARK    3  A    between atoms: _22  and  _66
REMARK    4  A    between atoms: _27  and  _30
REMARK    5  A    between atoms: _32  and  _33
REMARK    6  A    between atoms: _38  and  _43
REMARK    7  A    between atoms: _43  and  _46
REMARK    8  A    between atoms: _53  and  _55
REMARK                            x       y       z     vdW  Elec       q    Type
REMARK                         _______ _______ _______ _____ _____    ______ ____
ROOT
ATOM     10  C   UNL     1       5.515  55.126  10.815  0.00  0.00    +0.038 A 
ATOM     11  C   UNL     1       5.220  55.604   9.512  0.00  0.00    +0.047 A 
ATOM     12  C   UNL     1       6.127  55.368   8.401  0.00  0.00    +0.035 A 
ATOM     32  C   UNL     1       7.326  54.639   8.651  0.00  0.00    +0.024 A 
ATOM     33  C   UNL     1       7.643  54.147   9.968  0.00  0.00    +0.007 A 
ATOM     34  C   UNL     1       6.752  54.379  11.069  0.00  0.00    -0.029 A 
ATOM     35  C   UNL     1       7.145  53.833  12.462  0.00  0.00    +0.045 C 
ENDROOT
BRANCH  10   9
ATOM      4  C   UNL     1       1.576  54.067  13.345  0.00  0.00    +0.077 A 
ATOM      5  C   UNL     1       1.287  52.924  12.528  0.00  0.00    +0.048 A 
ATOM      6  C   UNL     1       2.172  52.647  11.462  0.00  0.00    +0.116 A 
ATOM      7  N   UNL     1       3.263  53.459  11.240  0.00  0.00    -0.223 NA
ATOM      8  C   UNL     1       3.512  54.555  12.046  0.00  0.00    +0.220 A 
ATOM      9  N   UNL     1       4.607  55.381  11.845  0.00  0.00    -0.283 N 
ATOM     36  H   UNL     1       4.752  56.184  12.457  0.00  0.00    +0.155 HD
ATOM     37  N   UNL     1       2.681  54.842  13.069  0.00  0.00    -0.214 NA
BRANCH   4   3
ATOM      1  C   UNL     1      -0.505  56.218  15.864  0.00  0.00    +0.020 A 
ATOM      2  C   UNL     1       0.306  55.864  14.722  0.00  0.00    +0.013 A 
ATOM      3  C   UNL     1       0.736  54.488  14.511  0.00  0.00    +0.019 A 
ATOM     38  C   UNL     1       0.325  53.485  15.482  0.00  0.00    +0.120 A 
ATOM     39  N   UNL     1      -0.455  53.855  16.573  0.00  0.00    -0.263 NA
ATOM     40  C   UNL     1      -0.874  55.177  16.787  0.00  0.00    +0.111 A 
ENDBRANCH   4   3
ENDBRANCH  10   9
BRANCH  12  13
ATOM     13  N   UNL     1       5.885  55.836   7.058  0.00  0.00    -0.281 N 
ATOM     14  C   UNL     1       5.013  55.311   6.119  0.00  0.00    +0.248 C 
ATOM     30  O   UNL     1       4.462  54.225   6.217  0.00  0.00    -0.270 OA
ATOM     31  H   UNL     1       6.421  56.652   6.766  0.00  0.00    +0.155 HD
BRANCH  14  15
ATOM     15  C   UNL     1       4.721  56.102   4.884  0.00  0.00    +0.037 A 
ATOM     16  C   UNL     1       5.786  56.804   4.163  0.00  0.00    +0.013 A 
ATOM     17  C   UNL     1       5.475  57.574   2.984  0.00  0.00    +0.005 A 
ATOM     18  C   UNL     1       4.092  57.643   2.518  0.00  0.00    -0.033 A 
ATOM     28  C   UNL     1       3.056  56.932   3.250  0.00  0.00    +0.005 A 
ATOM     29  C   UNL     1       3.357  56.178   4.406  0.00  0.00    +0.013 A 
BRANCH  18  19
ATOM     19  C   UNL     1       3.665  58.457   1.282  0.00  0.00    +0.119 C 
BRANCH  19  20
ATOM     20  N   UNL     1       4.751  58.980   0.400  0.00  0.00    -0.302 NA
ATOM     21  C   UNL     1       4.326  60.250  -0.343  0.00  0.00    +0.066 C 
ATOM     22  C   UNL     1       5.481  60.796  -1.244  0.00  0.00    -0.064 C 
ATOM     23  N   UNL     1       5.911  59.709  -2.231  0.00  0.00    +0.379 N 
ATOM     24  C   UNL     1       6.957  60.238  -3.118  0.00  0.00    -0.096 C 
ATOM     25  H   UNL     1       5.027  59.458  -2.862  0.00  0.00    -0.082 HD
ATOM     26  C   UNL     1       6.332  58.442  -1.501  0.00  0.00    -0.064 C 
ATOM     27  C   UNL     1       5.187  57.924  -0.586  0.00  0.00    +0.066 C 
ENDBRANCH  19  20
ENDBRANCH  18  19
ENDBRANCH  14  15
ENDBRANCH  12  13
TORSDOF 6
ENDMDL
MODEL 3
REMARK VINA RESULT:      -7.8      3.299     13.732
REMARK  Name = C:\Users\Docking\Desktop\test protocol\1iep_ligandH.pdb
REMARK  8 active torsions:
REMARK  status: ('A' for Active; 'I' for Inactive)
REMARK    1  A    between atoms: _5  and  _11
REMARK    2  A    between atoms: _19  and  _21
REMARK    3  A    between atoms: _22  and  _66
REMARK    4  A    between atoms: _27  and  _30
REMARK    5  A    between atoms: _32  and  _33
REMARK    6  A    between atoms: _38  and  _43
REMARK    7  A    between atoms: _43  and  _46
REMARK    8  A    between atoms: _53  and  _55
REMARK                            x       y       z     vdW  Elec       q    Type
REMARK                         _______ _______ _______ _____ _____    ______ ____
ROOT
ATOM     10  C   UNL     1      -5.593  53.950   6.987  0.00  0.00    +0.038 A 
ATOM     11  C   UNL     1      -4.392  54.335   6.338  0.00  0.00    +0.047 A 
ATOM     12  C   UNL     1      -3.100  54.168   6.984  0.00  0.00    +0.035 A 
ATOM     32  C   UNL     1      -3.067  53.602   8.292  0.00  0.00    +0.024 A 
ATOM     33  C   UNL     1      -4.277  53.206   8.967  0.00  0.00    +0.007 A 
ATOM     34  C   UNL     1      -5.555  53.371   8.336  0.00  0.00    -0.029 A 
ATOM     35  C   UNL     1      -6.821  52.934   9.110  0.00  0.00    +0.045 C 
ENDROOT
BRANCH  10   9
ATOM      4  C   UNL     1      -9.602  56.434   6.099  0.00  0.00    +0.077 A 
ATOM      5  C   UNL     1      -9.264  57.439   7.065  0.00  0.00    +0.048 A 
ATOM      6  C   UNL     1      -8.053  57.276   7.775  0.00  0.00    +0.116 A 
ATOM      7  N   UNL     1      -7.248  56.185   7.528  0.00  0.00    -0.223 NA
ATOM      8  C   UNL     1      -7.604  55.233   6.590  0.00  0.00    +0.220 A 
ATOM      9  N   UNL     1      -6.806  54.132   6.320  0.00  0.00    -0.283 N 
ATOM     36  H   UNL     1      -7.108  53.449   5.627  0.00  0.00    +0.155 HD
ATOM     37  N   UNL     1      -8.757  55.366   5.901  0.00  0.00    -0.214 NA
BRANCH   4   3
ATOM      1  C   UNL     1     -12.729  57.684   4.108  0.00  0.00    +0.020 A 
ATOM      2  C   UNL     1     -11.530  57.706   4.914  0.00  0.00    +0.013 A 
ATOM      3  C   UNL     1     -10.847  56.468   5.268  0.00  0.00    +0.019 A 
ATOM     38  C   UNL     1     -11.406  55.215   4.785  0.00  0.00    +0.120 A 
ATOM     39  N   UNL     1     -12.563  55.224   4.011  0.00  0.00    -0.263 NA
ATOM     40  C   UNL     1     -13.230  56.409   3.667  0.00  0.00    +0.111 A 
ENDBRANCH   4   3
ENDBRANCH  10   9
BRANCH  12  13
ATOM     13  N   UNL     1      -1.849  54.548   6.377  0.00  0.00    -0.281 N 
ATOM     14  C   UNL     1      -1.643  55.092   5.120  0.00  0.00    +0.248 C 
ATOM     30  O   UNL     1      -2.488  55.136   4.239  0.00  0.00    -0.270 OA
ATOM     31  H   UNL     1      -1.013  54.398   6.943  0.00  0.00    +0.155 HD
BRANCH  14  15
ATOM     15  C   UNL     1      -0.298  55.655   4.788  0.00  0.00    +0.037 A 
ATOM     16  C   UNL     1      -0.145  56.719   3.792  0.00  0.00    +0.013 A 
ATOM     17  C   UNL     1       1.165  57.232   3.478  0.00  0.00    +0.005 A 
ATOM     18  C   UNL     1       2.333  56.684   4.164  0.00  0.00    -0.033 A 
ATOM     28  C   UNL     1       2.151  55.633   5.152  0.00  0.00    +0.005 A 
ATOM     29  C   UNL     1       0.869  55.126   5.461  0.00  0.00    +0.013 A 
BRANCH  18  19
ATOM     19  C   UNL     1       3.770  57.157   3.877  0.00  0.00    +0.119 C 
BRANCH  19  20
ATOM     20  N   UNL     1       4.135  57.411   2.452  0.00  0.00    -0.302 NA
ATOM     21  C   UNL     1       5.436  56.707   2.057  0.00  0.00    +0.066 C 
ATOM     22  C   UNL     1       5.791  56.965   0.557  0.00  0.00    -0.064 C 
ATOM     23  N   UNL     1       5.894  58.472   0.312  0.00  0.00    +0.379 N 
ATOM     24  C   UNL     1       6.284  58.716  -1.084  0.00  0.00    -0.096 C 
ATOM     25  H   UNL     1       6.708  58.865   0.965  0.00  0.00    -0.082 HD
ATOM     26  C   UNL     1       4.605  59.180   0.704  0.00  0.00    -0.064 C 
ATOM     27  C   UNL     1       4.246  58.893   2.189  0.00  0.00    +0.066 C 
ENDBRANCH  19  20
ENDBRANCH  18  19
ENDBRANCH  14  15
ENDBRANCH  12  13
TORSDOF 6
ENDMDL
MODEL 4
REMARK VINA RESULT:      -7.7      9.469     14.456
REMARK  Name = C:\Users\Docking\Desktop\test protocol\1iep_ligandH.pdb
REMARK  8 active torsions:
REMARK  status: ('A' for Active; 'I' for Inactive)
REMARK    1  A    between atoms: _5  and  _11
REMARK    2  A    between atoms: _19  and  _21
REMARK    3  A    between atoms: _22  and  _66
REMARK    4  A    between atoms: _27  and  _30
REMARK    5  A    between atoms: _32  and  _33
REMARK    6  A    between atoms: _38  and  _43
REMARK    7  A    between atoms: _43  and  _46
REMARK    8  A    between atoms: _53  and  _55
REMARK                            x       y       z     vdW  Elec       q    Type
REMARK                         _______ _______ _______ _____ _____    ______ ____
ROOT
ATOM     10  C   UNL     1     -14.386  52.941  -0.835  0.00  0.00    +0.038 A 
ATOM     11  C   UNL     1     -14.941  52.242  -1.937  0.00  0.00    +0.047 A 
ATOM     12  C   UNL     1     -14.130  51.892  -3.092  0.00  0.00    +0.035 A 
ATOM     32  C   UNL     1     -12.755  52.268  -3.091  0.00  0.00    +0.024 A 
ATOM     33  C   UNL     1     -12.175  52.981  -1.980  0.00  0.00    +0.007 A 
ATOM     34  C   UNL     1     -12.971  53.330  -0.838  0.00  0.00    -0.029 A 
ATOM     35  C   UNL     1     -12.297  54.100   0.322  0.00  0.00    +0.045 C 
ENDROOT
BRANCH  10   9
ATOM      4  C   UNL     1     -17.164  55.975   1.638  0.00  0.00    +0.077 A 
ATOM      5  C   UNL     1     -16.930  57.041   0.707  0.00  0.00    +0.048 A 
ATOM      6  C   UNL     1     -16.083  56.770  -0.391  0.00  0.00    +0.116 A 
ATOM      7  N   UNL     1     -15.518  55.522  -0.537  0.00  0.00    -0.223 NA
ATOM      8  C   UNL     1     -15.763  54.516   0.380  0.00  0.00    +0.220 A 
ATOM      9  N   UNL     1     -15.211  53.251   0.249  0.00  0.00    -0.283 N 
ATOM     36  H   UNL     1     -15.410  52.539   0.951  0.00  0.00    +0.155 HD
ATOM     37  N   UNL     1     -16.567  54.751   1.438  0.00  0.00    -0.214 NA
BRANCH   4   3
ATOM      1  C   UNL     1     -18.395  56.416   5.325  0.00  0.00    +0.020 A 
ATOM      2  C   UNL     1     -17.507  56.294   4.191  0.00  0.00    +0.013 A 
ATOM      3  C   UNL     1     -18.038  56.106   2.847  0.00  0.00    +0.019 A 
ATOM     38  C   UNL     1     -19.482  56.045   2.682  0.00  0.00    +0.120 A 
ATOM     39  N   UNL     1     -20.312  56.163   3.793  0.00  0.00    -0.263 NA
ATOM     40  C   UNL     1     -19.813  56.343   5.092  0.00  0.00    +0.111 A 
ENDBRANCH   4   3
ENDBRANCH  10   9
BRANCH  12  13
ATOM     13  N   UNL     1     -14.640  51.190  -4.243  0.00  0.00    -0.281 N 
ATOM     14  C   UNL     1     -15.101  49.885  -4.310  0.00  0.00    +0.248 C 
ATOM     30  O   UNL     1     -14.944  49.051  -3.430  0.00  0.00    -0.270 OA
ATOM     31  H   UNL     1     -14.664  51.719  -5.115  0.00  0.00    +0.155 HD
BRANCH  14  15
ATOM     15  C   UNL     1     -15.829  49.438  -5.536  0.00  0.00    +0.037 A 
ATOM     16  C   UNL     1     -16.635  48.215  -5.538  0.00  0.00    +0.013 A 
ATOM     17  C   UNL     1     -17.313  47.797  -6.739  0.00  0.00    +0.005 A 
ATOM     18  C   UNL     1     -17.188  48.605  -7.950  0.00  0.00    -0.033 A 
ATOM     28  C   UNL     1     -16.385  49.816  -7.919  0.00  0.00    +0.005 A 
ATOM     29  C   UNL     1     -15.718  50.229  -6.744  0.00  0.00    +0.013 A 
BRANCH  18  19
ATOM     19  C   UNL     1     -17.859  48.224  -9.283  0.00  0.00    +0.119 C 
BRANCH  19  20
ATOM     20  N   UNL     1     -19.215  48.789  -9.552  0.00  0.00    -0.302 NA
ATOM     21  C   UNL     1     -20.304  48.075  -8.747  0.00  0.00    +0.066 C 
ATOM     22  C   UNL     1     -21.714  48.693  -9.023  0.00  0.00    -0.064 C 
ATOM     23  N   UNL     1     -22.013  48.623 -10.521  0.00  0.00    +0.379 N 
ATOM     24  C   UNL     1     -23.362  49.151 -10.777  0.00  0.00    -0.096 C 
ATOM     25  H   UNL     1     -22.009  47.548 -10.817  0.00  0.00    -0.082 HD
ATOM     26  C   UNL     1     -20.933  49.328 -11.329  0.00  0.00    -0.064 C 
ATOM     27  C   UNL     1     -19.533  48.726 -11.025  0.00  0.00    +0.066 C 
ENDBRANCH  19  20
ENDBRANCH  18  19
ENDBRANCH  14  15
ENDBRANCH  12  13
TORSDOF 6
ENDMDL
MODEL 5
REMARK VINA RESULT:      -7.6      9.493     16.407
REMARK  Name = C:\Users\Docking\Desktop\test protocol\1iep_ligandH.pdb
REMARK  8 active torsions:
REMARK  status: ('A' for Active; 'I' for Inactive)
REMARK    1  A    between atoms: _5  and  _11
REMARK    2  A    between atoms: _19  and  _21
REMARK    3  A    between atoms: _22  and  _66
REMARK    4  A    between atoms: _27  and  _30
REMARK    5  A    between atoms: _32  and  _33
REMARK    6  A    between atoms: _38  and  _43
REMARK    7  A    between atoms: _43  and  _46
REMARK    8  A    between atoms: _53  and  _55
REMARK                            x       y       z     vdW  Elec       q    Type
REMARK                         _______ _______ _______ _____ _____    ______ ____
ROOT
ATOM     10  C   UNL     1     -20.285  58.159   2.252  0.00  0.00    +0.038 A 
ATOM     11  C   UNL     1     -19.338  57.410   1.508  0.00  0.00    +0.047 A 
ATOM     12  C   UNL     1     -18.434  56.477   2.163  0.00  0.00    +0.035 A 
ATOM     32  C   UNL     1     -18.524  56.331   3.578  0.00  0.00    +0.024 A 
ATOM     33  C   UNL     1     -19.480  57.086   4.350  0.00  0.00    +0.007 A 
ATOM     34  C   UNL     1     -20.372  58.009   3.709  0.00  0.00    -0.029 A 
ATOM     35  C   UNL     1     -21.373  58.796   4.587  0.00  0.00    +0.045 C 
ENDROOT
BRANCH  10   9
ATOM      4  C   UNL     1     -24.386  59.187  -0.020  0.00  0.00    +0.077 A 
ATOM      5  C   UNL     1     -24.879  57.849   0.138  0.00  0.00    +0.048 A 
ATOM      6  C   UNL     1     -24.043  56.925   0.804  0.00  0.00    +0.116 A 
ATOM      7  N   UNL     1     -22.808  57.320   1.272  0.00  0.00    -0.223 NA
ATOM      8  C   UNL     1     -22.363  58.618   1.101  0.00  0.00    +0.220 A 
ATOM      9  N   UNL     1     -21.129  59.040   1.571  0.00  0.00    -0.283 N 
ATOM     36  H   UNL     1     -20.834  60.004   1.418  0.00  0.00    +0.155 HD
ATOM     37  N   UNL     1     -23.142  59.519   0.468  0.00  0.00    -0.214 NA
BRANCH   4   3
ATOM      1  C   UNL     1     -26.009  62.647  -0.855  0.00  0.00    +0.020 A 
ATOM      2  C   UNL     1     -25.255  61.629  -0.160  0.00  0.00    +0.013 A 
ATOM      3  C   UNL     1     -25.154  60.278  -0.699  0.00  0.00    +0.019 A 
ATOM     38  C   UNL     1     -25.832  59.989  -1.954  0.00  0.00    +0.120 A 
ATOM     39  N   UNL     1     -26.552  60.988  -2.600  0.00  0.00    -0.263 NA
ATOM     40  C   UNL     1     -26.658  62.291  -2.090  0.00  0.00    +0.111 A 
ENDBRANCH   4   3
ENDBRANCH  10   9
BRANCH  12  13
ATOM     13  N   UNL     1     -17.447  55.695   1.461  0.00  0.00    -0.281 N 
ATOM     14  C   UNL     1     -16.092  55.952   1.332  0.00  0.00    +0.248 C 
ATOM     30  O   UNL     1     -15.558  57.012   1.623  0.00  0.00    -0.270 OA
ATOM     31  H   UNL     1     -17.789  54.850   1.003  0.00  0.00    +0.155 HD
BRANCH  14  15
ATOM     15  C   UNL     1     -15.203  54.881   0.787  0.00  0.00    +0.037 A 
ATOM     16  C   UNL     1     -13.913  54.573   1.411  0.00  0.00    +0.013 A 
ATOM     17  C   UNL     1     -13.068  53.547   0.855  0.00  0.00    +0.005 A 
ATOM     18  C   UNL     1     -13.510  52.819  -0.332  0.00  0.00    -0.033 A 
ATOM     28  C   UNL     1     -14.796  53.141  -0.928  0.00  0.00    +0.005 A 
ATOM     29  C   UNL     1     -15.628  54.147  -0.386  0.00  0.00    +0.013 A 
BRANCH  18  19
ATOM     19  C   UNL     1     -12.663  51.723  -1.005  0.00  0.00    +0.119 C 
BRANCH  19  20
ATOM     20  N   UNL     1     -13.388  50.705  -1.823  0.00  0.00    -0.302 NA
ATOM     21  C   UNL     1     -13.338  49.314  -1.185  0.00  0.00    +0.066 C 
ATOM     22  C   UNL     1     -14.119  48.266  -2.043  0.00  0.00    -0.064 C 
ATOM     23  N   UNL     1     -13.539  48.234  -3.458  0.00  0.00    +0.379 N 
ATOM     24  C   UNL     1     -14.233  47.209  -4.250  0.00  0.00    -0.096 C 
ATOM     25  H   UNL     1     -12.469  47.932  -3.377  0.00  0.00    -0.082 HD
ATOM     26  C   UNL     1     -13.582  49.614  -4.098  0.00  0.00    -0.064 C 
ATOM     27  C   UNL     1     -12.828  50.654  -3.224  0.00  0.00    +0.066 C 
ENDBRANCH  19  20
ENDBRANCH  18  19
ENDBRANCH  14  15
ENDBRANCH  12  13
TORSDOF 6
ENDMDL
