MODEL 1
REMARK VINA RESULT:      -8.1      0.000      0.000
REMARK  Name = C:\Users\Docking\Desktop\test protocol\1iep_ligandH.pdb
REMARK  8 active torsions:
REMARK  status: ('A' for Active; 'I' for Inactive)
REMARK    1  A    between atoms: _5  and  _11
REMARK    2  A    between atoms: _19  and  _21
REMARK    3  A    between atoms: _22  and  _66
REMARK    4  A    between atoms: _27  and  _30
REMARK    5  A    between atoms: _32  and  _33
REMARK    6  A    between atoms: _38  and  _43
REMARK    7  A    between atoms: _43  and  _46
REMARK    8  A    between atoms: _53  and  _55
REMARK                            x       y       z     vdW  Elec       q    Type
REMARK                         _______ _______ _______ _____ _____    ______ ____
ROOT
ATOM     10  C   UNL     1      19.744  25.664   3.820  0.00  0.00    +0.038 A 
ATOM     11  C   UNL     1      18.385  25.549   4.211  0.00  0.00    +0.047 A 
ATOM     12  C   UNL     1      17.699  24.267   4.181  0.00  0.00    +0.035 A 
ATOM     32  C   UNL     1      18.428  23.120   3.751  0.00  0.00    +0.024 A 
ATOM     33  C   UNL     1      19.810  23.219   3.349  0.00  0.00    +0.007 A 
ATOM     34  C   UNL     1      20.491  24.481   3.374  0.00  0.00    -0.029 A 
ATOM     35  C   UNL     1      21.970  24.529   2.926  0.00  0.00    +0.045 C 
ENDROOT
BRANCH  10   9
ATOM      4  C   UNL     1      21.103  29.789   1.778  0.00  0.00    +0.077 A 
ATOM      5  C   UNL     1      20.578  29.399   0.501  0.00  0.00    +0.048 A 
ATOM      6  C   UNL     1      19.973  28.125   0.410  0.00  0.00    +0.116 A 
ATOM      7  N   UNL     1      19.902  27.311   1.520  0.00  0.00    -0.223 NA
ATOM      8  C   UNL     1      20.420  27.718   2.736  0.00  0.00    +0.220 A 
ATOM      9  N   UNL     1      20.353  26.919   3.868  0.00  0.00    -0.283 N 
ATOM     36  H   UNL     1      20.753  27.253   4.744  0.00  0.00    +0.155 HD
ATOM     37  N   UNL     1      21.004  28.929   2.849  0.00  0.00    -0.214 NA
BRANCH   4   3
ATOM      1  C   UNL     1      23.233  33.042   1.346  0.00  0.00    +0.020 A 
ATOM      2  C   UNL     1      22.613  31.771   1.049  0.00  0.00    +0.013 A 
ATOM      3  C   UNL     1      21.769  31.105   2.034  0.00  0.00    +0.019 A 
ATOM     38  C   UNL     1      21.569  31.759   3.318  0.00  0.00    +0.120 A 
ATOM     39  N   UNL     1      22.180  32.982   3.577  0.00  0.00    -0.263 NA
ATOM     40  C   UNL     1      22.996  33.630   2.638  0.00  0.00    +0.111 A 
ENDBRANCH   4   3
ENDBRANCH  10   9
BRANCH  12  13
ATOM     13  N   UNL     1      16.319  24.091   4.559  0.00  0.00    -0.281 N 
ATOM     14  C   UNL     1      15.793  23.191   5.471  0.00  0.00    +0.248 C 
ATOM     30  O   UNL     1      16.410  22.250   5.947  0.00  0.00    -0.270 OA
ATOM     31  H   UNL     1      15.647  24.705   4.097  0.00  0.00    +0.155 HD
BRANCH  14  15
ATOM     15  C   UNL     1      14.373  23.352   5.907  0.00  0.00    +0.037 A 
ATOM     16  C   UNL     1      13.299  23.566   4.934  0.00  0.00    +0.013 A 
ATOM     17  C   UNL     1      11.939  23.734   5.383  0.00  0.00    +0.005 A 
ATOM     18  C   UNL     1      11.646  23.688   6.813  0.00  0.00    -0.033 A 
ATOM     28  C   UNL     1      12.730  23.469   7.756  0.00  0.00    +0.005 A 
ATOM     29  C   UNL     1      14.064  23.304   7.320  0.00  0.00    +0.013 A 
BRANCH  18  19
ATOM     19  C   UNL     1      10.228  23.879   7.383  0.00  0.00    +0.119 C 
BRANCH  19  20
ATOM     20  N   UNL     1       9.792  22.941   8.460  0.00  0.00    -0.302 NA
ATOM     21  C   UNL     1       9.764  21.487   7.979  0.00  0.00    +0.066 C 
ATOM     22  C   UNL     1       9.327  20.517   9.124  0.00  0.00    -0.064 C 
ATOM     23  N   UNL     1       7.954  20.939   9.651  0.00  0.00    +0.379 N 
ATOM     24  C   UNL     1       7.515  19.995  10.688  0.00  0.00    -0.096 C 
ATOM     25  H   UNL     1       7.232  20.872   8.804  0.00  0.00    -0.082 HD
ATOM     26  C   UNL     1       7.972  22.384  10.129  0.00  0.00    -0.064 C 
ATOM     27  C   UNL     1       8.436  23.337   8.991  0.00  0.00    +0.066 C 
ENDBRANCH  19  20
ENDBRANCH  18  19
ENDBRANCH  14  15
ENDBRANCH  12  13
TORSDOF 6
ENDMDL
MODEL 2
REMARK VINA RESULT:      -8.0     22.565     27.641
REMARK  Name = C:\Users\Docking\Desktop\test protocol\1iep_ligandH.pdb
REMARK  8 active torsions:
REMARK  status: ('A' for Active; 'I' for Inactive)
REMARK    1  A    between atoms: _5  and  _11
REMARK    2  A    between atoms: _19  and  _21
REMARK    3  A    between atoms: _22  and  _66
REMARK    4  A    between atoms: _27  and  _30
REMARK    5  A    between atoms: _32  and  _33
REMARK    6  A    between atoms: _38  and  _43
REMARK    7  A    between atoms: _43  and  _46
REMARK    8  A    between atoms: _53  and  _55
REMARK                            x       y       z     vdW  Elec       q    Type
REMARK                         _______ _______ _______ _____ _____    ______ ____
ROOT
ATOM     10  C   UNL     1       5.379  40.785  23.757  0.00  0.00    +0.038 A 
ATOM     11  C   UNL     1       6.710  40.421  23.430  0.00  0.00    +0.047 A 
ATOM     12  C   UNL     1       7.838  41.240  23.845  0.00  0.00    +0.035 A 
ATOM     32  C   UNL     1       7.574  42.423  24.595  0.00  0.00    +0.024 A 
ATOM     33  C   UNL     1       6.227  42.809  24.935  0.00  0.00    +0.007 A 
ATOM     34  C   UNL     1       5.110  42.006  24.526  0.00  0.00    -0.029 A 
ATOM     35  C   UNL     1       3.687  42.471  24.913  0.00  0.00    +0.045 C 
ENDROOT
BRANCH  10   9
ATOM      4  C   UNL     1       1.831  39.673  20.722  0.00  0.00    +0.077 A 
ATOM      5  C   UNL     1       2.061  40.847  19.929  0.00  0.00    +0.048 A 
ATOM      6  C   UNL     1       3.098  41.714  20.341  0.00  0.00    +0.116 A 
ATOM      7  N   UNL     1       3.842  41.420  21.463  0.00  0.00    -0.223 NA
ATOM      8  C   UNL     1       3.593  40.281  22.205  0.00  0.00    +0.220 A 
ATOM      9  N   UNL     1       4.334  39.961  23.332  0.00  0.00    -0.283 N 
ATOM     36  H   UNL     1       4.114  39.115  23.857  0.00  0.00    +0.155 HD
ATOM     37  N   UNL     1       2.608  39.437  21.834  0.00  0.00    -0.214 NA
BRANCH   4   3
ATOM      1  C   UNL     1      -0.005  36.292  20.017  0.00  0.00    +0.020 A 
ATOM      2  C   UNL     1       1.051  37.230  20.316  0.00  0.00    +0.013 A 
ATOM      3  C   UNL     1       0.774  38.658  20.413  0.00  0.00    +0.019 A 
ATOM     38  C   UNL     1      -0.593  39.107  20.200  0.00  0.00    +0.120 A 
ATOM     39  N   UNL     1      -1.590  38.180  19.912  0.00  0.00    -0.263 NA
ATOM     40  C   UNL     1      -1.335  36.804  19.814  0.00  0.00    +0.111 A 
ENDBRANCH   4   3
ENDBRANCH  10   9
BRANCH  12  13
ATOM     13  N   UNL     1       9.211  40.925  23.536  0.00  0.00    -0.281 N 
ATOM     14  C   UNL     1      10.249  41.805  23.276  0.00  0.00    +0.248 C 
ATOM     30  O   UNL     1      10.105  42.999  23.060  0.00  0.00    -0.270 OA
ATOM     31  H   UNL     1       9.446  39.933  23.504  0.00  0.00    +0.155 HD
BRANCH  14  15
ATOM     15  C   UNL     1      11.648  41.281  23.237  0.00  0.00    +0.037 A 
ATOM     16  C   UNL     1      11.920  39.858  23.017  0.00  0.00    +0.013 A 
ATOM     17  C   UNL     1      13.278  39.375  23.001  0.00  0.00    +0.005 A 
ATOM     18  C   UNL     1      14.375  40.318  23.205  0.00  0.00    -0.033 A 
ATOM     28  C   UNL     1      14.077  41.725  23.416  0.00  0.00    +0.005 A 
ATOM     29  C   UNL     1      12.747  42.201  23.434  0.00  0.00    +0.013 A 
BRANCH  18  19
ATOM     19  C   UNL     1      15.854  39.888  23.225  0.00  0.00    +0.119 C 
BRANCH  19  20
ATOM     20  N   UNL     1      16.822  40.735  22.465  0.00  0.00    -0.302 NA
ATOM     21  C   UNL     1      17.852  39.891  21.708  0.00  0.00    +0.066 C 
ATOM     22  C   UNL     1      18.843  40.792  20.901  0.00  0.00    -0.064 C 
ATOM     23  N   UNL     1      19.537  41.764  21.857  0.00  0.00    +0.379 N 
ATOM     24  C   UNL     1      20.512  42.573  21.111  0.00  0.00    -0.096 C 
ATOM     25  H   UNL     1      20.101  41.159  22.604  0.00  0.00    -0.082 HD
ATOM     26  C   UNL     1      18.521  42.605  22.616  0.00  0.00    -0.064 C 
ATOM     27  C   UNL     1      17.523  41.699  23.391  0.00  0.00    +0.066 C 
ENDBRANCH  19  20
ENDBRANCH  18  19
ENDBRANCH  14  15
ENDBRANCH  12  13
TORSDOF 6
ENDMDL
MODEL 3
REMARK VINA RESULT:      -7.9      1.538      2.510
REMARK  Name = C:\Users\Docking\Desktop\test protocol\1iep_ligandH.pdb
REMARK  8 active torsions:
REMARK  status: ('A' for Active; 'I' for Inactive)
REMARK    1  A    between atoms: _5  and  _11
REMARK    2  A    between atoms: _19  and  _21
REMARK    3  A    between atoms: _22  and  _66
REMARK    4  A    between atoms: _27  and  _30
REMARK    5  A    between atoms: _32  and  _33
REMARK    6  A    between atoms: _38  and  _43
REMARK    7  A    between atoms: _43  and  _46
REMARK    8  A    between atoms: _53  and  _55
REMARK                            x       y       z     vdW  Elec       q    Type
REMARK                         _______ _______ _______ _____ _____    ______ ____
ROOT
ATOM     10  C   UNL     1      19.955  25.368   3.618  0.00  0.00    +0.038 A 
ATOM     11  C   UNL     1      18.701  25.122   4.232  0.00  0.00    +0.047 A 
ATOM     12  C   UNL     1      18.075  23.811   4.166  0.00  0.00    +0.035 A 
ATOM     32  C   UNL     1      18.757  22.771   3.469  0.00  0.00    +0.024 A 
ATOM     33  C   UNL     1      20.033  23.004   2.839  0.00  0.00    +0.007 A 
ATOM     34  C   UNL     1      20.653  24.296   2.898  0.00  0.00    -0.029 A 
ATOM     35  C   UNL     1      22.019  24.491   2.198  0.00  0.00    +0.045 C 
ENDROOT
BRANCH  10   9
ATOM      4  C   UNL     1      21.009  29.671   1.771  0.00  0.00    +0.077 A 
ATOM      5  C   UNL     1      20.429  29.335   0.502  0.00  0.00    +0.048 A 
ATOM      6  C   UNL     1      19.877  28.041   0.364  0.00  0.00    +0.116 A 
ATOM      7  N   UNL     1      19.907  27.159   1.422  0.00  0.00    -0.223 NA
ATOM      8  C   UNL     1      20.475  27.515   2.632  0.00  0.00    +0.220 A 
ATOM      9  N   UNL     1      20.510  26.647   3.712  0.00  0.00    -0.283 N 
ATOM     36  H   UNL     1      20.945  26.945   4.585  0.00  0.00    +0.155 HD
ATOM     37  N   UNL     1      21.011  28.744   2.788  0.00  0.00    -0.214 NA
BRANCH   4   3
ATOM      1  C   UNL     1      22.027  32.995   3.565  0.00  0.00    +0.020 A 
ATOM      2  C   UNL     1      21.403  31.714   3.323  0.00  0.00    +0.013 A 
ATOM      3  C   UNL     1      21.629  31.000   2.073  0.00  0.00    +0.019 A 
ATOM     38  C   UNL     1      22.499  31.614   1.081  0.00  0.00    +0.120 A 
ATOM     39  N   UNL     1      23.084  32.849   1.341  0.00  0.00    -0.263 NA
ATOM     40  C   UNL     1      22.873  33.546   2.540  0.00  0.00    +0.111 A 
ENDBRANCH   4   3
ENDBRANCH  10   9
BRANCH  12  13
ATOM     13  N   UNL     1      16.799  23.504   4.763  0.00  0.00    -0.281 N 
ATOM     14  C   UNL     1      16.553  22.828   5.947  0.00  0.00    +0.248 C 
ATOM     30  O   UNL     1      17.393  22.195   6.569  0.00  0.00    -0.270 OA
ATOM     31  H   UNL     1      15.977  23.823   4.251  0.00  0.00    +0.155 HD
BRANCH  14  15
ATOM     15  C   UNL     1      15.171  22.847   6.516  0.00  0.00    +0.037 A 
ATOM     16  C   UNL     1      14.912  22.437   7.898  0.00  0.00    +0.013 A 
ATOM     17  C   UNL     1      13.567  22.448   8.416  0.00  0.00    +0.005 A 
ATOM     18  C   UNL     1      12.470  22.872   7.550  0.00  0.00    -0.033 A 
ATOM     28  C   UNL     1      12.755  23.279   6.184  0.00  0.00    +0.005 A 
ATOM     29  C   UNL     1      14.072  23.268   5.673  0.00  0.00    +0.013 A 
BRANCH  18  19
ATOM     19  C   UNL     1      11.001  22.895   8.012  0.00  0.00    +0.119 C 
BRANCH  19  20
ATOM     20  N   UNL     1      10.279  24.200   7.931  0.00  0.00    -0.302 NA
ATOM     21  C   UNL     1      10.984  25.298   8.732  0.00  0.00    +0.066 C 
ATOM     22  C   UNL     1      10.228  26.661   8.618  0.00  0.00    -0.064 C 
ATOM     23  N   UNL     1       8.786  26.483   9.097  0.00  0.00    +0.379 N 
ATOM     24  C   UNL     1       8.089  27.777   9.045  0.00  0.00    -0.096 C 
ATOM     25  H   UNL     1       8.822  26.160  10.163  0.00  0.00    -0.082 HD
ATOM     26  C   UNL     1       8.078  25.392   8.307  0.00  0.00    -0.064 C 
ATOM     27  C   UNL     1       8.854  24.048   8.403  0.00  0.00    +0.066 C 
ENDBRANCH  19  20
ENDBRANCH  18  19
ENDBRANCH  14  15
ENDBRANCH  12  13
TORSDOF 6
ENDMDL
MODEL 4
REMARK VINA RESULT:      -7.8      4.387     13.886
REMARK  Name = C:\Users\Docking\Desktop\test protocol\1iep_ligandH.pdb
REMARK  8 active torsions:
REMARK  status: ('A' for Active; 'I' for Inactive)
REMARK    1  A    between atoms: _5  and  _11
REMARK    2  A    between atoms: _19  and  _21
REMARK    3  A    between atoms: _22  and  _66
REMARK    4  A    between atoms: _27  and  _30
REMARK    5  A    between atoms: _32  and  _33
REMARK    6  A    between atoms: _38  and  _43
REMARK    7  A    between atoms: _43  and  _46
REMARK    8  A    between atoms: _53  and  _55
REMARK                            x       y       z     vdW  Elec       q    Type
REMARK                         _______ _______ _______ _____ _____    ______ ____
ROOT
ATOM     10  C   UNL     1      18.917  26.544   1.289  0.00  0.00    +0.038 A 
ATOM     11  C   UNL     1      19.601  27.737   1.635  0.00  0.00    +0.047 A 
ATOM     12  C   UNL     1      20.293  28.527   0.628  0.00  0.00    +0.035 A 
ATOM     32  C   UNL     1      20.266  28.072  -0.723  0.00  0.00    +0.024 A 
ATOM     33  C   UNL     1      19.577  26.861  -1.092  0.00  0.00    +0.007 A 
ATOM     34  C   UNL     1      18.894  26.077  -0.102  0.00  0.00    -0.029 A 
ATOM     35  C   UNL     1      18.177  24.783  -0.554  0.00  0.00    +0.045 C 
ENDROOT
BRANCH  10   9
ATOM      4  C   UNL     1      18.922  23.424   4.936  0.00  0.00    +0.077 A 
ATOM      5  C   UNL     1      20.330  23.184   4.807  0.00  0.00    +0.048 A 
ATOM      6  C   UNL     1      21.015  23.879   3.785  0.00  0.00    +0.116 A 
ATOM      7  N   UNL     1      20.333  24.746   2.959  0.00  0.00    -0.223 NA
ATOM      8  C   UNL     1      18.974  24.952   3.110  0.00  0.00    +0.220 A 
ATOM      9  N   UNL     1      18.268  25.826   2.296  0.00  0.00    -0.283 N 
ATOM     36  H   UNL     1      17.265  25.945   2.434  0.00  0.00    +0.155 HD
ATOM     37  N   UNL     1      18.296  24.300   4.077  0.00  0.00    -0.214 NA
BRANCH   4   3
ATOM      1  C   UNL     1      17.683  21.146   7.865  0.00  0.00    +0.020 A 
ATOM      2  C   UNL     1      18.557  21.747   6.884  0.00  0.00    +0.013 A 
ATOM      3  C   UNL     1      18.060  22.768   5.970  0.00  0.00    +0.019 A 
ATOM     38  C   UNL     1      16.663  23.160   6.075  0.00  0.00    +0.120 A 
ATOM     39  N   UNL     1      15.844  22.562   7.028  0.00  0.00    -0.263 NA
ATOM     40  C   UNL     1      16.311  21.578   7.912  0.00  0.00    +0.111 A 
ENDBRANCH   4   3
ENDBRANCH  10   9
BRANCH  12  13
ATOM     13  N   UNL     1      21.011  29.742   0.921  0.00  0.00    -0.281 N 
ATOM     14  C   UNL     1      21.027  30.457   2.107  0.00  0.00    +0.248 C 
ATOM     30  O   UNL     1      20.252  30.274   3.035  0.00  0.00    -0.270 OA
ATOM     31  H   UNL     1      21.577  30.122   0.161  0.00  0.00    +0.155 HD
BRANCH  14  15
ATOM     15  C   UNL     1      22.040  31.542   2.283  0.00  0.00    +0.037 A 
ATOM     16  C   UNL     1      22.475  31.966   3.616  0.00  0.00    +0.013 A 
ATOM     17  C   UNL     1      23.441  33.027   3.759  0.00  0.00    +0.005 A 
ATOM     18  C   UNL     1      23.980  33.669   2.562  0.00  0.00    -0.033 A 
ATOM     28  C   UNL     1      23.535  33.225   1.252  0.00  0.00    +0.005 A 
ATOM     29  C   UNL     1      22.587  32.187   1.109  0.00  0.00    +0.013 A 
BRANCH  18  19
ATOM     19  C   UNL     1      24.998  34.823   2.620  0.00  0.00    +0.119 C 
BRANCH  19  20
ATOM     20  N   UNL     1      24.462  36.198   2.848  0.00  0.00    -0.302 NA
ATOM     21  C   UNL     1      24.833  37.155   1.711  0.00  0.00    +0.066 C 
ATOM     22  C   UNL     1      24.244  38.583   1.955  0.00  0.00    -0.064 C 
ATOM     23  N   UNL     1      24.747  39.116   3.298  0.00  0.00    +0.379 N 
ATOM     24  C   UNL     1      24.243  40.482   3.503  0.00  0.00    -0.096 C 
ATOM     25  H   UNL     1      25.860  39.171   3.244  0.00  0.00    -0.082 HD
ATOM     26  C   UNL     1      24.386  38.169   4.433  0.00  0.00    -0.064 C 
ATOM     27  C   UNL     1      24.950  36.746   4.167  0.00  0.00    +0.066 C 
ENDBRANCH  19  20
ENDBRANCH  18  19
ENDBRANCH  14  15
ENDBRANCH  12  13
TORSDOF 6
ENDMDL
MODEL 5
REMARK VINA RESULT:      -7.8      1.490      2.065
REMARK  Name = C:\Users\Docking\Desktop\test protocol\1iep_ligandH.pdb
REMARK  8 active torsions:
REMARK  status: ('A' for Active; 'I' for Inactive)
REMARK    1  A    between atoms: _5  and  _11
REMARK    2  A    between atoms: _19  and  _21
REMARK    3  A    between atoms: _22  and  _66
REMARK    4  A    between atoms: _27  and  _30
REMARK    5  A    between atoms: _32  and  _33
REMARK    6  A    between atoms: _38  and  _43
REMARK    7  A    between atoms: _43  and  _46
REMARK    8  A    between atoms: _53  and  _55
REMARK                            x       y       z     vdW  Elec       q    Type
REMARK                         _______ _______ _______ _____ _____    ______ ____
ROOT
ATOM     10  C   UNL     1      19.894  25.813   3.784  0.00  0.00    +0.038 A 
ATOM     11  C   UNL     1      18.541  25.739   4.202  0.00  0.00    +0.047 A 
ATOM     12  C   UNL     1      17.813  24.479   4.175  0.00  0.00    +0.035 A 
ATOM     32  C   UNL     1      18.495  23.315   3.718  0.00  0.00    +0.024 A 
ATOM     33  C   UNL     1      19.870  23.372   3.288  0.00  0.00    +0.007 A 
ATOM     34  C   UNL     1      20.593  24.612   3.310  0.00  0.00    -0.029 A 
ATOM     35  C   UNL     1      22.063  24.617   2.831  0.00  0.00    +0.045 C 
ENDROOT
BRANCH  10   9
ATOM      4  C   UNL     1      21.253  29.960   1.786  0.00  0.00    +0.077 A 
ATOM      5  C   UNL     1      20.638  29.627   0.534  0.00  0.00    +0.048 A 
ATOM      6  C   UNL     1      19.988  28.375   0.443  0.00  0.00    +0.116 A 
ATOM      7  N   UNL     1      19.961  27.529   1.530  0.00  0.00    -0.223 NA
ATOM      8  C   UNL     1      20.566  27.881   2.723  0.00  0.00    +0.220 A 
ATOM      9  N   UNL     1      20.545  27.048   3.831  0.00  0.00    -0.283 N 
ATOM     36  H   UNL     1      21.009  27.341   4.691  0.00  0.00    +0.155 HD
ATOM     37  N   UNL     1      21.194  29.069   2.835  0.00  0.00    -0.214 NA
BRANCH   4   3
ATOM      1  C   UNL     1      22.667  33.169   3.520  0.00  0.00    +0.020 A 
ATOM      2  C   UNL     1      21.952  31.928   3.328  0.00  0.00    +0.013 A 
ATOM      3  C   UNL     1      21.975  31.247   2.039  0.00  0.00    +0.019 A 
ATOM     38  C   UNL     1      22.738  31.852   0.958  0.00  0.00    +0.120 A 
ATOM     39  N   UNL     1      23.415  33.049   1.172  0.00  0.00    -0.263 NA
ATOM     40  C   UNL     1      23.399  33.714   2.407  0.00  0.00    +0.111 A 
ENDBRANCH   4   3
ENDBRANCH  10   9
BRANCH  12  13
ATOM     13  N   UNL     1      16.436  24.344   4.580  0.00  0.00    -0.281 N 
ATOM     14  C   UNL     1      15.322  24.188   3.772  0.00  0.00    +0.248 C 
ATOM     30  O   UNL     1      15.317  24.356   2.561  0.00  0.00    -0.270 OA
ATOM     31  H   UNL     1      16.261  24.366   5.585  0.00  0.00    +0.155 HD
BRANCH  14  15
ATOM     15  C   UNL     1      14.021  23.804   4.401  0.00  0.00    +0.037 A 
ATOM     16  C   UNL     1      13.904  22.602   5.230  0.00  0.00    +0.013 A 
ATOM     17  C   UNL     1      12.634  22.245   5.810  0.00  0.00    +0.005 A 
ATOM     18  C   UNL     1      11.470  23.094   5.565  0.00  0.00    -0.033 A 
ATOM     28  C   UNL     1      11.616  24.284   4.743  0.00  0.00    +0.005 A 
ATOM     29  C   UNL     1      12.859  24.636   4.171  0.00  0.00    +0.013 A 
BRANCH  18  19
ATOM     19  C   UNL     1      10.072  22.778   6.127  0.00  0.00    +0.119 C 
BRANCH  19  20
ATOM     20  N   UNL     1       9.818  23.116   7.560  0.00  0.00    -0.302 NA
ATOM     21  C   UNL     1      10.647  24.318   8.021  0.00  0.00    +0.066 C 
ATOM     22  C   UNL     1      10.353  24.672   9.516  0.00  0.00    -0.064 C 
ATOM     23  N   UNL     1      10.636  23.450  10.391  0.00  0.00    +0.379 N 
ATOM     24  C   UNL     1      10.416  23.797  11.803  0.00  0.00    -0.096 C 
ATOM     25  H   UNL     1      11.714  23.191  10.270  0.00  0.00    -0.082 HD
ATOM     26  C   UNL     1       9.818  22.249   9.937  0.00  0.00    -0.064 C 
ATOM     27  C   UNL     1      10.096  21.925   8.443  0.00  0.00    +0.066 C 
ENDBRANCH  19  20
ENDBRANCH  18  19
ENDBRANCH  14  15
ENDBRANCH  12  13
TORSDOF 6
ENDMDL
