MODEL 1
REMARK VINA RESULT:      -8.3      0.000      0.000
REMARK  Name = C:\Users\Docking\Desktop\test protocol\1iep_ligandH.pdb
REMARK  8 active torsions:
REMARK  status: ('A' for Active; 'I' for Inactive)
REMARK    1  A    between atoms: _5  and  _11
REMARK    2  A    between atoms: _19  and  _21
REMARK    3  A    between atoms: _22  and  _66
REMARK    4  A    between atoms: _27  and  _30
REMARK    5  A    between atoms: _32  and  _33
REMARK    6  A    between atoms: _38  and  _43
REMARK    7  A    between atoms: _43  and  _46
REMARK    8  A    between atoms: _53  and  _55
REMARK                            x       y       z     vdW  Elec       q    Type
REMARK                         _______ _______ _______ _____ _____    ______ ____
ROOT
ATOM     10  C   UNL     1      13.042  20.316   8.540  0.00  0.00    +0.038 A 
ATOM     11  C   UNL     1      12.382  19.067   8.406  0.00  0.00    +0.047 A 
ATOM     12  C   UNL     1      13.067  17.819   8.702  0.00  0.00    +0.035 A 
ATOM     32  C   UNL     1      14.424  17.879   9.135  0.00  0.00    +0.024 A 
ATOM     33  C   UNL     1      15.110  19.139   9.276  0.00  0.00    +0.007 A 
ATOM     34  C   UNL     1      14.440  20.374   8.983  0.00  0.00    -0.029 A 
ATOM     35  C   UNL     1      15.227  21.695   9.145  0.00  0.00    +0.045 C 
ENDROOT
BRANCH  10   9
ATOM      4  C   UNL     1      10.159  23.950   9.773  0.00  0.00    +0.077 A 
ATOM      5  C   UNL     1      10.026  23.467  11.117  0.00  0.00    +0.048 A 
ATOM      6  C   UNL     1      10.710  22.275  11.449  0.00  0.00    +0.116 A 
ATOM      7  N   UNL     1      11.468  21.625  10.499  0.00  0.00    -0.223 NA
ATOM      8  C   UNL     1      11.573  22.117   9.211  0.00  0.00    +0.220 A 
ATOM      9  N   UNL     1      12.336  21.484   8.242  0.00  0.00    -0.283 N 
ATOM     36  H   UNL     1      12.382  21.875   7.302  0.00  0.00    +0.155 HD
ATOM     37  N   UNL     1      10.929  23.252   8.869  0.00  0.00    -0.214 NA
BRANCH   4   3
ATOM      1  C   UNL     1       9.521  27.641   8.646  0.00  0.00    +0.020 A 
ATOM      2  C   UNL     1      10.204  26.466   9.137  0.00  0.00    +0.013 A 
ATOM      3  C   UNL     1       9.500  25.197   9.271  0.00  0.00    +0.019 A 
ATOM     38  C   UNL     1       8.095  25.150   8.897  0.00  0.00    +0.120 A 
ATOM     39  N   UNL     1       7.463  26.298   8.429  0.00  0.00    -0.263 NA
ATOM     40  C   UNL     1       8.129  27.525   8.297  0.00  0.00    +0.111 A 
ENDBRANCH   4   3
ENDBRANCH  10   9
BRANCH  12  13
ATOM     13  N   UNL     1      12.452  16.521   8.576  0.00  0.00    -0.281 N 
ATOM     14  C   UNL     1      11.896  15.741   9.577  0.00  0.00    +0.248 C 
ATOM     30  O   UNL     1      12.036  15.950  10.773  0.00  0.00    -0.270 OA
ATOM     31  H   UNL     1      12.422  16.129   7.635  0.00  0.00    +0.155 HD
BRANCH  14  15
ATOM     15  C   UNL     1      11.078  14.550   9.195  0.00  0.00    +0.037 A 
ATOM     16  C   UNL     1      11.286  13.864   7.917  0.00  0.00    +0.013 A 
ATOM     17  C   UNL     1      10.472  12.728   7.565  0.00  0.00    +0.005 A 
ATOM     18  C   UNL     1       9.443  12.269   8.495  0.00  0.00    -0.033 A 
ATOM     28  C   UNL     1       9.262  12.964   9.759  0.00  0.00    +0.005 A 
ATOM     29  C   UNL     1      10.057  14.079  10.106  0.00  0.00    +0.013 A 
BRANCH  18  19
ATOM     19  C   UNL     1       8.515  11.078   8.193  0.00  0.00    +0.119 C 
BRANCH  19  20
ATOM     20  N   UNL     1       7.083  11.384   7.900  0.00  0.00    -0.302 NA
ATOM     21  C   UNL     1       6.130  10.457   8.660  0.00  0.00    +0.066 C 
ATOM     22  C   UNL     1       4.636  10.806   8.359  0.00  0.00    -0.064 C 
ATOM     23  N   UNL     1       4.388  10.720   6.852  0.00  0.00    +0.379 N 
ATOM     24  C   UNL     1       2.971  10.991   6.571  0.00  0.00    -0.096 C 
ATOM     25  H   UNL     1       4.602   9.673   6.533  0.00  0.00    -0.082 HD
ATOM     26  C   UNL     1       5.334  11.637   6.088  0.00  0.00    -0.064 C 
ATOM     27  C   UNL     1       6.815  11.301   6.417  0.00  0.00    +0.066 C 
ENDBRANCH  19  20
ENDBRANCH  18  19
ENDBRANCH  14  15
ENDBRANCH  12  13
TORSDOF 6
ENDMDL
MODEL 2
REMARK VINA RESULT:      -8.3      1.659      2.147
REMARK  Name = C:\Users\Docking\Desktop\test protocol\1iep_ligandH.pdb
REMARK  8 active torsions:
REMARK  status: ('A' for Active; 'I' for Inactive)
REMARK    1  A    between atoms: _5  and  _11
REMARK    2  A    between atoms: _19  and  _21
REMARK    3  A    between atoms: _22  and  _66
REMARK    4  A    between atoms: _27  and  _30
REMARK    5  A    between atoms: _32  and  _33
REMARK    6  A    between atoms: _38  and  _43
REMARK    7  A    between atoms: _43  and  _46
REMARK    8  A    between atoms: _53  and  _55
REMARK                            x       y       z     vdW  Elec       q    Type
REMARK                         _______ _______ _______ _____ _____    ______ ____
ROOT
ATOM     10  C   UNL     1      13.741  20.486   8.517  0.00  0.00    +0.038 A 
ATOM     11  C   UNL     1      13.245  19.212   8.141  0.00  0.00    +0.047 A 
ATOM     12  C   UNL     1      14.010  18.002   8.395  0.00  0.00    +0.035 A 
ATOM     32  C   UNL     1      15.277  18.125   9.036  0.00  0.00    +0.024 A 
ATOM     33  C   UNL     1      15.798  19.413   9.424  0.00  0.00    +0.007 A 
ATOM     34  C   UNL     1      15.048  20.611   9.174  0.00  0.00    -0.029 A 
ATOM     35  C   UNL     1      15.657  21.965   9.606  0.00  0.00    +0.045 C 
ENDROOT
BRANCH  10   9
ATOM      4  C   UNL     1      10.432  23.737   9.752  0.00  0.00    +0.077 A 
ATOM      5  C   UNL     1      10.214  23.117  11.028  0.00  0.00    +0.048 A 
ATOM      6  C   UNL     1      10.969  21.960  11.324  0.00  0.00    +0.116 A 
ATOM      7  N   UNL     1      11.871  21.468  10.407  0.00  0.00    -0.223 NA
ATOM      8  C   UNL     1      12.056  22.089   9.185  0.00  0.00    +0.220 A 
ATOM      9  N   UNL     1      12.964  21.616   8.250  0.00  0.00    -0.283 N 
ATOM     36  H   UNL     1      13.065  22.098   7.357  0.00  0.00    +0.155 HD
ATOM     37  N   UNL     1      11.346  23.194   8.877  0.00  0.00    -0.214 NA
BRANCH   4   3
ATOM      1  C   UNL     1       9.634  27.416   8.692  0.00  0.00    +0.020 A 
ATOM      2  C   UNL     1      10.373  26.258   9.138  0.00  0.00    +0.013 A 
ATOM      3  C   UNL     1       9.714  24.968   9.294  0.00  0.00    +0.019 A 
ATOM     38  C   UNL     1       8.294  24.883   8.988  0.00  0.00    +0.120 A 
ATOM     39  N   UNL     1       7.607  26.015   8.562  0.00  0.00    -0.263 NA
ATOM     40  C   UNL     1       8.231  27.262   8.409  0.00  0.00    +0.111 A 
ENDBRANCH   4   3
ENDBRANCH  10   9
BRANCH  12  13
ATOM     13  N   UNL     1      13.561  16.681   8.029  0.00  0.00    -0.281 N 
ATOM     14  C   UNL     1      12.965  15.729   8.839  0.00  0.00    +0.248 C 
ATOM     30  O   UNL     1      12.920  15.790  10.059  0.00  0.00    -0.270 OA
ATOM     31  H   UNL     1      13.700  16.416   7.053  0.00  0.00    +0.155 HD
BRANCH  14  15
ATOM     15  C   UNL     1      12.340  14.529   8.203  0.00  0.00    +0.037 A 
ATOM     16  C   UNL     1      12.999  13.822   7.103  0.00  0.00    +0.013 A 
ATOM     17  C   UNL     1      12.366  12.677   6.497  0.00  0.00    +0.005 A 
ATOM     18  C   UNL     1      11.065  12.233   6.991  0.00  0.00    -0.033 A 
ATOM     28  C   UNL     1      10.436  12.950   8.087  0.00  0.00    +0.005 A 
ATOM     29  C   UNL     1      11.053  14.073   8.684  0.00  0.00    +0.013 A 
BRANCH  18  19
ATOM     19  C   UNL     1      10.307  11.035   6.390  0.00  0.00    +0.119 C 
BRANCH  19  20
ATOM     20  N   UNL     1       9.209  11.335   5.423  0.00  0.00    -0.302 NA
ATOM     21  C   UNL     1       9.477  12.618   4.631  0.00  0.00    +0.066 C 
ATOM     22  C   UNL     1       8.329  12.906   3.609  0.00  0.00    -0.064 C 
ATOM     23  N   UNL     1       6.997  12.998   4.355  0.00  0.00    +0.379 N 
ATOM     24  C   UNL     1       5.924  13.326   3.404  0.00  0.00    -0.096 C 
ATOM     25  H   UNL     1       7.074  13.840   5.081  0.00  0.00    -0.082 HD
ATOM     26  C   UNL     1       6.724  11.728   5.148  0.00  0.00    -0.064 C 
ATOM     27  C   UNL     1       7.885  11.435   6.139  0.00  0.00    +0.066 C 
ENDBRANCH  19  20
ENDBRANCH  18  19
ENDBRANCH  14  15
ENDBRANCH  12  13
TORSDOF 6
ENDMDL
MODEL 3
REMARK VINA RESULT:      -8.3      8.644     11.699
REMARK  Name = C:\Users\Docking\Desktop\test protocol\1iep_ligandH.pdb
REMARK  8 active torsions:
REMARK  status: ('A' for Active; 'I' for Inactive)
REMARK    1  A    between atoms: _5  and  _11
REMARK    2  A    between atoms: _19  and  _21
REMARK    3  A    between atoms: _22  and  _66
REMARK    4  A    between atoms: _27  and  _30
REMARK    5  A    between atoms: _32  and  _33
REMARK    6  A    between atoms: _38  and  _43
REMARK    7  A    between atoms: _43  and  _46
REMARK    8  A    between atoms: _53  and  _55
REMARK                            x       y       z     vdW  Elec       q    Type
REMARK                         _______ _______ _______ _____ _____    ______ ____
ROOT
ATOM     10  C   UNL     1      19.717  25.288   4.255  0.00  0.00    +0.038 A 
ATOM     11  C   UNL     1      18.391  25.126   4.728  0.00  0.00    +0.047 A 
ATOM     12  C   UNL     1      17.771  23.812   4.797  0.00  0.00    +0.035 A 
ATOM     32  C   UNL     1      18.534  22.683   4.377  0.00  0.00    +0.024 A 
ATOM     33  C   UNL     1      19.883  22.830   3.891  0.00  0.00    +0.007 A 
ATOM     34  C   UNL     1      20.499  24.124   3.819  0.00  0.00    -0.029 A 
ATOM     35  C   UNL     1      21.946  24.223   3.284  0.00  0.00    +0.045 C 
ENDROOT
BRANCH  10   9
ATOM      4  C   UNL     1      20.807  29.346   1.934  0.00  0.00    +0.077 A 
ATOM      5  C   UNL     1      20.269  28.854   0.699  0.00  0.00    +0.048 A 
ATOM      6  C   UNL     1      19.728  27.549   0.701  0.00  0.00    +0.116 A 
ATOM      7  N   UNL     1      19.729  26.801   1.858  0.00  0.00    -0.223 NA
ATOM      8  C   UNL     1      20.258  27.305   3.033  0.00  0.00    +0.220 A 
ATOM      9  N   UNL     1      20.263  26.573   4.210  0.00  0.00    -0.283 N 
ATOM     36  H   UNL     1      20.669  26.978   5.054  0.00  0.00    +0.155 HD
ATOM     37  N   UNL     1      20.782  28.548   3.056  0.00  0.00    -0.214 NA
BRANCH   4   3
ATOM      1  C   UNL     1      21.860  32.815   3.402  0.00  0.00    +0.020 A 
ATOM      2  C   UNL     1      21.256  31.507   3.300  0.00  0.00    +0.013 A 
ATOM      3  C   UNL     1      21.411  30.707   2.092  0.00  0.00    +0.019 A 
ATOM     38  C   UNL     1      22.191  31.263   0.997  0.00  0.00    +0.120 A 
ATOM     39  N   UNL     1      22.760  32.527   1.123  0.00  0.00    -0.263 NA
ATOM     40  C   UNL     1      22.616  33.307   2.280  0.00  0.00    +0.111 A 
ENDBRANCH   4   3
ENDBRANCH  10   9
BRANCH  12  13
ATOM     13  N   UNL     1      16.425  23.587   5.261  0.00  0.00    -0.281 N 
ATOM     14  C   UNL     1      15.483  22.709   4.750  0.00  0.00    +0.248 C 
ATOM     30  O   UNL     1      15.585  22.135   3.676  0.00  0.00    -0.270 OA
ATOM     31  H   UNL     1      16.130  24.142   6.065  0.00  0.00    +0.155 HD
BRANCH  14  15
ATOM     15  C   UNL     1      14.242  22.441   5.539  0.00  0.00    +0.037 A 
ATOM     16  C   UNL     1      13.164  21.609   5.000  0.00  0.00    +0.013 A 
ATOM     17  C   UNL     1      11.970  21.381   5.774  0.00  0.00    +0.005 A 
ATOM     18  C   UNL     1      11.849  21.986   7.099  0.00  0.00    -0.033 A 
ATOM     28  C   UNL     1      12.936  22.803   7.612  0.00  0.00    +0.005 A 
ATOM     29  C   UNL     1      14.108  23.029   6.854  0.00  0.00    +0.013 A 
BRANCH  18  19
ATOM     19  C   UNL     1      10.602  21.813   7.987  0.00  0.00    +0.119 C 
BRANCH  19  20
ATOM     20  N   UNL     1      10.764  21.031   9.249  0.00  0.00    -0.302 NA
ATOM     21  C   UNL     1      11.134  19.570   8.976  0.00  0.00    +0.066 C 
ATOM     22  C   UNL     1      11.322  18.773  10.307  0.00  0.00    -0.064 C 
ATOM     23  N   UNL     1      10.039  18.861  11.137  0.00  0.00    +0.379 N 
ATOM     24  C   UNL     1      10.192  18.064  12.363  0.00  0.00    -0.096 C 
ATOM     25  H   UNL     1       9.217  18.406  10.537  0.00  0.00    -0.082 HD
ATOM     26  C   UNL     1       9.663  20.311  11.410  0.00  0.00    -0.064 C 
ATOM     27  C   UNL     1       9.508  21.102  10.081  0.00  0.00    +0.066 C 
ENDBRANCH  19  20
ENDBRANCH  18  19
ENDBRANCH  14  15
ENDBRANCH  12  13
TORSDOF 6
ENDMDL
MODEL 4
REMARK VINA RESULT:      -8.1      4.809     12.172
REMARK  Name = C:\Users\Docking\Desktop\test protocol\1iep_ligandH.pdb
REMARK  8 active torsions:
REMARK  status: ('A' for Active; 'I' for Inactive)
REMARK    1  A    between atoms: _5  and  _11
REMARK    2  A    between atoms: _19  and  _21
REMARK    3  A    between atoms: _22  and  _66
REMARK    4  A    between atoms: _27  and  _30
REMARK    5  A    between atoms: _32  and  _33
REMARK    6  A    between atoms: _38  and  _43
REMARK    7  A    between atoms: _43  and  _46
REMARK    8  A    between atoms: _53  and  _55
REMARK                            x       y       z     vdW  Elec       q    Type
REMARK                         _______ _______ _______ _____ _____    ______ ____
ROOT
ATOM     10  C   UNL     1       7.456  15.697  11.502  0.00  0.00    +0.038 A 
ATOM     11  C   UNL     1       7.394  17.092  11.253  0.00  0.00    +0.047 A 
ATOM     12  C   UNL     1       8.600  17.868  11.013  0.00  0.00    +0.035 A 
ATOM     32  C   UNL     1       9.854  17.190  11.029  0.00  0.00    +0.024 A 
ATOM     33  C   UNL     1       9.936  15.772  11.281  0.00  0.00    +0.007 A 
ATOM     34  C   UNL     1       8.749  15.002  11.522  0.00  0.00    -0.029 A 
ATOM     35  C   UNL     1       8.896  13.487  11.792  0.00  0.00    +0.045 C 
ENDROOT
BRANCH  10   9
ATOM      4  C   UNL     1       3.768  14.408  14.290  0.00  0.00    +0.077 A 
ATOM      5  C   UNL     1       4.268  15.164  15.402  0.00  0.00    +0.048 A 
ATOM      6  C   UNL     1       5.481  15.864  15.218  0.00  0.00    +0.116 A 
ATOM      7  N   UNL     1       6.137  15.806  14.007  0.00  0.00    -0.223 NA
ATOM      8  C   UNL     1       5.628  15.067  12.955  0.00  0.00    +0.220 A 
ATOM      9  N   UNL     1       6.266  15.001  11.726  0.00  0.00    -0.283 N 
ATOM     36  H   UNL     1       5.862  14.438  10.978  0.00  0.00    +0.155 HD
ATOM     37  N   UNL     1       4.471  14.388  13.107  0.00  0.00    -0.214 NA
BRANCH   4   3
ATOM      1  C   UNL     1       0.796  12.068  13.296  0.00  0.00    +0.020 A 
ATOM      2  C   UNL     1       2.030  12.813  13.207  0.00  0.00    +0.013 A 
ATOM      3  C   UNL     1       2.497  13.618  14.328  0.00  0.00    +0.019 A 
ATOM     38  C   UNL     1       1.684  13.648  15.535  0.00  0.00    +0.120 A 
ATOM     39  N   UNL     1       0.499  12.921  15.592  0.00  0.00    -0.263 NA
ATOM     40  C   UNL     1       0.039  12.144  14.518  0.00  0.00    +0.111 A 
ENDBRANCH   4   3
ENDBRANCH  10   9
BRANCH  12  13
ATOM     13  N   UNL     1       8.600  19.288  10.763  0.00  0.00    -0.281 N 
ATOM     14  C   UNL     1       9.251  20.279  11.480  0.00  0.00    +0.248 C 
ATOM     30  O   UNL     1       9.762  20.115  12.578  0.00  0.00    -0.270 OA
ATOM     31  H   UNL     1       8.054  19.601   9.961  0.00  0.00    +0.155 HD
BRANCH  14  15
ATOM     15  C   UNL     1       9.333  21.654  10.900  0.00  0.00    +0.037 A 
ATOM     16  C   UNL     1      10.483  22.522  11.164  0.00  0.00    +0.013 A 
ATOM     17  C   UNL     1      10.529  23.851  10.606  0.00  0.00    +0.005 A 
ATOM     18  C   UNL     1       9.421  24.318   9.777  0.00  0.00    -0.033 A 
ATOM     28  C   UNL     1       8.295  23.434   9.528  0.00  0.00    +0.005 A 
ATOM     29  C   UNL     1       8.246  22.132  10.073  0.00  0.00    +0.013 A 
BRANCH  18  19
ATOM     19  C   UNL     1       9.376  25.728   9.159  0.00  0.00    +0.119 C 
BRANCH  19  20
ATOM     20  N   UNL     1       8.748  25.863   7.811  0.00  0.00    -0.302 NA
ATOM     21  C   UNL     1       9.700  25.440   6.688  0.00  0.00    +0.066 C 
ATOM     22  C   UNL     1       9.019  25.567   5.287  0.00  0.00    -0.064 C 
ATOM     23  N   UNL     1       8.545  27.007   5.081  0.00  0.00    +0.379 N 
ATOM     24  C   UNL     1       7.957  27.143   3.741  0.00  0.00    -0.096 C 
ATOM     25  H   UNL     1       9.442  27.667   5.125  0.00  0.00    -0.082 HD
ATOM     26  C   UNL     1       7.601  27.437   6.194  0.00  0.00    -0.064 C 
ATOM     27  C   UNL     1       8.277  27.279   7.585  0.00  0.00    +0.066 C 
ENDBRANCH  19  20
ENDBRANCH  18  19
ENDBRANCH  14  15
ENDBRANCH  12  13
TORSDOF 6
ENDMDL
MODEL 5
REMARK VINA RESULT:      -8.0      4.676     12.335
REMARK  Name = C:\Users\Docking\Desktop\test protocol\1iep_ligandH.pdb
REMARK  8 active torsions:
REMARK  status: ('A' for Active; 'I' for Inactive)
REMARK    1  A    between atoms: _5  and  _11
REMARK    2  A    between atoms: _19  and  _21
REMARK    3  A    between atoms: _22  and  _66
REMARK    4  A    between atoms: _27  and  _30
REMARK    5  A    between atoms: _32  and  _33
REMARK    6  A    between atoms: _38  and  _43
REMARK    7  A    between atoms: _43  and  _46
REMARK    8  A    between atoms: _53  and  _55
REMARK                            x       y       z     vdW  Elec       q    Type
REMARK                         _______ _______ _______ _____ _____    ______ ____
ROOT
ATOM     10  C   UNL     1       9.365  20.280   9.434  0.00  0.00    +0.038 A 
ATOM     11  C   UNL     1      10.624  20.532   8.833  0.00  0.00    +0.047 A 
ATOM     12  C   UNL     1      11.174  21.878   8.773  0.00  0.00    +0.035 A 
ATOM     32  C   UNL     1      10.414  22.944   9.337  0.00  0.00    +0.024 A 
ATOM     33  C   UNL     1       9.132  22.706   9.951  0.00  0.00    +0.007 A 
ATOM     34  C   UNL     1       8.583  21.381  10.011  0.00  0.00    -0.029 A 
ATOM     35  C   UNL     1       7.201  21.186  10.676  0.00  0.00    +0.045 C 
ENDROOT
BRANCH  10   9
ATOM      4  C   UNL     1       8.827  16.019  11.576  0.00  0.00    +0.077 A 
ATOM      5  C   UNL     1       9.589  16.431  12.720  0.00  0.00    +0.048 A 
ATOM      6  C   UNL     1      10.108  17.745  12.714  0.00  0.00    +0.116 A 
ATOM      7  N   UNL     1       9.875  18.577  11.640  0.00  0.00    -0.223 NA
ATOM      8  C   UNL     1       9.138  18.147  10.552  0.00  0.00    +0.220 A 
ATOM      9  N   UNL     1       8.885  18.969   9.465  0.00  0.00    -0.283 N 
ATOM     36  H   UNL     1       8.343  18.612   8.678  0.00  0.00    +0.155 HD
ATOM     37  N   UNL     1       8.633  16.896  10.533  0.00  0.00    -0.214 NA
BRANCH   4   3
ATOM      1  C   UNL     1       8.190  12.295  10.562  0.00  0.00    +0.020 A 
ATOM      2  C   UNL     1       8.826  13.588  10.666  0.00  0.00    +0.013 A 
ATOM      3  C   UNL     1       8.211  14.662  11.435  0.00  0.00    +0.019 A 
ATOM     38  C   UNL     1       6.941  14.392  12.093  0.00  0.00    +0.120 A 
ATOM     39  N   UNL     1       6.350  13.138  11.973  0.00  0.00    -0.263 NA
ATOM     40  C   UNL     1       6.933  12.098  11.234  0.00  0.00    +0.111 A 
ENDBRANCH   4   3
ENDBRANCH  10   9
BRANCH  12  13
ATOM     13  N   UNL     1      12.444  22.195   8.168  0.00  0.00    -0.281 N 
ATOM     14  C   UNL     1      13.709  21.842   8.608  0.00  0.00    +0.248 C 
ATOM     30  O   UNL     1      13.952  21.377   9.712  0.00  0.00    -0.270 OA
ATOM     31  H   UNL     1      12.405  22.747   7.311  0.00  0.00    +0.155 HD
BRANCH  14  15
ATOM     15  C   UNL     1      14.875  22.048   7.696  0.00  0.00    +0.037 A 
ATOM     16  C   UNL     1      16.220  21.606   8.071  0.00  0.00    +0.013 A 
ATOM     17  C   UNL     1      17.330  21.832   7.179  0.00  0.00    +0.005 A 
ATOM     18  C   UNL     1      17.098  22.503   5.903  0.00  0.00    -0.033 A 
ATOM     28  C   UNL     1      15.752  22.926   5.554  0.00  0.00    +0.005 A 
ATOM     29  C   UNL     1      14.662  22.707   6.425  0.00  0.00    +0.013 A 
BRANCH  18  19
ATOM     19  C   UNL     1      18.227  22.805   4.899  0.00  0.00    +0.119 C 
BRANCH  19  20
ATOM     20  N   UNL     1      18.414  24.228   4.488  0.00  0.00    -0.302 NA
ATOM     21  C   UNL     1      18.037  24.457   3.021  0.00  0.00    +0.066 C 
ATOM     22  C   UNL     1      18.217  25.955   2.614  0.00  0.00    -0.064 C 
ATOM     23  N   UNL     1      19.663  26.382   2.874  0.00  0.00    +0.379 N 
ATOM     24  C   UNL     1      19.850  27.773   2.439  0.00  0.00    -0.096 C 
ATOM     25  H   UNL     1      20.323  25.739   2.247  0.00  0.00    -0.082 HD
ATOM     26  C   UNL     1      20.046  26.156   4.330  0.00  0.00    -0.064 C 
ATOM     27  C   UNL     1      19.836  24.669   4.733  0.00  0.00    +0.066 C 
ENDBRANCH  19  20
ENDBRANCH  18  19
ENDBRANCH  14  15
ENDBRANCH  12  13
TORSDOF 6
ENDMDL
