MODEL 1
REMARK VINA RESULT:      -7.4      0.000      0.000
REMARK  Name = C:\Users\Docking\Desktop\test protocol\1iep_ligandH.pdb
REMARK  8 active torsions:
REMARK  status: ('A' for Active; 'I' for Inactive)
REMARK    1  A    between atoms: _5  and  _11
REMARK    2  A    between atoms: _19  and  _21
REMARK    3  A    between atoms: _22  and  _66
REMARK    4  A    between atoms: _27  and  _30
REMARK    5  A    between atoms: _32  and  _33
REMARK    6  A    between atoms: _38  and  _43
REMARK    7  A    between atoms: _43  and  _46
REMARK    8  A    between atoms: _53  and  _55
REMARK                            x       y       z     vdW  Elec       q    Type
REMARK                         _______ _______ _______ _____ _____    ______ ____
ROOT
ATOM     10  C   UNL     1      19.482 116.540   3.001  0.00  0.00    +0.038 A 
ATOM     11  C   UNL     1      20.823 116.573   3.461  0.00  0.00    +0.047 A 
ATOM     12  C   UNL     1      21.929 116.804   2.544  0.00  0.00    +0.035 A 
ATOM     32  C   UNL     1      21.631 117.002   1.164  0.00  0.00    +0.024 A 
ATOM     33  C   UNL     1      20.274 116.970   0.679  0.00  0.00    +0.007 A 
ATOM     34  C   UNL     1      19.180 116.740   1.578  0.00  0.00    -0.029 A 
ATOM     35  C   UNL     1      17.746 116.710   1.001  0.00  0.00    +0.045 C 
ENDROOT
BRANCH  10   9
ATOM      4  C   UNL     1      17.046 113.699   6.006  0.00  0.00    +0.077 A 
ATOM      5  C   UNL     1      17.862 112.563   5.688  0.00  0.00    +0.048 A 
ATOM      6  C   UNL     1      18.893 112.750   4.740  0.00  0.00    +0.116 A 
ATOM      7  N   UNL     1      19.086 113.986   4.161  0.00  0.00    -0.223 NA
ATOM      8  C   UNL     1      18.280 115.060   4.489  0.00  0.00    +0.220 A 
ATOM      9  N   UNL     1      18.460 116.314   3.925  0.00  0.00    -0.283 N 
ATOM     36  H   UNL     1      17.840 117.079   4.188  0.00  0.00    +0.155 HD
ATOM     37  N   UNL     1      17.287 114.907   5.390  0.00  0.00    -0.214 NA
BRANCH   4   3
ATOM      1  C   UNL     1      14.818 114.339   9.157  0.00  0.00    +0.020 A 
ATOM      2  C   UNL     1      15.933 114.410   8.241  0.00  0.00    +0.013 A 
ATOM      3  C   UNL     1      15.919 113.662   6.990  0.00  0.00    +0.019 A 
ATOM     38  C   UNL     1      14.751 112.845   6.694  0.00  0.00    +0.120 A 
ATOM     39  N   UNL     1      13.693 112.795   7.596  0.00  0.00    -0.263 NA
ATOM     40  C   UNL     1      13.696 113.510   8.803  0.00  0.00    +0.111 A 
ENDBRANCH   4   3
ENDBRANCH  10   9
BRANCH  12  13
ATOM     13  N   UNL     1      23.311 116.840   2.953  0.00  0.00    -0.281 N 
ATOM     14  C   UNL     1      24.196 115.780   3.058  0.00  0.00    +0.248 C 
ATOM     30  O   UNL     1      23.871 114.602   3.022  0.00  0.00    -0.270 OA
ATOM     31  H   UNL     1      23.682 117.760   3.193  0.00  0.00    +0.155 HD
BRANCH  14  15
ATOM     15  C   UNL     1      25.650 116.069   3.245  0.00  0.00    +0.037 A 
ATOM     16  C   UNL     1      26.229 116.217   4.583  0.00  0.00    +0.013 A 
ATOM     17  C   UNL     1      27.632 116.512   4.735  0.00  0.00    +0.005 A 
ATOM     18  C   UNL     1      28.466 116.660   3.545  0.00  0.00    -0.033 A 
ATOM     28  C   UNL     1      27.866 116.503   2.230  0.00  0.00    +0.005 A 
ATOM     29  C   UNL     1      26.492 116.214   2.077  0.00  0.00    +0.013 A 
BRANCH  18  19
ATOM     19  C   UNL     1      29.968 116.996   3.612  0.00  0.00    +0.119 C 
BRANCH  19  20
ATOM     20  N   UNL     1      30.557 117.223   4.965  0.00  0.00    -0.302 NA
ATOM     21  C   UNL     1      31.380 118.514   5.024  0.00  0.00    +0.066 C 
ATOM     22  C   UNL     1      31.971 118.748   6.452  0.00  0.00    -0.064 C 
ATOM     23  N   UNL     1      32.824 117.543   6.851  0.00  0.00    +0.379 N 
ATOM     24  C   UNL     1      33.428 117.785   8.170  0.00  0.00    -0.096 C 
ATOM     25  H   UNL     1      33.653 117.455   6.110  0.00  0.00    -0.082 HD
ATOM     26  C   UNL     1      32.015 116.255   6.793  0.00  0.00    -0.064 C 
ATOM     27  C   UNL     1      31.408 116.047   5.377  0.00  0.00    +0.066 C 
ENDBRANCH  19  20
ENDBRANCH  18  19
ENDBRANCH  14  15
ENDBRANCH  12  13
TORSDOF 6
ENDMDL
MODEL 2
REMARK VINA RESULT:      -6.8      8.734     14.786
REMARK  Name = C:\Users\Docking\Desktop\test protocol\1iep_ligandH.pdb
REMARK  8 active torsions:
REMARK  status: ('A' for Active; 'I' for Inactive)
REMARK    1  A    between atoms: _5  and  _11
REMARK    2  A    between atoms: _19  and  _21
REMARK    3  A    between atoms: _22  and  _66
REMARK    4  A    between atoms: _27  and  _30
REMARK    5  A    between atoms: _32  and  _33
REMARK    6  A    between atoms: _38  and  _43
REMARK    7  A    between atoms: _43  and  _46
REMARK    8  A    between atoms: _53  and  _55
REMARK                            x       y       z     vdW  Elec       q    Type
REMARK                         _______ _______ _______ _____ _____    ______ ____
ROOT
ATOM     10  C   UNL     1      10.290 114.029  14.486  0.00  0.00    +0.038 A 
ATOM     11  C   UNL     1      11.402 114.172  13.618  0.00  0.00    +0.047 A 
ATOM     12  C   UNL     1      11.303 113.836  12.206  0.00  0.00    +0.035 A 
ATOM     32  C   UNL     1      10.054 113.359  11.711  0.00  0.00    +0.024 A 
ATOM     33  C   UNL     1       8.913 113.207  12.580  0.00  0.00    +0.007 A 
ATOM     34  C   UNL     1       9.006 113.534  13.974  0.00  0.00    -0.029 A 
ATOM     35  C   UNL     1       7.753 113.345  14.860  0.00  0.00    +0.045 C 
ENDROOT
BRANCH  10   9
ATOM      4  C   UNL     1      11.654 113.017  18.976  0.00  0.00    +0.077 A 
ATOM      5  C   UNL     1      12.076 111.695  18.612  0.00  0.00    +0.048 A 
ATOM      6  C   UNL     1      11.919 111.312  17.262  0.00  0.00    +0.116 A 
ATOM      7  N   UNL     1      11.378 112.193  16.350  0.00  0.00    -0.223 NA
ATOM      8  C   UNL     1      10.980 113.461  16.734  0.00  0.00    +0.220 A 
ATOM      9  N   UNL     1      10.441 114.366  15.833  0.00  0.00    -0.283 N 
ATOM     36  H   UNL     1      10.153 115.289  16.157  0.00  0.00    +0.155 HD
ATOM     37  N   UNL     1      11.118 113.850  18.019  0.00  0.00    -0.214 NA
BRANCH   4   3
ATOM      1  C   UNL     1      10.764 114.591  22.444  0.00  0.00    +0.020 A 
ATOM      2  C   UNL     1      10.609 114.068  21.106  0.00  0.00    +0.013 A 
ATOM      3  C   UNL     1      11.759 113.570  20.363  0.00  0.00    +0.019 A 
ATOM     38  C   UNL     1      13.063 113.615  21.007  0.00  0.00    +0.120 A 
ATOM     39  N   UNL     1      13.183 114.126  22.296  0.00  0.00    -0.263 NA
ATOM     40  C   UNL     1      12.083 114.610  23.020  0.00  0.00    +0.111 A 
ENDBRANCH   4   3
ENDBRANCH  10   9
BRANCH  12  13
ATOM     13  N   UNL     1      12.401 113.953  11.279  0.00  0.00    -0.281 N 
ATOM     14  C   UNL     1      13.095 112.933  10.648  0.00  0.00    +0.248 C 
ATOM     30  O   UNL     1      13.016 111.752  10.952  0.00  0.00    -0.270 OA
ATOM     31  H   UNL     1      12.702 114.902  11.060  0.00  0.00    +0.155 HD
BRANCH  14  15
ATOM     15  C   UNL     1      14.022 113.277   9.527  0.00  0.00    +0.037 A 
ATOM     16  C   UNL     1      13.980 112.549   8.256  0.00  0.00    +0.013 A 
ATOM     17  C   UNL     1      14.897 112.889   7.197  0.00  0.00    +0.005 A 
ATOM     18  C   UNL     1      15.863 113.965   7.405  0.00  0.00    -0.033 A 
ATOM     28  C   UNL     1      15.879 114.674   8.673  0.00  0.00    +0.005 A 
ATOM     29  C   UNL     1      14.983 114.342   9.714  0.00  0.00    +0.013 A 
BRANCH  18  19
ATOM     19  C   UNL     1      16.893 114.381   6.338  0.00  0.00    +0.119 C 
BRANCH  19  20
ATOM     20  N   UNL     1      16.610 113.989   4.925  0.00  0.00    -0.302 NA
ATOM     21  C   UNL     1      17.846 113.410   4.231  0.00  0.00    +0.066 C 
ATOM     22  C   UNL     1      17.527 112.984   2.761  0.00  0.00    -0.064 C 
ATOM     23  N   UNL     1      16.989 114.190   1.989  0.00  0.00    +0.379 N 
ATOM     24  C   UNL     1      16.742 113.807   0.591  0.00  0.00    -0.096 C 
ATOM     25  H   UNL     1      17.782 114.973   1.991  0.00  0.00    -0.082 HD
ATOM     26  C   UNL     1      15.761 114.774   2.674  0.00  0.00    -0.064 C 
ATOM     27  C   UNL     1      16.081 115.166   4.143  0.00  0.00    +0.066 C 
ENDBRANCH  19  20
ENDBRANCH  18  19
ENDBRANCH  14  15
ENDBRANCH  12  13
TORSDOF 6
ENDMDL
MODEL 3
REMARK VINA RESULT:      -6.5     28.752     32.193
REMARK  Name = C:\Users\Docking\Desktop\test protocol\1iep_ligandH.pdb
REMARK  8 active torsions:
REMARK  status: ('A' for Active; 'I' for Inactive)
REMARK    1  A    between atoms: _5  and  _11
REMARK    2  A    between atoms: _19  and  _21
REMARK    3  A    between atoms: _22  and  _66
REMARK    4  A    between atoms: _27  and  _30
REMARK    5  A    between atoms: _32  and  _33
REMARK    6  A    between atoms: _38  and  _43
REMARK    7  A    between atoms: _43  and  _46
REMARK    8  A    between atoms: _53  and  _55
REMARK                            x       y       z     vdW  Elec       q    Type
REMARK                         _______ _______ _______ _____ _____    ______ ____
ROOT
ATOM     10  C   UNL     1      42.085 130.658  19.907  0.00  0.00    +0.038 A 
ATOM     11  C   UNL     1      41.374 131.187  21.015  0.00  0.00    +0.047 A 
ATOM     12  C   UNL     1      41.499 130.598  22.339  0.00  0.00    +0.035 A 
ATOM     32  C   UNL     1      42.359 129.473  22.500  0.00  0.00    +0.024 A 
ATOM     33  C   UNL     1      43.089 128.923  21.385  0.00  0.00    +0.007 A 
ATOM     34  C   UNL     1      42.968 129.498  20.075  0.00  0.00    -0.029 A 
ATOM     35  C   UNL     1      43.768 128.862  18.915  0.00  0.00    +0.045 C 
ENDROOT
BRANCH  10   9
ATOM      4  C   UNL     1      43.155 134.046  16.679  0.00  0.00    +0.077 A 
ATOM      5  C   UNL     1      44.086 134.681  17.567  0.00  0.00    +0.048 A 
ATOM      6  C   UNL     1      44.255 134.109  18.848  0.00  0.00    +0.116 A 
ATOM      7  N   UNL     1      43.542 132.985  19.203  0.00  0.00    -0.223 NA
ATOM      8  C   UNL     1      42.650 132.398  18.324  0.00  0.00    +0.220 A 
ATOM      9  N   UNL     1      41.928 131.263  18.658  0.00  0.00    -0.283 N 
ATOM     36  H   UNL     1      41.275 130.865  17.984  0.00  0.00    +0.155 HD
ATOM     37  N   UNL     1      42.469 132.926  17.096  0.00  0.00    -0.214 NA
BRANCH   4   3
ATOM      1  C   UNL     1      42.215 134.158  12.884  0.00  0.00    +0.020 A 
ATOM      2  C   UNL     1      42.481 133.639  14.206  0.00  0.00    +0.013 A 
ATOM      3  C   UNL     1      42.869 134.530  15.292  0.00  0.00    +0.019 A 
ATOM     38  C   UNL     1      42.979 135.953  15.005  0.00  0.00    +0.120 A 
ATOM     39  N   UNL     1      42.718 136.423  13.722  0.00  0.00    -0.263 NA
ATOM     40  C   UNL     1      42.346 135.575  12.668  0.00  0.00    +0.111 A 
ENDBRANCH   4   3
ENDBRANCH  10   9
BRANCH  12  13
ATOM     13  N   UNL     1      40.795 131.086  23.499  0.00  0.00    -0.281 N 
ATOM     14  C   UNL     1      41.262 131.949  24.477  0.00  0.00    +0.248 C 
ATOM     30  O   UNL     1      42.434 132.266  24.617  0.00  0.00    -0.270 OA
ATOM     31  H   UNL     1      39.837 130.755  23.613  0.00  0.00    +0.155 HD
BRANCH  14  15
ATOM     15  C   UNL     1      40.288 132.533  25.449  0.00  0.00    +0.037 A 
ATOM     16  C   UNL     1      40.275 133.969  25.742  0.00  0.00    +0.013 A 
ATOM     17  C   UNL     1      39.336 134.503  26.696  0.00  0.00    +0.005 A 
ATOM     18  C   UNL     1      38.401 133.601  27.364  0.00  0.00    -0.033 A 
ATOM     28  C   UNL     1      38.432 132.182  27.050  0.00  0.00    +0.005 A 
ATOM     29  C   UNL     1      39.351 131.654  26.116  0.00  0.00    +0.013 A 
BRANCH  18  19
ATOM     19  C   UNL     1      37.379 134.081  28.412  0.00  0.00    +0.119 C 
BRANCH  19  20
ATOM     20  N   UNL     1      35.932 133.936  28.072  0.00  0.00    -0.302 NA
ATOM     21  C   UNL     1      35.201 135.281  28.084  0.00  0.00    +0.066 C 
ATOM     22  C   UNL     1      33.694 135.113  27.705  0.00  0.00    -0.064 C 
ATOM     23  N   UNL     1      33.034 134.130  28.673  0.00  0.00    +0.379 N 
ATOM     24  C   UNL     1      31.603 134.014  28.355  0.00  0.00    -0.096 C 
ATOM     25  H   UNL     1      33.119 134.557  29.699  0.00  0.00    -0.082 HD
ATOM     26  C   UNL     1      33.756 132.790  28.669  0.00  0.00    -0.064 C 
ATOM     27  C   UNL     1      35.260 132.972  29.018  0.00  0.00    +0.066 C 
ENDBRANCH  19  20
ENDBRANCH  18  19
ENDBRANCH  14  15
ENDBRANCH  12  13
TORSDOF 6
ENDMDL
MODEL 4
REMARK VINA RESULT:      -6.2     18.036     20.415
REMARK  Name = C:\Users\Docking\Desktop\test protocol\1iep_ligandH.pdb
REMARK  8 active torsions:
REMARK  status: ('A' for Active; 'I' for Inactive)
REMARK    1  A    between atoms: _5  and  _11
REMARK    2  A    between atoms: _19  and  _21
REMARK    3  A    between atoms: _22  and  _66
REMARK    4  A    between atoms: _27  and  _30
REMARK    5  A    between atoms: _32  and  _33
REMARK    6  A    between atoms: _38  and  _43
REMARK    7  A    between atoms: _43  and  _46
REMARK    8  A    between atoms: _53  and  _55
REMARK                            x       y       z     vdW  Elec       q    Type
REMARK                         _______ _______ _______ _____ _____    ______ ____
ROOT
ATOM     10  C   UNL     1      26.165 107.326  21.242  0.00  0.00    +0.038 A 
ATOM     11  C   UNL     1      26.240 108.644  21.761  0.00  0.00    +0.047 A 
ATOM     12  C   UNL     1      26.773 108.901  23.089  0.00  0.00    +0.035 A 
ATOM     32  C   UNL     1      27.225 107.792  23.862  0.00  0.00    +0.024 A 
ATOM     33  C   UNL     1      27.156 106.445  23.351  0.00  0.00    +0.007 A 
ATOM     34  C   UNL     1      26.628 106.186  22.042  0.00  0.00    -0.029 A 
ATOM     35  C   UNL     1      26.571 104.722  21.548  0.00  0.00    +0.045 C 
ENDROOT
BRANCH  10   9
ATOM      4  C   UNL     1      22.510 106.533  18.234  0.00  0.00    +0.077 A 
ATOM      5  C   UNL     1      21.563 106.462  19.310  0.00  0.00    +0.048 A 
ATOM      6  C   UNL     1      22.058 106.627  20.623  0.00  0.00    +0.116 A 
ATOM      7  N   UNL     1      23.402 106.848  20.832  0.00  0.00    -0.223 NA
ATOM      8  C   UNL     1      24.289 106.909  19.773  0.00  0.00    +0.220 A 
ATOM      9  N   UNL     1      25.643 107.138  19.960  0.00  0.00    -0.283 N 
ATOM     36  H   UNL     1      26.266 107.168  19.153  0.00  0.00    +0.155 HD
ATOM     37  N   UNL     1      23.841 106.752  18.510  0.00  0.00    -0.214 NA
BRANCH   4   3
ATOM      1  C   UNL     1      21.443 107.310  14.552  0.00  0.00    +0.020 A 
ATOM      2  C   UNL     1      21.792 107.511  15.939  0.00  0.00    +0.013 A 
ATOM      3  C   UNL     1      22.140 106.381  16.792  0.00  0.00    +0.019 A 
ATOM     38  C   UNL     1      22.124 105.049  16.204  0.00  0.00    +0.120 A 
ATOM     39  N   UNL     1      21.782 104.886  14.866  0.00  0.00    -0.263 NA
ATOM     40  C   UNL     1      21.444 105.966  14.036  0.00  0.00    +0.111 A 
ENDBRANCH   4   3
ENDBRANCH  10   9
BRANCH  12  13
ATOM     13  N   UNL     1      26.866 110.217  23.672  0.00  0.00    -0.281 N 
ATOM     14  C   UNL     1      27.863 111.161  23.488  0.00  0.00    +0.248 C 
ATOM     30  O   UNL     1      28.941 110.934  22.958  0.00  0.00    -0.270 OA
ATOM     31  H   UNL     1      26.105 110.484  24.296  0.00  0.00    +0.155 HD
BRANCH  14  15
ATOM     15  C   UNL     1      27.636 112.555  23.976  0.00  0.00    +0.037 A 
ATOM     16  C   UNL     1      28.539 113.648  23.604  0.00  0.00    +0.013 A 
ATOM     17  C   UNL     1      28.306 114.980  24.102  0.00  0.00    +0.005 A 
ATOM     18  C   UNL     1      27.163 115.228  24.978  0.00  0.00    -0.033 A 
ATOM     28  C   UNL     1      26.280 114.127  25.327  0.00  0.00    +0.005 A 
ATOM     29  C   UNL     1      26.506 112.820  24.841  0.00  0.00    +0.013 A 
BRANCH  18  19
ATOM     19  C   UNL     1      26.850 116.613  25.573  0.00  0.00    +0.119 C 
BRANCH  19  20
ATOM     20  N   UNL     1      26.097 116.650  26.862  0.00  0.00    -0.302 NA
ATOM     21  C   UNL     1      25.153 117.852  26.941  0.00  0.00    +0.066 C 
ATOM     22  C   UNL     1      24.356 117.862  28.287  0.00  0.00    -0.064 C 
ATOM     23  N   UNL     1      25.339 117.867  29.458  0.00  0.00    +0.379 N 
ATOM     24  C   UNL     1      24.594 117.935  30.724  0.00  0.00    -0.096 C 
ATOM     25  H   UNL     1      25.956 118.793  29.378  0.00  0.00    -0.082 HD
ATOM     26  C   UNL     1      26.284 116.676  29.385  0.00  0.00    -0.064 C 
ATOM     27  C   UNL     1      27.049 116.659  28.033  0.00  0.00    +0.066 C 
ENDBRANCH  19  20
ENDBRANCH  18  19
ENDBRANCH  14  15
ENDBRANCH  12  13
TORSDOF 6
ENDMDL
MODEL 5
REMARK VINA RESULT:      -6.1     28.411     32.194
REMARK  Name = C:\Users\Docking\Desktop\test protocol\1iep_ligandH.pdb
REMARK  8 active torsions:
REMARK  status: ('A' for Active; 'I' for Inactive)
REMARK    1  A    between atoms: _5  and  _11
REMARK    2  A    between atoms: _19  and  _21
REMARK    3  A    between atoms: _22  and  _66
REMARK    4  A    between atoms: _27  and  _30
REMARK    5  A    between atoms: _32  and  _33
REMARK    6  A    between atoms: _38  and  _43
REMARK    7  A    between atoms: _43  and  _46
REMARK    8  A    between atoms: _53  and  _55
REMARK                            x       y       z     vdW  Elec       q    Type
REMARK                         _______ _______ _______ _____ _____    ______ ____
ROOT
ATOM     10  C   UNL     1      42.137 130.450  19.736  0.00  0.00    +0.038 A 
ATOM     11  C   UNL     1      41.507 131.234  20.735  0.00  0.00    +0.047 A 
ATOM     12  C   UNL     1      41.628 130.897  22.144  0.00  0.00    +0.035 A 
ATOM     32  C   UNL     1      42.403 129.755  22.502  0.00  0.00    +0.024 A 
ATOM     33  C   UNL     1      43.049 128.946  21.499  0.00  0.00    +0.007 A 
ATOM     34  C   UNL     1      42.931 129.272  20.107  0.00  0.00    -0.029 A 
ATOM     35  C   UNL     1      43.640 128.365  19.075  0.00  0.00    +0.045 C 
ENDROOT
BRANCH  10   9
ATOM      4  C   UNL     1      43.512 132.891  15.839  0.00  0.00    +0.077 A 
ATOM      5  C   UNL     1      44.607 133.503  16.536  0.00  0.00    +0.048 A 
ATOM      6  C   UNL     1      44.777 133.168  17.898  0.00  0.00    +0.116 A 
ATOM      7  N   UNL     1      43.911 132.286  18.507  0.00  0.00    -0.223 NA
ATOM      8  C   UNL     1      42.865 131.715  17.806  0.00  0.00    +0.220 A 
ATOM      9  N   UNL     1      41.987 130.819  18.397  0.00  0.00    -0.283 N 
ATOM     36  H   UNL     1      41.223 130.425  17.848  0.00  0.00    +0.155 HD
ATOM     37  N   UNL     1      42.680 132.019  16.505  0.00  0.00    -0.214 NA
BRANCH   4   3
ATOM      1  C   UNL     1      43.426 132.618  11.938  0.00  0.00    +0.020 A 
ATOM      2  C   UNL     1      43.756 132.334  13.315  0.00  0.00    +0.013 A 
ATOM      3  C   UNL     1      43.204 133.142  14.395  0.00  0.00    +0.019 A 
ATOM     38  C   UNL     1      42.313 134.237  14.045  0.00  0.00    +0.120 A 
ATOM     39  N   UNL     1      42.014 134.488  12.709  0.00  0.00    -0.263 NA
ATOM     40  C   UNL     1      42.541 133.718  11.661  0.00  0.00    +0.111 A 
ENDBRANCH   4   3
ENDBRANCH  10   9
BRANCH  12  13
ATOM     13  N   UNL     1      41.004 131.652  23.203  0.00  0.00    -0.281 N 
ATOM     14  C   UNL     1      40.348 131.167  24.322  0.00  0.00    +0.248 C 
ATOM     30  O   UNL     1      40.011 130.003  24.475  0.00  0.00    -0.270 OA
ATOM     31  H   UNL     1      41.052 132.668  23.116  0.00  0.00    +0.155 HD
BRANCH  14  15
ATOM     15  C   UNL     1      40.004 132.116  25.425  0.00  0.00    +0.037 A 
ATOM     16  C   UNL     1      39.001 131.773  26.436  0.00  0.00    +0.013 A 
ATOM     17  C   UNL     1      38.675 132.713  27.479  0.00  0.00    +0.005 A 
ATOM     18  C   UNL     1      39.357 134.005  27.517  0.00  0.00    -0.033 A 
ATOM     28  C   UNL     1      40.352 134.317  26.505  0.00  0.00    +0.005 A 
ATOM     29  C   UNL     1      40.673 133.398  25.480  0.00  0.00    +0.013 A 
BRANCH  18  19
ATOM     19  C   UNL     1      39.058 135.077  28.582  0.00  0.00    +0.119 C 
BRANCH  19  20
ATOM     20  N   UNL     1      38.274 136.272  28.147  0.00  0.00    -0.302 NA
ATOM     21  C   UNL     1      37.367 135.961  26.953  0.00  0.00    +0.066 C 
ATOM     22  C   UNL     1      36.538 137.216  26.526  0.00  0.00    -0.064 C 
ATOM     23  N   UNL     1      37.491 138.366  26.197  0.00  0.00    +0.379 N 
ATOM     24  C   UNL     1      36.717 139.529  25.740  0.00  0.00    -0.096 C 
ATOM     25  H   UNL     1      38.139 138.037  25.352  0.00  0.00    -0.082 HD
ATOM     26  C   UNL     1      38.399 138.680  27.378  0.00  0.00    -0.064 C 
ATOM     27  C   UNL     1      39.196 137.419  27.813  0.00  0.00    +0.066 C 
ENDBRANCH  19  20
ENDBRANCH  18  19
ENDBRANCH  14  15
ENDBRANCH  12  13
TORSDOF 6
ENDMDL
