MODEL 1
REMARK VINA RESULT:      -7.8      0.000      0.000
REMARK  Name = C:\Users\Docking\Desktop\test protocol\1iep_ligandH.pdb
REMARK  8 active torsions:
REMARK  status: ('A' for Active; 'I' for Inactive)
REMARK    1  A    between atoms: _5  and  _11
REMARK    2  A    between atoms: _19  and  _21
REMARK    3  A    between atoms: _22  and  _66
REMARK    4  A    between atoms: _27  and  _30
REMARK    5  A    between atoms: _32  and  _33
REMARK    6  A    between atoms: _38  and  _43
REMARK    7  A    between atoms: _43  and  _46
REMARK    8  A    between atoms: _53  and  _55
REMARK                            x       y       z     vdW  Elec       q    Type
REMARK                         _______ _______ _______ _____ _____    ______ ____
ROOT
ATOM     10  C   UNL     1      81.448 -33.217  24.083  0.00  0.00    +0.038 A 
ATOM     11  C   UNL     1      80.041 -33.204  23.908  0.00  0.00    +0.047 A 
ATOM     12  C   UNL     1      79.397 -34.069  22.932  0.00  0.00    +0.035 A 
ATOM     32  C   UNL     1      80.216 -34.938  22.154  0.00  0.00    +0.024 A 
ATOM     33  C   UNL     1      81.648 -34.963  22.319  0.00  0.00    +0.007 A 
ATOM     34  C   UNL     1      82.290 -34.110  23.278  0.00  0.00    -0.029 A 
ATOM     35  C   UNL     1      83.829 -34.174  23.407  0.00  0.00    +0.045 C 
ENDROOT
BRANCH  10   9
ATOM      4  C   UNL     1      82.751 -28.861  25.622  0.00  0.00    +0.077 A 
ATOM      5  C   UNL     1      82.288 -28.232  24.418  0.00  0.00    +0.048 A 
ATOM      6  C   UNL     1      81.729 -29.066  23.425  0.00  0.00    +0.116 A 
ATOM      7  N   UNL     1      81.642 -30.426  23.631  0.00  0.00    -0.223 NA
ATOM      8  C   UNL     1      82.099 -31.000  24.803  0.00  0.00    +0.220 A 
ATOM      9  N   UNL     1      82.015 -32.365  25.034  0.00  0.00    -0.283 N 
ATOM     36  H   UNL     1      82.370 -32.750  25.909  0.00  0.00    +0.155 HD
ATOM     37  N   UNL     1      82.639 -30.226  25.766  0.00  0.00    -0.214 NA
BRANCH   4   3
ATOM      1  C   UNL     1      83.216 -26.815  28.924  0.00  0.00    +0.020 A 
ATOM      2  C   UNL     1      82.575 -27.527  27.842  0.00  0.00    +0.013 A 
ATOM      3  C   UNL     1      83.363 -28.113  26.766  0.00  0.00    +0.019 A 
ATOM     38  C   UNL     1      84.810 -27.961  26.814  0.00  0.00    +0.120 A 
ATOM     39  N   UNL     1      85.399 -27.269  27.868  0.00  0.00    -0.263 NA
ATOM     40  C   UNL     1      84.650 -26.699  28.908  0.00  0.00    +0.111 A 
ENDBRANCH   4   3
ENDBRANCH  10   9
BRANCH  12  13
ATOM     13  N   UNL     1      77.973 -34.094  22.704  0.00  0.00    -0.281 N 
ATOM     14  C   UNL     1      77.292 -33.789  21.537  0.00  0.00    +0.248 C 
ATOM     30  O   UNL     1      77.794 -33.240  20.567  0.00  0.00    -0.270 OA
ATOM     31  H   UNL     1      77.397 -34.369  23.500  0.00  0.00    +0.155 HD
BRANCH  14  15
ATOM     15  C   UNL     1      75.841 -34.131  21.437  0.00  0.00    +0.037 A 
ATOM     16  C   UNL     1      75.333 -35.430  21.887  0.00  0.00    +0.013 A 
ATOM     17  C   UNL     1      73.931 -35.741  21.764  0.00  0.00    +0.005 A 
ATOM     18  C   UNL     1      73.025 -34.748  21.189  0.00  0.00    -0.033 A 
ATOM     28  C   UNL     1      73.555 -33.466  20.756  0.00  0.00    +0.005 A 
ATOM     29  C   UNL     1      74.929 -33.158  20.874  0.00  0.00    +0.013 A 
BRANCH  18  19
ATOM     19  C   UNL     1      71.518 -35.002  21.000  0.00  0.00    +0.119 C 
BRANCH  19  20
ATOM     20  N   UNL     1      70.588 -33.885  21.343  0.00  0.00    -0.302 NA
ATOM     21  C   UNL     1      70.606 -33.562  22.840  0.00  0.00    +0.066 C 
ATOM     22  C   UNL     1      69.645 -32.376  23.178  0.00  0.00    -0.064 C 
ATOM     23  N   UNL     1      68.229 -32.723  22.715  0.00  0.00    +0.379 N 
ATOM     24  C   UNL     1      67.312 -31.635  23.083  0.00  0.00    -0.096 C 
ATOM     25  H   UNL     1      67.908 -33.637  23.267  0.00  0.00    -0.082 HD
ATOM     26  C   UNL     1      68.203 -33.049  21.229  0.00  0.00    -0.064 C 
ATOM     27  C   UNL     1      69.183 -34.209  20.899  0.00  0.00    +0.066 C 
ENDBRANCH  19  20
ENDBRANCH  18  19
ENDBRANCH  14  15
ENDBRANCH  12  13
TORSDOF 6
ENDMDL
MODEL 2
REMARK VINA RESULT:      -7.8      3.659     10.869
REMARK  Name = C:\Users\Docking\Desktop\test protocol\1iep_ligandH.pdb
REMARK  8 active torsions:
REMARK  status: ('A' for Active; 'I' for Inactive)
REMARK    1  A    between atoms: _5  and  _11
REMARK    2  A    between atoms: _19  and  _21
REMARK    3  A    between atoms: _22  and  _66
REMARK    4  A    between atoms: _27  and  _30
REMARK    5  A    between atoms: _32  and  _33
REMARK    6  A    between atoms: _38  and  _43
REMARK    7  A    between atoms: _43  and  _46
REMARK    8  A    between atoms: _53  and  _55
REMARK                            x       y       z     vdW  Elec       q    Type
REMARK                         _______ _______ _______ _____ _____    ______ ____
ROOT
ATOM     10  C   UNL     1      81.028 -34.142  23.586  0.00  0.00    +0.038 A 
ATOM     11  C   UNL     1      80.903 -32.994  24.410  0.00  0.00    +0.047 A 
ATOM     12  C   UNL     1      82.066 -32.200  24.775  0.00  0.00    +0.035 A 
ATOM     32  C   UNL     1      83.341 -32.602  24.281  0.00  0.00    +0.024 A 
ATOM     33  C   UNL     1      83.486 -33.767  23.443  0.00  0.00    +0.007 A 
ATOM     34  C   UNL     1      82.343 -34.555  23.082  0.00  0.00    -0.029 A 
ATOM     35  C   UNL     1      82.558 -35.797  22.186  0.00  0.00    +0.045 C 
ENDROOT
BRANCH  10   9
ATOM      4  C   UNL     1      76.975 -34.768  21.092  0.00  0.00    +0.077 A 
ATOM      5  C   UNL     1      77.149 -33.532  20.385  0.00  0.00    +0.048 A 
ATOM      6  C   UNL     1      78.291 -32.761  20.697  0.00  0.00    +0.116 A 
ATOM      7  N   UNL     1      79.186 -33.203  21.648  0.00  0.00    -0.223 NA
ATOM      8  C   UNL     1      78.987 -34.399  22.313  0.00  0.00    +0.220 A 
ATOM      9  N   UNL     1      79.878 -34.867  23.267  0.00  0.00    -0.283 N 
ATOM     36  H   UNL     1      79.692 -35.751  23.740  0.00  0.00    +0.155 HD
ATOM     37  N   UNL     1      77.903 -35.153  22.033  0.00  0.00    -0.214 NA
BRANCH   4   3
ATOM      1  C   UNL     1      73.567 -36.647  21.488  0.00  0.00    +0.020 A 
ATOM      2  C   UNL     1      74.656 -35.733  21.747  0.00  0.00    +0.013 A 
ATOM      3  C   UNL     1      75.820 -35.695  20.871  0.00  0.00    +0.019 A 
ATOM     38  C   UNL     1      75.851 -36.601  19.733  0.00  0.00    +0.120 A 
ATOM     39  N   UNL     1      74.789 -37.471  19.510  0.00  0.00    -0.263 NA
ATOM     40  C   UNL     1      73.664 -37.518  20.347  0.00  0.00    +0.111 A 
ENDBRANCH   4   3
ENDBRANCH  10   9
BRANCH  12  13
ATOM     13  N   UNL     1      82.002 -31.030  25.615  0.00  0.00    -0.281 N 
ATOM     14  C   UNL     1      82.089 -29.701  25.232  0.00  0.00    +0.248 C 
ATOM     30  O   UNL     1      82.452 -29.322  24.128  0.00  0.00    -0.270 OA
ATOM     31  H   UNL     1      81.878 -31.201  26.613  0.00  0.00    +0.155 HD
BRANCH  14  15
ATOM     15  C   UNL     1      81.737 -28.640  26.224  0.00  0.00    +0.037 A 
ATOM     16  C   UNL     1      82.678 -28.237  27.273  0.00  0.00    +0.013 A 
ATOM     17  C   UNL     1      82.306 -27.223  28.227  0.00  0.00    +0.005 A 
ATOM     18  C   UNL     1      80.987 -26.602  28.135  0.00  0.00    -0.033 A 
ATOM     28  C   UNL     1      80.076 -27.016  27.081  0.00  0.00    +0.005 A 
ATOM     29  C   UNL     1      80.436 -28.011  26.145  0.00  0.00    +0.013 A 
BRANCH  18  19
ATOM     19  C   UNL     1      80.498 -25.526  29.123  0.00  0.00    +0.119 C 
BRANCH  19  20
ATOM     20  N   UNL     1      79.135 -25.702  29.706  0.00  0.00    -0.302 NA
ATOM     21  C   UNL     1      78.204 -24.539  29.354  0.00  0.00    +0.066 C 
ATOM     22  C   UNL     1      76.776 -24.750  29.953  0.00  0.00    -0.064 C 
ATOM     23  N   UNL     1      76.882 -24.919  31.469  0.00  0.00    +0.379 N 
ATOM     24  C   UNL     1      75.535 -25.060  32.043  0.00  0.00    -0.096 C 
ATOM     25  H   UNL     1      77.329 -23.985  31.883  0.00  0.00    -0.082 HD
ATOM     26  C   UNL     1      77.807 -26.072  31.829  0.00  0.00    -0.064 C 
ATOM     27  C   UNL     1      79.215 -25.866  31.204  0.00  0.00    +0.066 C 
ENDBRANCH  19  20
ENDBRANCH  18  19
ENDBRANCH  14  15
ENDBRANCH  12  13
TORSDOF 6
ENDMDL
MODEL 3
REMARK VINA RESULT:      -7.6      3.604      5.172
REMARK  Name = C:\Users\Docking\Desktop\test protocol\1iep_ligandH.pdb
REMARK  8 active torsions:
REMARK  status: ('A' for Active; 'I' for Inactive)
REMARK    1  A    between atoms: _5  and  _11
REMARK    2  A    between atoms: _19  and  _21
REMARK    3  A    between atoms: _22  and  _66
REMARK    4  A    between atoms: _27  and  _30
REMARK    5  A    between atoms: _32  and  _33
REMARK    6  A    between atoms: _38  and  _43
REMARK    7  A    between atoms: _43  and  _46
REMARK    8  A    between atoms: _53  and  _55
REMARK                            x       y       z     vdW  Elec       q    Type
REMARK                         _______ _______ _______ _____ _____    ______ ____
ROOT
ATOM     10  C   UNL     1      78.497 -36.324  21.467  0.00  0.00    +0.038 A 
ATOM     11  C   UNL     1      77.473 -35.421  21.849  0.00  0.00    +0.047 A 
ATOM     12  C   UNL     1      76.069 -35.789  21.748  0.00  0.00    +0.035 A 
ATOM     32  C   UNL     1      75.744 -37.087  21.257  0.00  0.00    +0.024 A 
ATOM     33  C   UNL     1      76.773 -38.018  20.864  0.00  0.00    +0.007 A 
ATOM     34  C   UNL     1      78.159 -37.659  20.959  0.00  0.00    -0.029 A 
ATOM     35  C   UNL     1      79.219 -38.695  20.517  0.00  0.00    +0.045 C 
ENDROOT
BRANCH  10   9
ATOM      4  C   UNL     1      81.955 -33.686  23.497  0.00  0.00    +0.077 A 
ATOM      5  C   UNL     1      81.026 -33.042  24.380  0.00  0.00    +0.048 A 
ATOM      6  C   UNL     1      79.667 -33.412  24.276  0.00  0.00    +0.116 A 
ATOM      7  N   UNL     1      79.276 -34.358  23.353  0.00  0.00    -0.223 NA
ATOM      8  C   UNL     1      80.197 -34.959  22.515  0.00  0.00    +0.220 A 
ATOM      9  N   UNL     1      79.828 -35.919  21.585  0.00  0.00    -0.283 N 
ATOM     36  H   UNL     1      80.537 -36.333  20.979  0.00  0.00    +0.155 HD
ATOM     37  N   UNL     1      81.501 -34.622  22.594  0.00  0.00    -0.214 NA
BRANCH   4   3
ATOM      1  C   UNL     1      85.588 -32.777  24.627  0.00  0.00    +0.020 A 
ATOM      2  C   UNL     1      84.168 -33.039  24.689  0.00  0.00    +0.013 A 
ATOM      3  C   UNL     1      83.425 -33.404  23.489  0.00  0.00    +0.019 A 
ATOM     38  C   UNL     1      84.154 -33.496  22.233  0.00  0.00    +0.120 A 
ATOM     39  N   UNL     1      85.521 -33.237  22.204  0.00  0.00    -0.263 NA
ATOM     40  C   UNL     1      86.246 -32.883  23.352  0.00  0.00    +0.111 A 
ENDBRANCH   4   3
ENDBRANCH  10   9
BRANCH  12  13
ATOM     13  N   UNL     1      74.985 -34.910  22.113  0.00  0.00    -0.281 N 
ATOM     14  C   UNL     1      74.076 -34.286  21.275  0.00  0.00    +0.248 C 
ATOM     30  O   UNL     1      74.190 -34.218  20.060  0.00  0.00    -0.270 OA
ATOM     31  H   UNL     1      74.875 -34.727  23.111  0.00  0.00    +0.155 HD
BRANCH  14  15
ATOM     15  C   UNL     1      72.874 -33.629  21.874  0.00  0.00    +0.037 A 
ATOM     16  C   UNL     1      72.880 -32.206  22.222  0.00  0.00    +0.013 A 
ATOM     17  C   UNL     1      71.713 -31.601  22.814  0.00  0.00    +0.005 A 
ATOM     18  C   UNL     1      70.530 -32.421  23.061  0.00  0.00    -0.033 A 
ATOM     28  C   UNL     1      70.549 -33.829  22.702  0.00  0.00    +0.005 A 
ATOM     29  C   UNL     1      71.692 -34.425  22.122  0.00  0.00    +0.013 A 
BRANCH  18  19
ATOM     19  C   UNL     1      69.248 -31.865  23.709  0.00  0.00    +0.119 C 
BRANCH  19  20
ATOM     20  N   UNL     1      68.431 -30.911  22.900  0.00  0.00    -0.302 NA
ATOM     21  C   UNL     1      68.669 -29.456  23.315  0.00  0.00    +0.066 C 
ATOM     22  C   UNL     1      67.824 -28.470  22.444  0.00  0.00    -0.064 C 
ATOM     23  N   UNL     1      66.342 -28.832  22.561  0.00  0.00    +0.379 N 
ATOM     24  C   UNL     1      65.541 -27.872  21.789  0.00  0.00    -0.096 C 
ATOM     25  H   UNL     1      66.053 -28.730  23.633  0.00  0.00    -0.082 HD
ATOM     26  C   UNL     1      66.098 -30.278  22.153  0.00  0.00    -0.064 C 
ATOM     27  C   UNL     1      66.964 -31.247  23.005  0.00  0.00    +0.066 C 
ENDBRANCH  19  20
ENDBRANCH  18  19
ENDBRANCH  14  15
ENDBRANCH  12  13
TORSDOF 6
ENDMDL
MODEL 4
REMARK VINA RESULT:      -7.6     28.631     34.663
REMARK  Name = C:\Users\Docking\Desktop\test protocol\1iep_ligandH.pdb
REMARK  8 active torsions:
REMARK  status: ('A' for Active; 'I' for Inactive)
REMARK    1  A    between atoms: _5  and  _11
REMARK    2  A    between atoms: _19  and  _21
REMARK    3  A    between atoms: _22  and  _66
REMARK    4  A    between atoms: _27  and  _30
REMARK    5  A    between atoms: _32  and  _33
REMARK    6  A    between atoms: _38  and  _43
REMARK    7  A    between atoms: _43  and  _46
REMARK    8  A    between atoms: _53  and  _55
REMARK                            x       y       z     vdW  Elec       q    Type
REMARK                         _______ _______ _______ _____ _____    ______ ____
ROOT
ATOM     10  C   UNL     1      51.181 -47.264  38.140  0.00  0.00    +0.038 A 
ATOM     11  C   UNL     1      51.867 -47.437  39.370  0.00  0.00    +0.047 A 
ATOM     12  C   UNL     1      51.771 -48.682  40.116  0.00  0.00    +0.035 A 
ATOM     32  C   UNL     1      50.970 -49.732  39.579  0.00  0.00    +0.024 A 
ATOM     33  C   UNL     1      50.266 -49.573  38.331  0.00  0.00    +0.007 A 
ATOM     34  C   UNL     1      50.354 -48.346  37.592  0.00  0.00    -0.029 A 
ATOM     35  C   UNL     1      49.572 -48.228  36.263  0.00  0.00    +0.045 C 
ENDROOT
BRANCH  10   9
ATOM      4  C   UNL     1      53.390 -44.369  35.014  0.00  0.00    +0.077 A 
ATOM      5  C   UNL     1      54.391 -45.353  34.719  0.00  0.00    +0.048 A 
ATOM      6  C   UNL     1      54.306 -46.589  35.398  0.00  0.00    +0.116 A 
ATOM      7  N   UNL     1      53.291 -46.813  36.303  0.00  0.00    -0.223 NA
ATOM      8  C   UNL     1      52.342 -45.841  36.566  0.00  0.00    +0.220 A 
ATOM      9  N   UNL     1      51.308 -46.048  37.466  0.00  0.00    -0.283 N 
ATOM     36  H   UNL     1      50.633 -45.303  37.637  0.00  0.00    +0.155 HD
ATOM     37  N   UNL     1      52.403 -44.652  35.931  0.00  0.00    -0.214 NA
BRANCH   4   3
ATOM      1  C   UNL     1      52.994 -40.518  34.449  0.00  0.00    +0.020 A 
ATOM      2  C   UNL     1      53.026 -41.801  35.114  0.00  0.00    +0.013 A 
ATOM      3  C   UNL     1      53.343 -43.016  34.374  0.00  0.00    +0.019 A 
ATOM     38  C   UNL     1      53.627 -42.898  32.952  0.00  0.00    +0.120 A 
ATOM     39  N   UNL     1      53.588 -41.650  32.338  0.00  0.00    -0.263 NA
ATOM     40  C   UNL     1      53.282 -40.474  33.040  0.00  0.00    +0.111 A 
ENDBRANCH   4   3
ENDBRANCH  10   9
BRANCH  12  13
ATOM     13  N   UNL     1      52.438 -48.913  41.373  0.00  0.00    -0.281 N 
ATOM     14  C   UNL     1      53.645 -48.389  41.806  0.00  0.00    +0.248 C 
ATOM     30  O   UNL     1      54.444 -47.807  41.086  0.00  0.00    -0.270 OA
ATOM     31  H   UNL     1      51.962 -49.538  42.024  0.00  0.00    +0.155 HD
BRANCH  14  15
ATOM     15  C   UNL     1      54.028 -48.547  43.242  0.00  0.00    +0.037 A 
ATOM     16  C   UNL     1      54.685 -49.765  43.724  0.00  0.00    +0.013 A 
ATOM     17  C   UNL     1      55.028 -49.898  45.117  0.00  0.00    +0.005 A 
ATOM     18  C   UNL     1      54.716 -48.809  46.039  0.00  0.00    -0.033 A 
ATOM     28  C   UNL     1      54.069 -47.610  45.533  0.00  0.00    +0.005 A 
ATOM     29  C   UNL     1      53.730 -47.476  44.168  0.00  0.00    +0.013 A 
BRANCH  18  19
ATOM     19  C   UNL     1      55.027 -48.874  47.547  0.00  0.00    +0.119 C 
BRANCH  19  20
ATOM     20  N   UNL     1      56.457 -48.748  47.956  0.00  0.00    -0.302 NA
ATOM     21  C   UNL     1      57.414 -49.050  46.799  0.00  0.00    +0.066 C 
ATOM     22  C   UNL     1      58.906 -48.892  47.238  0.00  0.00    -0.064 C 
ATOM     23  N   UNL     1      59.185 -49.813  48.427  0.00  0.00    +0.379 N 
ATOM     24  C   UNL     1      60.602 -49.710  48.805  0.00  0.00    -0.096 C 
ATOM     25  H   UNL     1      59.000 -50.861  48.093  0.00  0.00    -0.082 HD
ATOM     26  C   UNL     1      58.236 -49.522  49.580  0.00  0.00    -0.064 C 
ATOM     27  C   UNL     1      56.756 -49.653  49.125  0.00  0.00    +0.066 C 
ENDBRANCH  19  20
ENDBRANCH  18  19
ENDBRANCH  14  15
ENDBRANCH  12  13
TORSDOF 6
ENDMDL
MODEL 5
REMARK VINA RESULT:      -7.4      3.070     11.222
REMARK  Name = C:\Users\Docking\Desktop\test protocol\1iep_ligandH.pdb
REMARK  8 active torsions:
REMARK  status: ('A' for Active; 'I' for Inactive)
REMARK    1  A    between atoms: _5  and  _11
REMARK    2  A    between atoms: _19  and  _21
REMARK    3  A    between atoms: _22  and  _66
REMARK    4  A    between atoms: _27  and  _30
REMARK    5  A    between atoms: _32  and  _33
REMARK    6  A    between atoms: _38  and  _43
REMARK    7  A    between atoms: _43  and  _46
REMARK    8  A    between atoms: _53  and  _55
REMARK                            x       y       z     vdW  Elec       q    Type
REMARK                         _______ _______ _______ _____ _____    ______ ____
ROOT
ATOM     10  C   UNL     1      79.170 -34.553  22.560  0.00  0.00    +0.038 A 
ATOM     11  C   UNL     1      79.354 -33.438  23.417  0.00  0.00    +0.047 A 
ATOM     12  C   UNL     1      80.664 -32.830  23.590  0.00  0.00    +0.035 A 
ATOM     32  C   UNL     1      81.765 -33.382  22.871  0.00  0.00    +0.024 A 
ATOM     33  C   UNL     1      81.595 -34.516  21.997  0.00  0.00    +0.007 A 
ATOM     34  C   UNL     1      80.306 -35.121  21.825  0.00  0.00    -0.029 A 
ATOM     35  C   UNL     1      80.184 -36.339  20.879  0.00  0.00    +0.045 C 
ENDROOT
BRANCH  10   9
ATOM      4  C   UNL     1      74.716 -34.520  20.770  0.00  0.00    +0.077 A 
ATOM      5  C   UNL     1      74.951 -33.301  20.051  0.00  0.00    +0.048 A 
ATOM      6  C   UNL     1      76.229 -32.711  20.174  0.00  0.00    +0.116 A 
ATOM      7  N   UNL     1      77.192 -33.304  20.960  0.00  0.00    -0.223 NA
ATOM      8  C   UNL     1      76.933 -34.479  21.642  0.00  0.00    +0.220 A 
ATOM      9  N   UNL     1      77.890 -35.097  22.432  0.00  0.00    -0.283 N 
ATOM     36  H   UNL     1      77.656 -35.959  22.924  0.00  0.00    +0.155 HD
ATOM     37  N   UNL     1      75.720 -35.062  21.542  0.00  0.00    -0.214 NA
BRANCH   4   3
ATOM      1  C   UNL     1      71.776 -36.938  21.672  0.00  0.00    +0.020 A 
ATOM      2  C   UNL     1      73.042 -36.246  21.749  0.00  0.00    +0.013 A 
ATOM      3  C   UNL     1      73.418 -35.266  20.738  0.00  0.00    +0.019 A 
ATOM     38  C   UNL     1      72.483 -35.006  19.654  0.00  0.00    +0.120 A 
ATOM     39  N   UNL     1      71.271 -35.689  19.605  0.00  0.00    -0.263 NA
ATOM     40  C   UNL     1      70.900 -36.636  20.572  0.00  0.00    +0.111 A 
ENDBRANCH   4   3
ENDBRANCH  10   9
BRANCH  12  13
ATOM     13  N   UNL     1      80.914 -31.702  24.452  0.00  0.00    -0.281 N 
ATOM     14  C   UNL     1      81.125 -30.382  24.088  0.00  0.00    +0.248 C 
ATOM     30  O   UNL     1      81.345 -30.007  22.946  0.00  0.00    -0.270 OA
ATOM     31  H   UNL     1      80.937 -31.901  25.453  0.00  0.00    +0.155 HD
BRANCH  14  15
ATOM     15  C   UNL     1      81.104 -29.329  25.148  0.00  0.00    +0.037 A 
ATOM     16  C   UNL     1      82.197 -29.202  26.116  0.00  0.00    +0.013 A 
ATOM     17  C   UNL     1      82.143 -28.188  27.139  0.00  0.00    +0.005 A 
ATOM     18  C   UNL     1      80.991 -27.291  27.198  0.00  0.00    -0.033 A 
ATOM     28  C   UNL     1      79.924 -27.436  26.223  0.00  0.00    +0.005 A 
ATOM     29  C   UNL     1      79.972 -28.429  25.219  0.00  0.00    +0.013 A 
BRANCH  18  19
ATOM     19  C   UNL     1      80.840 -26.194  28.269  0.00  0.00    +0.119 C 
BRANCH  19  20
ATOM     20  N   UNL     1      79.755 -26.370  29.280  0.00  0.00    -0.302 NA
ATOM     21  C   UNL     1      78.901 -25.108  29.432  0.00  0.00    +0.066 C 
ATOM     22  C   UNL     1      77.757 -25.318  30.477  0.00  0.00    -0.064 C 
ATOM     23  N   UNL     1      78.366 -25.725  31.820  0.00  0.00    +0.379 N 
ATOM     24  C   UNL     1      77.298 -25.866  32.820  0.00  0.00    -0.096 C 
ATOM     25  H   UNL     1      79.034 -24.897  32.153  0.00  0.00    -0.082 HD
ATOM     26  C   UNL     1      79.220 -26.977  31.677  0.00  0.00    -0.064 C 
ATOM     27  C   UNL     1      80.335 -26.768  30.615  0.00  0.00    +0.066 C 
ENDBRANCH  19  20
ENDBRANCH  18  19
ENDBRANCH  14  15
ENDBRANCH  12  13
TORSDOF 6
ENDMDL
