MODEL 1
REMARK VINA RESULT:      -8.2      0.000      0.000
REMARK  Name = C:\Users\Docking\Desktop\test protocol\1iep_ligandH.pdb
REMARK  8 active torsions:
REMARK  status: ('A' for Active; 'I' for Inactive)
REMARK    1  A    between atoms: _5  and  _11
REMARK    2  A    between atoms: _19  and  _21
REMARK    3  A    between atoms: _22  and  _66
REMARK    4  A    between atoms: _27  and  _30
REMARK    5  A    between atoms: _32  and  _33
REMARK    6  A    between atoms: _38  and  _43
REMARK    7  A    between atoms: _43  and  _46
REMARK    8  A    between atoms: _53  and  _55
REMARK                            x       y       z     vdW  Elec       q    Type
REMARK                         _______ _______ _______ _____ _____    ______ ____
ROOT
ATOM     10  C   UNL     1       1.456   3.243 -10.806  0.00  0.00    +0.038 A 
ATOM     11  C   UNL     1       1.417   3.571 -12.185  0.00  0.00    +0.047 A 
ATOM     12  C   UNL     1       0.200   3.405 -12.964  0.00  0.00    +0.035 A 
ATOM     32  C   UNL     1      -0.961   2.904 -12.304  0.00  0.00    +0.024 A 
ATOM     33  C   UNL     1      -0.939   2.565 -10.903  0.00  0.00    +0.007 A 
ATOM     34  C   UNL     1       0.260   2.724 -10.131  0.00  0.00    -0.029 A 
ATOM     35  C   UNL     1       0.228   2.339  -8.633  0.00  0.00    +0.045 C 
ENDROOT
BRANCH  10   9
ATOM      4  C   UNL     1       4.547   5.957  -8.333  0.00  0.00    +0.077 A 
ATOM      5  C   UNL     1       3.723   7.123  -8.468  0.00  0.00    +0.048 A 
ATOM      6  C   UNL     1       2.515   6.984  -9.188  0.00  0.00    +0.116 A 
ATOM      7  N   UNL     1       2.167   5.765  -9.727  0.00  0.00    -0.223 NA
ATOM      8  C   UNL     1       2.986   4.660  -9.579  0.00  0.00    +0.220 A 
ATOM      9  N   UNL     1       2.652   3.422 -10.106  0.00  0.00    -0.283 N 
ATOM     36  H   UNL     1       3.286   2.633  -9.982  0.00  0.00    +0.155 HD
ATOM     37  N   UNL     1       4.145   4.767  -8.898  0.00  0.00    -0.214 NA
BRANCH   4   3
ATOM      1  C   UNL     1       8.171   6.825  -7.143  0.00  0.00    +0.020 A 
ATOM      2  C   UNL     1       6.931   6.880  -7.883  0.00  0.00    +0.013 A 
ATOM      3  C   UNL     1       5.851   5.944  -7.598  0.00  0.00    +0.019 A 
ATOM     38  C   UNL     1       6.060   4.956  -6.549  0.00  0.00    +0.120 A 
ATOM     39  N   UNL     1       7.265   4.926  -5.855  0.00  0.00    -0.263 NA
ATOM     40  C   UNL     1       8.312   5.821  -6.122  0.00  0.00    +0.111 A 
ENDBRANCH   4   3
ENDBRANCH  10   9
BRANCH  12  13
ATOM     13  N   UNL     1       0.102   3.713 -14.369  0.00  0.00    -0.281 N 
ATOM     14  C   UNL     1       0.760   3.100 -15.423  0.00  0.00    +0.248 C 
ATOM     30  O   UNL     1       1.700   2.329 -15.296  0.00  0.00    -0.270 OA
ATOM     31  H   UNL     1      -0.528   4.476 -14.616  0.00  0.00    +0.155 HD
BRANCH  14  15
ATOM     15  C   UNL     1       0.319   3.398 -16.820  0.00  0.00    +0.037 A 
ATOM     16  C   UNL     1       0.114   2.325 -17.797  0.00  0.00    +0.013 A 
ATOM     17  C   UNL     1      -0.294   2.641 -19.142  0.00  0.00    +0.005 A 
ATOM     18  C   UNL     1      -0.502   4.037 -19.518  0.00  0.00    -0.033 A 
ATOM     28  C   UNL     1      -0.297   5.081 -18.528  0.00  0.00    +0.005 A 
ATOM     29  C   UNL     1       0.104   4.775 -17.208  0.00  0.00    +0.013 A 
BRANCH  18  19
ATOM     19  C   UNL     1      -0.918   4.468 -20.937  0.00  0.00    +0.119 C 
BRANCH  19  20
ATOM     20  N   UNL     1       0.151   5.009 -21.829  0.00  0.00    -0.302 NA
ATOM     21  C   UNL     1       0.128   6.539 -21.891  0.00  0.00    +0.066 C 
ATOM     22  C   UNL     1       1.268   7.088 -22.809  0.00  0.00    -0.064 C 
ATOM     23  N   UNL     1       1.125   6.488 -24.209  0.00  0.00    +0.379 N 
ATOM     24  C   UNL     1       2.160   7.047 -25.091  0.00  0.00    -0.096 C 
ATOM     25  H   UNL     1       0.133   6.800 -24.611  0.00  0.00    -0.082 HD
ATOM     26  C   UNL     1       1.144   4.967 -24.156  0.00  0.00    -0.064 C 
ATOM     27  C   UNL     1       0.026   4.432 -23.217  0.00  0.00    +0.066 C 
ENDBRANCH  19  20
ENDBRANCH  18  19
ENDBRANCH  14  15
ENDBRANCH  12  13
TORSDOF 6
ENDMDL
MODEL 2
REMARK VINA RESULT:      -8.2     10.726     17.288
REMARK  Name = C:\Users\Docking\Desktop\test protocol\1iep_ligandH.pdb
REMARK  8 active torsions:
REMARK  status: ('A' for Active; 'I' for Inactive)
REMARK    1  A    between atoms: _5  and  _11
REMARK    2  A    between atoms: _19  and  _21
REMARK    3  A    between atoms: _22  and  _66
REMARK    4  A    between atoms: _27  and  _30
REMARK    5  A    between atoms: _32  and  _33
REMARK    6  A    between atoms: _38  and  _43
REMARK    7  A    between atoms: _43  and  _46
REMARK    8  A    between atoms: _53  and  _55
REMARK                            x       y       z     vdW  Elec       q    Type
REMARK                         _______ _______ _______ _____ _____    ______ ____
ROOT
ATOM     10  C   UNL     1      17.909   9.457 -10.115  0.00  0.00    +0.038 A 
ATOM     11  C   UNL     1      16.587   9.055  -9.796  0.00  0.00    +0.047 A 
ATOM     12  C   UNL     1      15.603  10.015  -9.320  0.00  0.00    +0.035 A 
ATOM     32  C   UNL     1      15.999  11.378  -9.184  0.00  0.00    +0.024 A 
ATOM     33  C   UNL     1      17.339  11.803  -9.503  0.00  0.00    +0.007 A 
ATOM     34  C   UNL     1      18.315  10.860  -9.970  0.00  0.00    -0.029 A 
ATOM     35  C   UNL     1      19.739  11.371 -10.291  0.00  0.00    +0.045 C 
ENDROOT
BRANCH  10   9
ATOM      4  C   UNL     1      20.939   5.812  -9.362  0.00  0.00    +0.077 A 
ATOM      5  C   UNL     1      20.724   5.848  -7.944  0.00  0.00    +0.048 A 
ATOM      6  C   UNL     1      19.831   6.824  -7.448  0.00  0.00    +0.116 A 
ATOM      7  N   UNL     1      19.206   7.694  -8.315  0.00  0.00    -0.223 NA
ATOM      8  C   UNL     1      19.437   7.633  -9.677  0.00  0.00    +0.220 A 
ATOM      9  N   UNL     1      18.813   8.493 -10.568  0.00  0.00    -0.283 N 
ATOM     36  H   UNL     1      19.016   8.421 -11.564  0.00  0.00    +0.155 HD
ATOM     37  N   UNL     1      20.287   6.711 -10.175  0.00  0.00    -0.214 NA
BRANCH   4   3
ATOM      1  C   UNL     1      22.749   3.660 -12.081  0.00  0.00    +0.020 A 
ATOM      2  C   UNL     1      21.847   4.614 -11.478  0.00  0.00    +0.013 A 
ATOM      3  C   UNL     1      21.851   4.835 -10.038  0.00  0.00    +0.019 A 
ATOM     38  C   UNL     1      22.788   4.070  -9.229  0.00  0.00    +0.120 A 
ATOM     39  N   UNL     1      23.644   3.156  -9.838  0.00  0.00    -0.263 NA
ATOM     40  C   UNL     1      23.647   2.934 -11.223  0.00  0.00    +0.111 A 
ENDBRANCH   4   3
ENDBRANCH  10   9
BRANCH  12  13
ATOM     13  N   UNL     1      14.248   9.664  -8.973  0.00  0.00    -0.281 N 
ATOM     14  C   UNL     1      13.649   9.713  -7.725  0.00  0.00    +0.248 C 
ATOM     30  O   UNL     1      14.253   9.865  -6.674  0.00  0.00    -0.270 OA
ATOM     31  H   UNL     1      13.659   9.341  -9.741  0.00  0.00    +0.155 HD
BRANCH  14  15
ATOM     15  C   UNL     1      12.166   9.557  -7.630  0.00  0.00    +0.037 A 
ATOM     16  C   UNL     1      11.426  10.026  -6.455  0.00  0.00    +0.013 A 
ATOM     17  C   UNL     1       9.998   9.848  -6.381  0.00  0.00    +0.005 A 
ATOM     18  C   UNL     1       9.299   9.199  -7.487  0.00  0.00    -0.033 A 
ATOM     28  C   UNL     1      10.056   8.748  -8.643  0.00  0.00    +0.005 A 
ATOM     29  C   UNL     1      11.457   8.920  -8.718  0.00  0.00    +0.013 A 
BRANCH  18  19
ATOM     19  C   UNL     1       7.779   8.948  -7.484  0.00  0.00    +0.119 C 
BRANCH  19  20
ATOM     20  N   UNL     1       7.293   7.702  -6.821  0.00  0.00    -0.302 NA
ATOM     21  C   UNL     1       8.404   6.659  -6.673  0.00  0.00    +0.066 C 
ATOM     22  C   UNL     1       7.884   5.370  -5.957  0.00  0.00    -0.064 C 
ATOM     23  N   UNL     1       6.703   4.796  -6.741  0.00  0.00    +0.379 N 
ATOM     24  C   UNL     1       6.249   3.552  -6.102  0.00  0.00    -0.096 C 
ATOM     25  H   UNL     1       7.069   4.538  -7.762  0.00  0.00    -0.082 HD
ATOM     26  C   UNL     1       5.594   5.827  -6.895  0.00  0.00    -0.064 C 
ATOM     27  C   UNL     1       6.129   7.115  -7.581  0.00  0.00    +0.066 C 
ENDBRANCH  19  20
ENDBRANCH  18  19
ENDBRANCH  14  15
ENDBRANCH  12  13
TORSDOF 6
ENDMDL
MODEL 3
REMARK VINA RESULT:      -8.1      3.721      5.938
REMARK  Name = C:\Users\Docking\Desktop\test protocol\1iep_ligandH.pdb
REMARK  8 active torsions:
REMARK  status: ('A' for Active; 'I' for Inactive)
REMARK    1  A    between atoms: _5  and  _11
REMARK    2  A    between atoms: _19  and  _21
REMARK    3  A    between atoms: _22  and  _66
REMARK    4  A    between atoms: _27  and  _30
REMARK    5  A    between atoms: _32  and  _33
REMARK    6  A    between atoms: _38  and  _43
REMARK    7  A    between atoms: _43  and  _46
REMARK    8  A    between atoms: _53  and  _55
REMARK                            x       y       z     vdW  Elec       q    Type
REMARK                         _______ _______ _______ _____ _____    ______ ____
ROOT
ATOM     10  C   UNL     1       4.698   4.312  -7.331  0.00  0.00    +0.038 A 
ATOM     11  C   UNL     1       4.122   3.700  -8.473  0.00  0.00    +0.047 A 
ATOM     12  C   UNL     1       3.694   4.492  -9.616  0.00  0.00    +0.035 A 
ATOM     32  C   UNL     1       3.871   5.906  -9.562  0.00  0.00    +0.024 A 
ATOM     33  C   UNL     1       4.455   6.544  -8.409  0.00  0.00    +0.007 A 
ATOM     34  C   UNL     1       4.876   5.768  -7.278  0.00  0.00    -0.029 A 
ATOM     35  C   UNL     1       5.490   6.507  -6.065  0.00  0.00    +0.045 C 
ENDROOT
BRANCH  10   9
ATOM      4  C   UNL     1       3.832   2.077  -3.172  0.00  0.00    +0.077 A 
ATOM      5  C   UNL     1       2.492   2.586  -3.110  0.00  0.00    +0.048 A 
ATOM      6  C   UNL     1       2.067   3.425  -4.165  0.00  0.00    +0.116 A 
ATOM      7  N   UNL     1       2.926   3.726  -5.199  0.00  0.00    -0.223 NA
ATOM      8  C   UNL     1       4.213   3.220  -5.228  0.00  0.00    +0.220 A 
ATOM      9  N   UNL     1       5.091   3.503  -6.262  0.00  0.00    -0.283 N 
ATOM     36  H   UNL     1       6.034   3.117  -6.243  0.00  0.00    +0.155 HD
ATOM     37  N   UNL     1       4.643   2.418  -4.232  0.00  0.00    -0.214 NA
BRANCH   4   3
ATOM      1  C   UNL     1       4.430  -0.920  -0.732  0.00  0.00    +0.020 A 
ATOM      2  C   UNL     1       3.815  -0.086  -1.738  0.00  0.00    +0.013 A 
ATOM      3  C   UNL     1       4.426   1.176  -2.135  0.00  0.00    +0.019 A 
ATOM     38  C   UNL     1       5.670   1.568  -1.490  0.00  0.00    +0.120 A 
ATOM     39  N   UNL     1       6.239   0.745  -0.523  0.00  0.00    -0.263 NA
ATOM     40  C   UNL     1       5.658  -0.471  -0.131  0.00  0.00    +0.111 A 
ENDBRANCH   4   3
ENDBRANCH  10   9
BRANCH  12  13
ATOM     13  N   UNL     1       3.095   3.928 -10.800  0.00  0.00    -0.281 N 
ATOM     14  C   UNL     1       1.783   4.045 -11.228  0.00  0.00    +0.248 C 
ATOM     30  O   UNL     1       0.868   4.478 -10.544  0.00  0.00    -0.270 OA
ATOM     31  H   UNL     1       3.713   3.375 -11.393  0.00  0.00    +0.155 HD
BRANCH  14  15
ATOM     15  C   UNL     1       1.433   3.603 -12.613  0.00  0.00    +0.037 A 
ATOM     16  C   UNL     1       2.453   3.073 -13.521  0.00  0.00    +0.013 A 
ATOM     17  C   UNL     1       2.093   2.670 -14.857  0.00  0.00    +0.005 A 
ATOM     18  C   UNL     1       0.704   2.794 -15.293  0.00  0.00    -0.033 A 
ATOM     28  C   UNL     1      -0.289   3.318 -14.369  0.00  0.00    +0.005 A 
ATOM     29  C   UNL     1       0.061   3.715 -13.059  0.00  0.00    +0.013 A 
BRANCH  18  19
ATOM     19  C   UNL     1       0.233   2.408 -16.707  0.00  0.00    +0.119 C 
BRANCH  19  20
ATOM     20  N   UNL     1      -0.183   3.518 -17.616  0.00  0.00    -0.302 NA
ATOM     21  C   UNL     1      -0.156   3.095 -19.088  0.00  0.00    +0.066 C 
ATOM     22  C   UNL     1      -0.615   4.261 -20.023  0.00  0.00    -0.064 C 
ATOM     23  N   UNL     1       0.282   5.479 -19.793  0.00  0.00    +0.379 N 
ATOM     24  C   UNL     1      -0.110   6.557 -20.712  0.00  0.00    -0.096 C 
ATOM     25  H   UNL     1       1.326   5.182 -20.045  0.00  0.00    -0.082 HD
ATOM     26  C   UNL     1       0.263   5.904 -18.331  0.00  0.00    -0.064 C 
ATOM     27  C   UNL     1       0.693   4.729 -17.409  0.00  0.00    +0.066 C 
ENDBRANCH  19  20
ENDBRANCH  18  19
ENDBRANCH  14  15
ENDBRANCH  12  13
TORSDOF 6
ENDMDL
MODEL 4
REMARK VINA RESULT:      -8.0     19.904     23.300
REMARK  Name = C:\Users\Docking\Desktop\test protocol\1iep_ligandH.pdb
REMARK  8 active torsions:
REMARK  status: ('A' for Active; 'I' for Inactive)
REMARK    1  A    between atoms: _5  and  _11
REMARK    2  A    between atoms: _19  and  _21
REMARK    3  A    between atoms: _22  and  _66
REMARK    4  A    between atoms: _27  and  _30
REMARK    5  A    between atoms: _32  and  _33
REMARK    6  A    between atoms: _38  and  _43
REMARK    7  A    between atoms: _43  and  _46
REMARK    8  A    between atoms: _53  and  _55
REMARK                            x       y       z     vdW  Elec       q    Type
REMARK                         _______ _______ _______ _____ _____    ______ ____
ROOT
ATOM     10  C   UNL     1      20.923   8.359 -23.285  0.00  0.00    +0.038 A 
ATOM     11  C   UNL     1      21.003   6.968 -23.549  0.00  0.00    +0.047 A 
ATOM     12  C   UNL     1      22.143   6.399 -24.251  0.00  0.00    +0.035 A 
ATOM     32  C   UNL     1      23.186   7.276 -24.668  0.00  0.00    +0.024 A 
ATOM     33  C   UNL     1      23.121   8.693 -24.409  0.00  0.00    +0.007 A 
ATOM     34  C   UNL     1      21.997   9.260 -23.720  0.00  0.00    -0.029 A 
ATOM     35  C   UNL     1      21.977  10.787 -23.475  0.00  0.00    +0.045 C 
ENDROOT
BRANCH  10   9
ATOM      4  C   UNL     1      16.445  10.085 -23.200  0.00  0.00    +0.077 A 
ATOM      5  C   UNL     1      16.332  10.026 -24.629  0.00  0.00    +0.048 A 
ATOM      6  C   UNL     1      17.452   9.552 -25.350  0.00  0.00    +0.116 A 
ATOM      7  N   UNL     1      18.593   9.168 -24.681  0.00  0.00    -0.223 NA
ATOM      8  C   UNL     1      18.670   9.240 -23.302  0.00  0.00    +0.220 A 
ATOM      9  N   UNL     1      19.805   8.852 -22.608  0.00  0.00    -0.283 N 
ATOM     36  H   UNL     1      19.825   8.926 -21.591  0.00  0.00    +0.155 HD
ATOM     37  N   UNL     1      17.615   9.690 -22.591  0.00  0.00    -0.214 NA
BRANCH   4   3
ATOM      1  C   UNL     1      13.572  10.184 -20.548  0.00  0.00    +0.020 A 
ATOM      2  C   UNL     1      14.624   9.674 -21.397  0.00  0.00    +0.013 A 
ATOM      3  C   UNL     1      15.347  10.560 -22.300  0.00  0.00    +0.019 A 
ATOM     38  C   UNL     1      14.979  11.968 -22.320  0.00  0.00    +0.120 A 
ATOM     39  N   UNL     1      13.960  12.430 -21.492  0.00  0.00    -0.263 NA
ATOM     40  C   UNL     1      13.257  11.586 -20.620  0.00  0.00    +0.111 A 
ENDBRANCH   4   3
ENDBRANCH  10   9
BRANCH  12  13
ATOM     13  N   UNL     1      22.274   4.995 -24.553  0.00  0.00    -0.281 N 
ATOM     14  C   UNL     1      21.493   4.230 -25.403  0.00  0.00    +0.248 C 
ATOM     30  O   UNL     1      20.423   4.592 -25.872  0.00  0.00    -0.270 OA
ATOM     31  H   UNL     1      23.037   4.506 -24.084  0.00  0.00    +0.155 HD
BRANCH  14  15
ATOM     15  C   UNL     1      21.959   2.860 -25.776  0.00  0.00    +0.037 A 
ATOM     16  C   UNL     1      22.910   2.127 -24.937  0.00  0.00    +0.013 A 
ATOM     17  C   UNL     1      23.357   0.813 -25.328  0.00  0.00    +0.005 A 
ATOM     18  C   UNL     1      22.851   0.224 -26.566  0.00  0.00    -0.033 A 
ATOM     28  C   UNL     1      21.905   0.971 -27.377  0.00  0.00    +0.005 A 
ATOM     29  C   UNL     1      21.465   2.259 -26.997  0.00  0.00    +0.013 A 
BRANCH  18  19
ATOM     19  C   UNL     1      23.289  -1.163 -27.072  0.00  0.00    +0.119 C 
BRANCH  19  20
ATOM     20  N   UNL     1      24.270  -1.202 -28.197  0.00  0.00    -0.302 NA
ATOM     21  C   UNL     1      25.230  -0.010 -28.164  0.00  0.00    +0.066 C 
ATOM     22  C   UNL     1      26.263  -0.078 -29.336  0.00  0.00    -0.064 C 
ATOM     23  N   UNL     1      25.515  -0.134 -30.669  0.00  0.00    +0.379 N 
ATOM     24  C   UNL     1      26.484  -0.140 -31.775  0.00  0.00    -0.096 C 
ATOM     25  H   UNL     1      24.909   0.797 -30.755  0.00  0.00    -0.082 HD
ATOM     26  C   UNL     1      24.556  -1.315 -30.709  0.00  0.00    -0.064 C 
ATOM     27  C   UNL     1      23.553  -1.253 -29.524  0.00  0.00    +0.066 C 
ENDBRANCH  19  20
ENDBRANCH  18  19
ENDBRANCH  14  15
ENDBRANCH  12  13
TORSDOF 6
ENDMDL
MODEL 5
REMARK VINA RESULT:      -8.0      2.268      4.346
REMARK  Name = C:\Users\Docking\Desktop\test protocol\1iep_ligandH.pdb
REMARK  8 active torsions:
REMARK  status: ('A' for Active; 'I' for Inactive)
REMARK    1  A    between atoms: _5  and  _11
REMARK    2  A    between atoms: _19  and  _21
REMARK    3  A    between atoms: _22  and  _66
REMARK    4  A    between atoms: _27  and  _30
REMARK    5  A    between atoms: _32  and  _33
REMARK    6  A    between atoms: _38  and  _43
REMARK    7  A    between atoms: _43  and  _46
REMARK    8  A    between atoms: _53  and  _55
REMARK                            x       y       z     vdW  Elec       q    Type
REMARK                         _______ _______ _______ _____ _____    ______ ____
ROOT
ATOM     10  C   UNL     1       4.285   4.174  -7.814  0.00  0.00    +0.038 A 
ATOM     11  C   UNL     1       3.808   3.915  -9.124  0.00  0.00    +0.047 A 
ATOM     12  C   UNL     1       2.531   3.254  -9.344  0.00  0.00    +0.035 A 
ATOM     32  C   UNL     1       1.763   2.874  -8.205  0.00  0.00    +0.024 A 
ATOM     33  C   UNL     1       2.232   3.128  -6.866  0.00  0.00    +0.007 A 
ATOM     34  C   UNL     1       3.493   3.777  -6.643  0.00  0.00    -0.029 A 
ATOM     35  C   UNL     1       3.950   4.019  -5.186  0.00  0.00    +0.045 C 
ENDROOT
BRANCH  10   9
ATOM      4  C   UNL     1       7.015   8.116  -7.598  0.00  0.00    +0.077 A 
ATOM      5  C   UNL     1       5.893   8.977  -7.835  0.00  0.00    +0.048 A 
ATOM      6  C   UNL     1       4.632   8.366  -8.015  0.00  0.00    +0.116 A 
ATOM      7  N   UNL     1       4.513   6.994  -7.959  0.00  0.00    -0.223 NA
ATOM      8  C   UNL     1       5.616   6.192  -7.730  0.00  0.00    +0.220 A 
ATOM      9  N   UNL     1       5.518   4.811  -7.661  0.00  0.00    -0.283 N 
ATOM     36  H   UNL     1       6.357   4.254  -7.498  0.00  0.00    +0.155 HD
ATOM     37  N   UNL     1       6.831   6.752  -7.556  0.00  0.00    -0.214 NA
BRANCH   4   3
ATOM      1  C   UNL     1      10.814   8.900  -8.097  0.00  0.00    +0.020 A 
ATOM      2  C   UNL     1       9.483   8.400  -8.350  0.00  0.00    +0.013 A 
ATOM      3  C   UNL     1       8.411   8.611  -7.385  0.00  0.00    +0.019 A 
ATOM     38  C   UNL     1       8.723   9.339  -6.164  0.00  0.00    +0.120 A 
ATOM     39  N   UNL     1      10.015   9.808  -5.947  0.00  0.00    -0.263 NA
ATOM     40  C   UNL     1      11.054   9.609  -6.868  0.00  0.00    +0.111 A 
ENDBRANCH   4   3
ENDBRANCH  10   9
BRANCH  12  13
ATOM     13  N   UNL     1       2.000   2.958 -10.651  0.00  0.00    -0.281 N 
ATOM     14  C   UNL     1       1.165   3.743 -11.429  0.00  0.00    +0.248 C 
ATOM     30  O   UNL     1       0.573   4.733 -11.025  0.00  0.00    -0.270 OA
ATOM     31  H   UNL     1       2.272   2.060 -11.051  0.00  0.00    +0.155 HD
BRANCH  14  15
ATOM     15  C   UNL     1       0.944   3.365 -12.858  0.00  0.00    +0.037 A 
ATOM     16  C   UNL     1       2.062   2.984 -13.725  0.00  0.00    +0.013 A 
ATOM     17  C   UNL     1       1.823   2.641 -15.105  0.00  0.00    +0.005 A 
ATOM     18  C   UNL     1       0.459   2.677 -15.626  0.00  0.00    -0.033 A 
ATOM     28  C   UNL     1      -0.632   3.054 -14.743  0.00  0.00    +0.005 A 
ATOM     29  C   UNL     1      -0.402   3.392 -13.390  0.00  0.00    +0.013 A 
BRANCH  18  19
ATOM     19  C   UNL     1       0.114   2.347 -17.090  0.00  0.00    +0.119 C 
BRANCH  19  20
ATOM     20  N   UNL     1      -0.290   3.484 -17.970  0.00  0.00    -0.302 NA
ATOM     21  C   UNL     1      -0.207   3.118 -19.455  0.00  0.00    +0.066 C 
ATOM     22  C   UNL     1      -0.654   4.311 -20.361  0.00  0.00    -0.064 C 
ATOM     23  N   UNL     1       0.213   5.534 -20.055  0.00  0.00    +0.379 N 
ATOM     24  C   UNL     1      -0.167   6.640 -20.945  0.00  0.00    -0.096 C 
ATOM     25  H   UNL     1       1.270   5.264 -20.282  0.00  0.00    -0.082 HD
ATOM     26  C   UNL     1       0.138   5.902 -18.580  0.00  0.00    -0.064 C 
ATOM     27  C   UNL     1       0.557   4.700 -17.688  0.00  0.00    +0.066 C 
ENDBRANCH  19  20
ENDBRANCH  18  19
ENDBRANCH  14  15
ENDBRANCH  12  13
TORSDOF 6
ENDMDL
