MODEL 1
REMARK VINA RESULT:      -7.9      0.000      0.000
REMARK  Name = C:\Users\Docking\Desktop\test protocol\1iep_ligandH.pdb
REMARK  8 active torsions:
REMARK  status: ('A' for Active; 'I' for Inactive)
REMARK    1  A    between atoms: _5  and  _11
REMARK    2  A    between atoms: _19  and  _21
REMARK    3  A    between atoms: _22  and  _66
REMARK    4  A    between atoms: _27  and  _30
REMARK    5  A    between atoms: _32  and  _33
REMARK    6  A    between atoms: _38  and  _43
REMARK    7  A    between atoms: _43  and  _46
REMARK    8  A    between atoms: _53  and  _55
REMARK                            x       y       z     vdW  Elec       q    Type
REMARK                         _______ _______ _______ _____ _____    ______ ____
ROOT
ATOM     10  C   UNL     1      10.392   9.430  25.854  0.00  0.00    +0.038 A 
ATOM     11  C   UNL     1       9.564  10.558  26.084  0.00  0.00    +0.047 A 
ATOM     12  C   UNL     1       9.620  11.723  25.215  0.00  0.00    +0.035 A 
ATOM     32  C   UNL     1      10.529  11.704  24.117  0.00  0.00    +0.024 A 
ATOM     33  C   UNL     1      11.380  10.566  23.869  0.00  0.00    +0.007 A 
ATOM     34  C   UNL     1      11.331   9.415  24.725  0.00  0.00    -0.029 A 
ATOM     35  C   UNL     1      12.270   8.226  24.415  0.00  0.00    +0.045 C 
ENDROOT
BRANCH  10   9
ATOM      4  C   UNL     1       8.426   5.271  27.222  0.00  0.00    +0.077 A 
ATOM      5  C   UNL     1       7.491   5.287  26.135  0.00  0.00    +0.048 A 
ATOM      6  C   UNL     1       7.545   6.387  25.249  0.00  0.00    +0.116 A 
ATOM      7  N   UNL     1       8.468   7.390  25.447  0.00  0.00    -0.223 NA
ATOM      8  C   UNL     1       9.355   7.344  26.507  0.00  0.00    +0.220 A 
ATOM      9  N   UNL     1      10.297   8.338  26.720  0.00  0.00    -0.283 N 
ATOM     36  H   UNL     1      10.929   8.272  27.518  0.00  0.00    +0.155 HD
ATOM     37  N   UNL     1       9.323   6.306  27.367  0.00  0.00    -0.214 NA
BRANCH   4   3
ATOM      1  C   UNL     1       8.786   1.760  28.909  0.00  0.00    +0.020 A 
ATOM      2  C   UNL     1       8.726   2.779  27.887  0.00  0.00    +0.013 A 
ATOM      3  C   UNL     1       8.496   4.175  28.240  0.00  0.00    +0.019 A 
ATOM     38  C   UNL     1       8.330   4.508  29.647  0.00  0.00    +0.120 A 
ATOM     39  N   UNL     1       8.391   3.504  30.609  0.00  0.00    -0.263 NA
ATOM     40  C   UNL     1       8.610   2.158  30.281  0.00  0.00    +0.111 A 
ENDBRANCH   4   3
ENDBRANCH  10   9
BRANCH  12  13
ATOM     13  N   UNL     1       8.809  12.900  25.404  0.00  0.00    -0.281 N 
ATOM     14  C   UNL     1       7.630  13.235  24.758  0.00  0.00    +0.248 C 
ATOM     30  O   UNL     1       7.204  12.671  23.761  0.00  0.00    -0.270 OA
ATOM     31  H   UNL     1       9.145  13.567  26.098  0.00  0.00    +0.155 HD
BRANCH  14  15
ATOM     15  C   UNL     1       6.813  14.369  25.288  0.00  0.00    +0.037 A 
ATOM     16  C   UNL     1       5.627  14.130  26.114  0.00  0.00    +0.013 A 
ATOM     17  C   UNL     1       4.847  15.242  26.598  0.00  0.00    +0.005 A 
ATOM     18  C   UNL     1       5.254  16.604  26.258  0.00  0.00    -0.033 A 
ATOM     28  C   UNL     1       6.438  16.812  25.441  0.00  0.00    +0.005 A 
ATOM     29  C   UNL     1       7.204  15.724  24.964  0.00  0.00    +0.013 A 
BRANCH  18  19
ATOM     19  C   UNL     1       4.469  17.849  26.713  0.00  0.00    +0.119 C 
BRANCH  19  20
ATOM     20  N   UNL     1       3.771  18.641  25.657  0.00  0.00    -0.302 NA
ATOM     21  C   UNL     1       3.024  19.843  26.241  0.00  0.00    +0.066 C 
ATOM     22  C   UNL     1       2.318  20.674  25.120  0.00  0.00    -0.064 C 
ATOM     23  N   UNL     1       1.363  19.767  24.342  0.00  0.00    +0.379 N 
ATOM     24  C   UNL     1       0.655  20.558  23.325  0.00  0.00    -0.096 C 
ATOM     25  H   UNL     1       0.602  19.382  25.061  0.00  0.00    -0.082 HD
ATOM     26  C   UNL     1       2.097  18.568  23.760  0.00  0.00    -0.064 C 
ATOM     27  C   UNL     1       2.819  17.766  24.879  0.00  0.00    +0.066 C 
ENDBRANCH  19  20
ENDBRANCH  18  19
ENDBRANCH  14  15
ENDBRANCH  12  13
TORSDOF 6
ENDMDL
MODEL 2
REMARK VINA RESULT:      -7.9      5.078     13.414
REMARK  Name = C:\Users\Docking\Desktop\test protocol\1iep_ligandH.pdb
REMARK  8 active torsions:
REMARK  status: ('A' for Active; 'I' for Inactive)
REMARK    1  A    between atoms: _5  and  _11
REMARK    2  A    between atoms: _19  and  _21
REMARK    3  A    between atoms: _22  and  _66
REMARK    4  A    between atoms: _27  and  _30
REMARK    5  A    between atoms: _32  and  _33
REMARK    6  A    between atoms: _38  and  _43
REMARK    7  A    between atoms: _43  and  _46
REMARK    8  A    between atoms: _53  and  _55
REMARK                            x       y       z     vdW  Elec       q    Type
REMARK                         _______ _______ _______ _____ _____    ______ ____
ROOT
ATOM     10  C   UNL     1       8.644  15.947  23.057  0.00  0.00    +0.038 A 
ATOM     11  C   UNL     1       8.945  14.588  23.333  0.00  0.00    +0.047 A 
ATOM     12  C   UNL     1       8.023  13.751  24.084  0.00  0.00    +0.035 A 
ATOM     32  C   UNL     1       6.801  14.329  24.536  0.00  0.00    +0.024 A 
ATOM     33  C   UNL     1       6.479  15.708  24.265  0.00  0.00    +0.007 A 
ATOM     34  C   UNL     1       7.387  16.540  23.527  0.00  0.00    -0.029 A 
ATOM     35  C   UNL     1       6.993  18.013  23.272  0.00  0.00    +0.045 C 
ENDROOT
BRANCH  10   9
ATOM      4  C   UNL     1      10.209  17.944  18.983  0.00  0.00    +0.077 A 
ATOM      5  C   UNL     1       9.110  17.410  18.230  0.00  0.00    +0.048 A 
ATOM      6  C   UNL     1       8.169  16.620  18.927  0.00  0.00    +0.116 A 
ATOM      7  N   UNL     1       8.324  16.389  20.277  0.00  0.00    -0.223 NA
ATOM      8  C   UNL     1       9.395  16.918  20.973  0.00  0.00    +0.220 A 
ATOM      9  N   UNL     1       9.566  16.705  22.332  0.00  0.00    -0.283 N 
ATOM     36  H   UNL     1      10.374  17.106  22.807  0.00  0.00    +0.155 HD
ATOM     37  N   UNL     1      10.309  17.674  20.329  0.00  0.00    -0.214 NA
BRANCH   4   3
ATOM      1  C   UNL     1      13.687  19.531  18.156  0.00  0.00    +0.020 A 
ATOM      2  C   UNL     1      12.688  18.681  18.761  0.00  0.00    +0.013 A 
ATOM      3  C   UNL     1      11.284  18.800  18.388  0.00  0.00    +0.019 A 
ATOM     38  C   UNL     1      10.921  19.797  17.393  0.00  0.00    +0.120 A 
ATOM     39  N   UNL     1      11.905  20.604  16.829  0.00  0.00    -0.263 NA
ATOM     40  C   UNL     1      13.259  20.499  17.181  0.00  0.00    +0.111 A 
ENDBRANCH   4   3
ENDBRANCH  10   9
BRANCH  12  13
ATOM     13  N   UNL     1       8.278  12.368  24.402  0.00  0.00    -0.281 N 
ATOM     14  C   UNL     1       8.021  11.253  23.620  0.00  0.00    +0.248 C 
ATOM     30  O   UNL     1       7.333  11.261  22.610  0.00  0.00    -0.270 OA
ATOM     31  H   UNL     1       8.698  12.189  25.314  0.00  0.00    +0.155 HD
BRANCH  14  15
ATOM     15  C   UNL     1       8.601   9.937  24.027  0.00  0.00    +0.037 A 
ATOM     16  C   UNL     1       9.988   9.827  24.486  0.00  0.00    +0.013 A 
ATOM     17  C   UNL     1      10.528   8.543  24.856  0.00  0.00    +0.005 A 
ATOM     18  C   UNL     1       9.678   7.357  24.771  0.00  0.00    -0.033 A 
ATOM     28  C   UNL     1       8.304   7.496  24.317  0.00  0.00    +0.005 A 
ATOM     29  C   UNL     1       7.772   8.753  23.952  0.00  0.00    +0.013 A 
BRANCH  18  19
ATOM     19  C   UNL     1      10.177   5.944  25.125  0.00  0.00    +0.119 C 
BRANCH  19  20
ATOM     20  N   UNL     1       9.392   5.176  26.137  0.00  0.00    -0.302 NA
ATOM     21  C   UNL     1       9.851   5.473  27.567  0.00  0.00    +0.066 C 
ATOM     22  C   UNL     1       9.004   4.679  28.614  0.00  0.00    -0.064 C 
ATOM     23  N   UNL     1       9.101   3.182  28.314  0.00  0.00    +0.379 N 
ATOM     24  C   UNL     1       8.354   2.429  29.331  0.00  0.00    -0.096 C 
ATOM     25  H   UNL     1      10.174   2.890  28.397  0.00  0.00    -0.082 HD
ATOM     26  C   UNL     1       8.649   2.878  26.893  0.00  0.00    -0.064 C 
ATOM     27  C   UNL     1       9.477   3.695  25.863  0.00  0.00    +0.066 C 
ENDBRANCH  19  20
ENDBRANCH  18  19
ENDBRANCH  14  15
ENDBRANCH  12  13
TORSDOF 6
ENDMDL
MODEL 3
REMARK VINA RESULT:      -7.8      6.566      9.339
REMARK  Name = C:\Users\Docking\Desktop\test protocol\1iep_ligandH.pdb
REMARK  8 active torsions:
REMARK  status: ('A' for Active; 'I' for Inactive)
REMARK    1  A    between atoms: _5  and  _11
REMARK    2  A    between atoms: _19  and  _21
REMARK    3  A    between atoms: _22  and  _66
REMARK    4  A    between atoms: _27  and  _30
REMARK    5  A    between atoms: _32  and  _33
REMARK    6  A    between atoms: _38  and  _43
REMARK    7  A    between atoms: _43  and  _46
REMARK    8  A    between atoms: _53  and  _55
REMARK                            x       y       z     vdW  Elec       q    Type
REMARK                         _______ _______ _______ _____ _____    ______ ____
ROOT
ATOM     10  C   UNL     1       8.990   9.564  24.664  0.00  0.00    +0.038 A 
ATOM     11  C   UNL     1       8.881   9.263  23.282  0.00  0.00    +0.047 A 
ATOM     12  C   UNL     1       8.655  10.312  22.299  0.00  0.00    +0.035 A 
ATOM     32  C   UNL     1       8.549  11.657  22.759  0.00  0.00    +0.024 A 
ATOM     33  C   UNL     1       8.657  11.980  24.160  0.00  0.00    +0.007 A 
ATOM     34  C   UNL     1       8.877  10.950  25.134  0.00  0.00    -0.029 A 
ATOM     35  C   UNL     1       8.978  11.353  26.624  0.00  0.00    +0.045 C 
ENDROOT
BRANCH  10   9
ATOM      4  C   UNL     1       7.714   5.422  26.726  0.00  0.00    +0.077 A 
ATOM      5  C   UNL     1       6.500   5.349  25.966  0.00  0.00    +0.048 A 
ATOM      6  C   UNL     1       6.237   6.401  25.060  0.00  0.00    +0.116 A 
ATOM      7  N   UNL     1       7.130   7.443  24.932  0.00  0.00    -0.223 NA
ATOM      8  C   UNL     1       8.291   7.484  25.682  0.00  0.00    +0.220 A 
ATOM      9  N   UNL     1       9.207   8.518  25.563  0.00  0.00    -0.283 N 
ATOM     36  H   UNL     1      10.049   8.515  26.140  0.00  0.00    +0.155 HD
ATOM     37  N   UNL     1       8.564   6.491  26.555  0.00  0.00    -0.214 NA
BRANCH   4   3
ATOM      1  C   UNL     1       8.557   3.588  30.077  0.00  0.00    +0.020 A 
ATOM      2  C   UNL     1       8.143   4.624  29.159  0.00  0.00    +0.013 A 
ATOM      3  C   UNL     1       8.134   4.385  27.721  0.00  0.00    +0.019 A 
ATOM     38  C   UNL     1       8.551   3.075  27.241  0.00  0.00    +0.120 A 
ATOM     39  N   UNL     1       8.945   2.098  28.149  0.00  0.00    -0.263 NA
ATOM     40  C   UNL     1       8.960   2.317  29.535  0.00  0.00    +0.111 A 
ENDBRANCH   4   3
ENDBRANCH  10   9
BRANCH  12  13
ATOM     13  N   UNL     1       8.527  10.066  20.884  0.00  0.00    -0.281 N 
ATOM     14  C   UNL     1       9.535  10.011  19.935  0.00  0.00    +0.248 C 
ATOM     30  O   UNL     1      10.684  10.379  20.126  0.00  0.00    -0.270 OA
ATOM     31  H   UNL     1       7.579   9.914  20.541  0.00  0.00    +0.155 HD
BRANCH  14  15
ATOM     15  C   UNL     1       9.215   9.485  18.573  0.00  0.00    +0.037 A 
ATOM     16  C   UNL     1       7.830   9.346  18.118  0.00  0.00    +0.013 A 
ATOM     17  C   UNL     1       7.549   8.820  16.805  0.00  0.00    +0.005 A 
ATOM     18  C   UNL     1       8.658   8.431  15.938  0.00  0.00    -0.033 A 
ATOM     28  C   UNL     1      10.023   8.584  16.413  0.00  0.00    +0.005 A 
ATOM     29  C   UNL     1      10.302   9.098  17.699  0.00  0.00    +0.013 A 
BRANCH  18  19
ATOM     19  C   UNL     1       8.451   7.840  14.530  0.00  0.00    +0.119 C 
BRANCH  19  20
ATOM     20  N   UNL     1       8.519   8.786  13.376  0.00  0.00    -0.302 NA
ATOM     21  C   UNL     1       9.945   8.938  12.841  0.00  0.00    +0.066 C 
ATOM     22  C   UNL     1       9.994   9.913  11.620  0.00  0.00    -0.064 C 
ATOM     23  N   UNL     1       9.422  11.270  12.031  0.00  0.00    +0.379 N 
ATOM     24  C   UNL     1       9.520  12.206  10.901  0.00  0.00    -0.096 C 
ATOM     25  H   UNL     1      10.056  11.669  12.856  0.00  0.00    -0.082 HD
ATOM     26  C   UNL     1       8.004  11.127  12.566  0.00  0.00    -0.064 C 
ATOM     27  C   UNL     1       7.962  10.134  13.761  0.00  0.00    +0.066 C 
ENDBRANCH  19  20
ENDBRANCH  18  19
ENDBRANCH  14  15
ENDBRANCH  12  13
TORSDOF 6
ENDMDL
MODEL 4
REMARK VINA RESULT:      -7.8      6.947     10.198
REMARK  Name = C:\Users\Docking\Desktop\test protocol\1iep_ligandH.pdb
REMARK  8 active torsions:
REMARK  status: ('A' for Active; 'I' for Inactive)
REMARK    1  A    between atoms: _5  and  _11
REMARK    2  A    between atoms: _19  and  _21
REMARK    3  A    between atoms: _22  and  _66
REMARK    4  A    between atoms: _27  and  _30
REMARK    5  A    between atoms: _32  and  _33
REMARK    6  A    between atoms: _38  and  _43
REMARK    7  A    between atoms: _43  and  _46
REMARK    8  A    between atoms: _53  and  _55
REMARK                            x       y       z     vdW  Elec       q    Type
REMARK                         _______ _______ _______ _____ _____    ______ ____
ROOT
ATOM     10  C   UNL     1       8.483  10.102  23.902  0.00  0.00    +0.038 A 
ATOM     11  C   UNL     1       8.994   9.843  22.604  0.00  0.00    +0.047 A 
ATOM     12  C   UNL     1       8.597  10.653  21.463  0.00  0.00    +0.035 A 
ATOM     32  C   UNL     1       7.679  11.721  21.680  0.00  0.00    +0.024 A 
ATOM     33  C   UNL     1       7.149  11.998  22.992  0.00  0.00    +0.007 A 
ATOM     34  C   UNL     1       7.535  11.201  24.121  0.00  0.00    -0.029 A 
ATOM     35  C   UNL     1       6.930  11.539  25.503  0.00  0.00    +0.045 C 
ENDROOT
BRANCH  10   9
ATOM      4  C   UNL     1       8.059   6.203  26.669  0.00  0.00    +0.077 A 
ATOM      5  C   UNL     1       6.895   5.754  25.960  0.00  0.00    +0.048 A 
ATOM      6  C   UNL     1       6.433   6.559  24.895  0.00  0.00    +0.116 A 
ATOM      7  N   UNL     1       7.095   7.724  24.570  0.00  0.00    -0.223 NA
ATOM      8  C   UNL     1       8.214   8.129  25.275  0.00  0.00    +0.220 A 
ATOM      9  N   UNL     1       8.899   9.292  24.961  0.00  0.00    -0.283 N 
ATOM     36  H   UNL     1       9.716   9.560  25.510  0.00  0.00    +0.155 HD
ATOM     37  N   UNL     1       8.673   7.378  26.298  0.00  0.00    -0.214 NA
BRANCH   4   3
ATOM      1  C   UNL     1      10.596   4.899  29.345  0.00  0.00    +0.020 A 
ATOM      2  C   UNL     1      10.056   5.641  28.229  0.00  0.00    +0.013 A 
ATOM      3  C   UNL     1       8.670   5.460  27.816  0.00  0.00    +0.019 A 
ATOM     38  C   UNL     1       7.851   4.513  28.558  0.00  0.00    +0.120 A 
ATOM     39  N   UNL     1       8.400   3.812  29.627  0.00  0.00    -0.263 NA
ATOM     40  C   UNL     1       9.732   3.976  30.033  0.00  0.00    +0.111 A 
ENDBRANCH   4   3
ENDBRANCH  10   9
BRANCH  12  13
ATOM     13  N   UNL     1       9.077  10.432  20.121  0.00  0.00    -0.281 N 
ATOM     14  C   UNL     1      10.223  10.940  19.533  0.00  0.00    +0.248 C 
ATOM     30  O   UNL     1      10.903  11.838  20.006  0.00  0.00    -0.270 OA
ATOM     31  H   UNL     1       8.501   9.828  19.535  0.00  0.00    +0.155 HD
BRANCH  14  15
ATOM     15  C   UNL     1      10.671  10.379  18.222  0.00  0.00    +0.037 A 
ATOM     16  C   UNL     1      10.730   8.933  17.995  0.00  0.00    +0.013 A 
ATOM     17  C   UNL     1      11.182   8.418  16.726  0.00  0.00    +0.005 A 
ATOM     18  C   UNL     1      11.577   9.351  15.674  0.00  0.00    -0.033 A 
ATOM     28  C   UNL     1      11.503  10.781  15.924  0.00  0.00    +0.005 A 
ATOM     29  C   UNL     1      11.062  11.289  17.166  0.00  0.00    +0.013 A 
BRANCH  18  19
ATOM     19  C   UNL     1      12.091   8.890  14.297  0.00  0.00    +0.119 C 
BRANCH  19  20
ATOM     20  N   UNL     1      11.570   9.610  13.097  0.00  0.00    -0.302 NA
ATOM     21  C   UNL     1      10.114   9.244  12.795  0.00  0.00    +0.066 C 
ATOM     22  C   UNL     1       9.578  10.023  11.550  0.00  0.00    -0.064 C 
ATOM     23  N   UNL     1      10.472   9.728  10.344  0.00  0.00    +0.379 N 
ATOM     24  C   UNL     1       9.937  10.412   9.158  0.00  0.00    -0.096 C 
ATOM     25  H   UNL     1      10.427   8.631  10.150  0.00  0.00    -0.082 HD
ATOM     26  C   UNL     1      11.922  10.086  10.636  0.00  0.00    -0.064 C 
ATOM     27  C   UNL     1      12.436   9.329  11.893  0.00  0.00    +0.066 C 
ENDBRANCH  19  20
ENDBRANCH  18  19
ENDBRANCH  14  15
ENDBRANCH  12  13
TORSDOF 6
ENDMDL
MODEL 5
REMARK VINA RESULT:      -7.4     23.437     25.937
REMARK  Name = C:\Users\Docking\Desktop\test protocol\1iep_ligandH.pdb
REMARK  8 active torsions:
REMARK  status: ('A' for Active; 'I' for Inactive)
REMARK    1  A    between atoms: _5  and  _11
REMARK    2  A    between atoms: _19  and  _21
REMARK    3  A    between atoms: _22  and  _66
REMARK    4  A    between atoms: _27  and  _30
REMARK    5  A    between atoms: _32  and  _33
REMARK    6  A    between atoms: _38  and  _43
REMARK    7  A    between atoms: _43  and  _46
REMARK    8  A    between atoms: _53  and  _55
REMARK                            x       y       z     vdW  Elec       q    Type
REMARK                         _______ _______ _______ _____ _____    ______ ____
ROOT
ATOM     10  C   UNL     1      -3.553   6.852   7.718  0.00  0.00    +0.038 A 
ATOM     11  C   UNL     1      -3.611   7.297   6.373  0.00  0.00    +0.047 A 
ATOM     12  C   UNL     1      -4.264   6.503   5.344  0.00  0.00    +0.035 A 
ATOM     32  C   UNL     1      -4.850   5.259   5.722  0.00  0.00    +0.024 A 
ATOM     33  C   UNL     1      -4.799   4.791   7.084  0.00  0.00    +0.007 A 
ATOM     34  C   UNL     1      -4.154   5.569   8.103  0.00  0.00    -0.029 A 
ATOM     35  C   UNL     1      -4.124   5.015   9.546  0.00  0.00    +0.045 C 
ENDROOT
BRANCH  10   9
ATOM      4  C   UNL     1      -3.591  10.272  11.085  0.00  0.00    +0.077 A 
ATOM      5  C   UNL     1      -4.999  10.496  10.926  0.00  0.00    +0.048 A 
ATOM      6  C   UNL     1      -5.675   9.715   9.962  0.00  0.00    +0.116 A 
ATOM      7  N   UNL     1      -4.985   8.783   9.218  0.00  0.00    -0.223 NA
ATOM      8  C   UNL     1      -3.626   8.593   9.396  0.00  0.00    +0.220 A 
ATOM      9  N   UNL     1      -2.913   7.655   8.665  0.00  0.00    -0.283 N 
ATOM     36  H   UNL     1      -1.911   7.551   8.820  0.00  0.00    +0.155 HD
ATOM     37  N   UNL     1      -2.958   9.327  10.309  0.00  0.00    -0.214 NA
BRANCH   4   3
ATOM      1  C   UNL     1      -1.873  11.456  14.394  0.00  0.00    +0.020 A 
ATOM      2  C   UNL     1      -2.715  10.707  13.489  0.00  0.00    +0.013 A 
ATOM      3  C   UNL     1      -2.738  11.016  12.065  0.00  0.00    +0.019 A 
ATOM     38  C   UNL     1      -1.890  12.097  11.584  0.00  0.00    +0.120 A 
ATOM     39  N   UNL     1      -1.091  12.802  12.479  0.00  0.00    -0.263 NA
ATOM     40  C   UNL     1      -1.061  12.515  13.851  0.00  0.00    +0.111 A 
ENDBRANCH   4   3
ENDBRANCH  10   9
BRANCH  12  13
ATOM     13  N   UNL     1      -4.347   6.900   3.961  0.00  0.00    -0.281 N 
ATOM     14  C   UNL     1      -5.230   7.798   3.384  0.00  0.00    +0.248 C 
ATOM     30  O   UNL     1      -6.227   8.238   3.936  0.00  0.00    -0.270 OA
ATOM     31  H   UNL     1      -3.673   6.466   3.330  0.00  0.00    +0.155 HD
BRANCH  14  15
ATOM     15  C   UNL     1      -4.977   8.263   1.986  0.00  0.00    +0.037 A 
ATOM     16  C   UNL     1      -5.966   8.056   0.925  0.00  0.00    +0.013 A 
ATOM     17  C   UNL     1      -5.689   8.499  -0.418  0.00  0.00    +0.005 A 
ATOM     18  C   UNL     1      -4.417   9.157  -0.707  0.00  0.00    -0.033 A 
ATOM     28  C   UNL     1      -3.456   9.354   0.365  0.00  0.00    +0.005 A 
ATOM     29  C   UNL     1      -3.724   8.920   1.683  0.00  0.00    +0.013 A 
BRANCH  18  19
ATOM     19  C   UNL     1      -4.029   9.643  -2.116  0.00  0.00    +0.119 C 
BRANCH  19  20
ATOM     20  N   UNL     1      -4.314   8.726  -3.259  0.00  0.00    -0.302 NA
ATOM     21  C   UNL     1      -3.038   8.089  -3.817  0.00  0.00    +0.066 C 
ATOM     22  C   UNL     1      -3.358   7.115  -4.998  0.00  0.00    -0.064 C 
ATOM     23  N   UNL     1      -4.108   7.875  -6.094  0.00  0.00    +0.379 N 
ATOM     24  C   UNL     1      -4.358   6.976  -7.230  0.00  0.00    -0.096 C 
ATOM     25  H   UNL     1      -3.443   8.695  -6.451  0.00  0.00    -0.082 HD
ATOM     26  C   UNL     1      -5.376   8.513  -5.547  0.00  0.00    -0.064 C 
ATOM     27  C   UNL     1      -5.051   9.456  -4.355  0.00  0.00    +0.066 C 
ENDBRANCH  19  20
ENDBRANCH  18  19
ENDBRANCH  14  15
ENDBRANCH  12  13
TORSDOF 6
ENDMDL
