MODEL 1
REMARK VINA RESULT:      -8.1      0.000      0.000
REMARK  Name = C:\Users\Docking\Desktop\test protocol\1iep_ligandH.pdb
REMARK  8 active torsions:
REMARK  status: ('A' for Active; 'I' for Inactive)
REMARK    1  A    between atoms: _5  and  _11
REMARK    2  A    between atoms: _19  and  _21
REMARK    3  A    between atoms: _22  and  _66
REMARK    4  A    between atoms: _27  and  _30
REMARK    5  A    between atoms: _32  and  _33
REMARK    6  A    between atoms: _38  and  _43
REMARK    7  A    between atoms: _43  and  _46
REMARK    8  A    between atoms: _53  and  _55
REMARK                            x       y       z     vdW  Elec       q    Type
REMARK                         _______ _______ _______ _____ _____    ______ ____
ROOT
ATOM     10  C   UNL     1      -4.079  -4.230   4.296  0.00  0.00    +0.038 A 
ATOM     11  C   UNL     1      -4.409  -2.855   4.182  0.00  0.00    +0.047 A 
ATOM     12  C   UNL     1      -4.568  -2.225   2.881  0.00  0.00    +0.035 A 
ATOM     32  C   UNL     1      -4.386  -3.025   1.716  0.00  0.00    +0.024 A 
ATOM     33  C   UNL     1      -4.050  -4.424   1.813  0.00  0.00    +0.007 A 
ATOM     34  C   UNL     1      -3.890  -5.051   3.094  0.00  0.00    -0.029 A 
ATOM     35  C   UNL     1      -3.522  -6.552   3.138  0.00  0.00    +0.045 C 
ENDROOT
BRANCH  10   9
ATOM      4  C   UNL     1      -1.471  -5.310   8.178  0.00  0.00    +0.077 A 
ATOM      5  C   UNL     1      -0.281  -4.748   7.607  0.00  0.00    +0.048 A 
ATOM      6  C   UNL     1      -0.381  -4.197   6.310  0.00  0.00    +0.116 A 
ATOM      7  N   UNL     1      -1.586  -4.213   5.642  0.00  0.00    -0.223 NA
ATOM      8  C   UNL     1      -2.715  -4.764   6.221  0.00  0.00    +0.220 A 
ATOM      9  N   UNL     1      -3.939  -4.783   5.571  0.00  0.00    -0.283 N 
ATOM     36  H   UNL     1      -4.746  -5.206   6.028  0.00  0.00    +0.155 HD
ATOM     37  N   UNL     1      -2.645  -5.298   7.458  0.00  0.00    -0.214 NA
BRANCH   4   3
ATOM      1  C   UNL     1      -0.491  -7.169  11.477  0.00  0.00    +0.020 A 
ATOM      2  C   UNL     1      -0.385  -6.590  10.158  0.00  0.00    +0.013 A 
ATOM      3  C   UNL     1      -1.527  -5.927   9.541  0.00  0.00    +0.019 A 
ATOM     38  C   UNL     1      -2.772  -5.866  10.292  0.00  0.00    +0.120 A 
ATOM     39  N   UNL     1      -2.845  -6.434  11.560  0.00  0.00    -0.263 NA
ATOM     40  C   UNL     1      -1.753  -7.076  12.163  0.00  0.00    +0.111 A 
ENDBRANCH   4   3
ENDBRANCH  10   9
BRANCH  12  13
ATOM     13  N   UNL     1      -4.894  -0.831   2.703  0.00  0.00    -0.281 N 
ATOM     14  C   UNL     1      -6.029  -0.290   2.122  0.00  0.00    +0.248 C 
ATOM     30  O   UNL     1      -6.843  -0.927   1.472  0.00  0.00    -0.270 OA
ATOM     31  H   UNL     1      -4.204  -0.163   3.047  0.00  0.00    +0.155 HD
BRANCH  14  15
ATOM     15  C   UNL     1      -6.289   1.174   2.274  0.00  0.00    +0.037 A 
ATOM     16  C   UNL     1      -5.285   2.068   2.857  0.00  0.00    +0.013 A 
ATOM     17  C   UNL     1      -5.568   3.474   3.008  0.00  0.00    +0.005 A 
ATOM     18  C   UNL     1      -6.862   3.994   2.573  0.00  0.00    -0.033 A 
ATOM     28  C   UNL     1      -7.838   3.086   1.993  0.00  0.00    +0.005 A 
ATOM     29  C   UNL     1      -7.564   1.708   1.844  0.00  0.00    +0.013 A 
BRANCH  18  19
ATOM     19  C   UNL     1      -7.258   5.476   2.715  0.00  0.00    +0.119 C 
BRANCH  19  20
ATOM     20  N   UNL     1      -7.255   6.056   4.091  0.00  0.00    -0.302 NA
ATOM     21  C   UNL     1      -7.988   5.160   5.093  0.00  0.00    +0.066 C 
ATOM     22  C   UNL     1      -7.955   5.771   6.532  0.00  0.00    -0.064 C 
ATOM     23  N   UNL     1      -8.571   7.171   6.503  0.00  0.00    +0.379 N 
ATOM     24  C   UNL     1      -8.594   7.725   7.865  0.00  0.00    -0.096 C 
ATOM     25  H   UNL     1      -9.628   7.067   6.162  0.00  0.00    -0.082 HD
ATOM     26  C   UNL     1      -7.850   8.067   5.507  0.00  0.00    -0.064 C 
ATOM     27  C   UNL     1      -7.863   7.436   4.086  0.00  0.00    +0.066 C 
ENDBRANCH  19  20
ENDBRANCH  18  19
ENDBRANCH  14  15
ENDBRANCH  12  13
TORSDOF 6
ENDMDL
MODEL 2
REMARK VINA RESULT:      -7.9      3.468     12.221
REMARK  Name = C:\Users\Docking\Desktop\test protocol\1iep_ligandH.pdb
REMARK  8 active torsions:
REMARK  status: ('A' for Active; 'I' for Inactive)
REMARK    1  A    between atoms: _5  and  _11
REMARK    2  A    between atoms: _19  and  _21
REMARK    3  A    between atoms: _22  and  _66
REMARK    4  A    between atoms: _27  and  _30
REMARK    5  A    between atoms: _32  and  _33
REMARK    6  A    between atoms: _38  and  _43
REMARK    7  A    between atoms: _43  and  _46
REMARK    8  A    between atoms: _53  and  _55
REMARK                            x       y       z     vdW  Elec       q    Type
REMARK                         _______ _______ _______ _____ _____    ______ ____
ROOT
ATOM     10  C   UNL     1      -4.177   3.488   3.121  0.00  0.00    +0.038 A 
ATOM     11  C   UNL     1      -3.951   2.209   3.690  0.00  0.00    +0.047 A 
ATOM     12  C   UNL     1      -3.675   1.051   2.853  0.00  0.00    +0.035 A 
ATOM     32  C   UNL     1      -3.636   1.233   1.440  0.00  0.00    +0.024 A 
ATOM     33  C   UNL     1      -3.865   2.527   0.844  0.00  0.00    +0.007 A 
ATOM     34  C   UNL     1      -4.140   3.672   1.665  0.00  0.00    -0.029 A 
ATOM     35  C   UNL     1      -4.384   5.032   0.972  0.00  0.00    +0.045 C 
ENDROOT
BRANCH  10   9
ATOM      4  C   UNL     1      -7.126   6.104   5.859  0.00  0.00    +0.077 A 
ATOM      5  C   UNL     1      -8.251   5.270   5.548  0.00  0.00    +0.048 A 
ATOM      6  C   UNL     1      -8.030   4.182   4.673  0.00  0.00    +0.116 A 
ATOM      7  N   UNL     1      -6.774   3.955   4.155  0.00  0.00    -0.223 NA
ATOM      8  C   UNL     1      -5.711   4.780   4.475  0.00  0.00    +0.220 A 
ATOM      9  N   UNL     1      -4.437   4.565   3.971  0.00  0.00    -0.283 N 
ATOM     36  H   UNL     1      -3.681   5.201   4.225  0.00  0.00    +0.155 HD
ATOM     37  N   UNL     1      -5.896   5.826   5.306  0.00  0.00    -0.214 NA
BRANCH   4   3
ATOM      1  C   UNL     1      -8.357   8.706   8.508  0.00  0.00    +0.020 A 
ATOM      2  C   UNL     1      -8.336   7.546   7.647  0.00  0.00    +0.013 A 
ATOM      3  C   UNL     1      -7.200   7.289   6.771  0.00  0.00    +0.019 A 
ATOM     38  C   UNL     1      -6.092   8.233   6.791  0.00  0.00    +0.120 A 
ATOM     39  N   UNL     1      -6.141   9.342   7.629  0.00  0.00    -0.263 NA
ATOM     40  C   UNL     1      -7.229   9.600   8.476  0.00  0.00    +0.111 A 
ENDBRANCH   4   3
ENDBRANCH  10   9
BRANCH  12  13
ATOM     13  N   UNL     1      -3.445  -0.273   3.373  0.00  0.00    -0.281 N 
ATOM     14  C   UNL     1      -4.216  -1.409   3.184  0.00  0.00    +0.248 C 
ATOM     30  O   UNL     1      -5.343  -1.408   2.710  0.00  0.00    -0.270 OA
ATOM     31  H   UNL     1      -2.613  -0.388   3.951  0.00  0.00    +0.155 HD
BRANCH  14  15
ATOM     15  C   UNL     1      -3.662  -2.735   3.592  0.00  0.00    +0.037 A 
ATOM     16  C   UNL     1      -4.377  -3.601   4.532  0.00  0.00    +0.013 A 
ATOM     17  C   UNL     1      -3.812  -4.868   4.923  0.00  0.00    +0.005 A 
ATOM     18  C   UNL     1      -2.522  -5.277   4.372  0.00  0.00    -0.033 A 
ATOM     28  C   UNL     1      -1.836  -4.401   3.437  0.00  0.00    +0.005 A 
ATOM     29  C   UNL     1      -2.387  -3.158   3.053  0.00  0.00    +0.013 A 
BRANCH  18  19
ATOM     19  C   UNL     1      -1.833  -6.602   4.749  0.00  0.00    +0.119 C 
BRANCH  19  20
ATOM     20  N   UNL     1      -1.734  -7.647   3.687  0.00  0.00    -0.302 NA
ATOM     21  C   UNL     1      -0.538  -7.413   2.760  0.00  0.00    +0.066 C 
ATOM     22  C   UNL     1      -0.436  -8.529   1.670  0.00  0.00    -0.064 C 
ATOM     23  N   UNL     1      -1.739  -8.577   0.870  0.00  0.00    +0.379 N 
ATOM     24  C   UNL     1      -1.625  -9.585  -0.194  0.00  0.00    -0.096 C 
ATOM     25  H   UNL     1      -1.873  -7.583   0.382  0.00  0.00    -0.082 HD
ATOM     26  C   UNL     1      -2.934  -8.807   1.784  0.00  0.00    -0.064 C 
ATOM     27  C   UNL     1      -3.009  -7.709   2.883  0.00  0.00    +0.066 C 
ENDBRANCH  19  20
ENDBRANCH  18  19
ENDBRANCH  14  15
ENDBRANCH  12  13
TORSDOF 6
ENDMDL
MODEL 3
REMARK VINA RESULT:      -7.8      7.536     12.489
REMARK  Name = C:\Users\Docking\Desktop\test protocol\1iep_ligandH.pdb
REMARK  8 active torsions:
REMARK  status: ('A' for Active; 'I' for Inactive)
REMARK    1  A    between atoms: _5  and  _11
REMARK    2  A    between atoms: _19  and  _21
REMARK    3  A    between atoms: _22  and  _66
REMARK    4  A    between atoms: _27  and  _30
REMARK    5  A    between atoms: _32  and  _33
REMARK    6  A    between atoms: _38  and  _43
REMARK    7  A    between atoms: _43  and  _46
REMARK    8  A    between atoms: _53  and  _55
REMARK                            x       y       z     vdW  Elec       q    Type
REMARK                         _______ _______ _______ _____ _____    ______ ____
ROOT
ATOM     10  C   UNL     1      -9.954   5.463   1.041  0.00  0.00    +0.038 A 
ATOM     11  C   UNL     1      -9.900   4.051   0.910  0.00  0.00    +0.047 A 
ATOM     12  C   UNL     1     -10.002   3.411  -0.392  0.00  0.00    +0.035 A 
ATOM     32  C   UNL     1     -10.155   4.240  -1.542  0.00  0.00    +0.024 A 
ATOM     33  C   UNL     1     -10.213   5.676  -1.427  0.00  0.00    +0.007 A 
ATOM     34  C   UNL     1     -10.116   6.313  -0.145  0.00  0.00    -0.029 A 
ATOM     35  C   UNL     1     -10.190   7.856  -0.082  0.00  0.00    +0.045 C 
ENDROOT
BRANCH  10   9
ATOM      4  C   UNL     1      -7.385   7.052   4.770  0.00  0.00    +0.077 A 
ATOM      5  C   UNL     1      -6.144   6.711   4.137  0.00  0.00    +0.048 A 
ATOM      6  C   UNL     1      -6.211   6.122   2.855  0.00  0.00    +0.116 A 
ATOM      7  N   UNL     1      -7.433   5.896   2.259  0.00  0.00    -0.223 NA
ATOM      8  C   UNL     1      -8.611   6.235   2.899  0.00  0.00    +0.220 A 
ATOM      9  N   UNL     1      -9.851   6.024   2.315  0.00  0.00    -0.283 N 
ATOM     36  H   UNL     1     -10.697   6.281   2.823  0.00  0.00    +0.155 HD
ATOM     37  N   UNL     1      -8.574   6.798   4.124  0.00  0.00    -0.214 NA
BRANCH   4   3
ATOM      1  C   UNL     1      -8.657   8.118   8.313  0.00  0.00    +0.020 A 
ATOM      2  C   UNL     1      -8.616   7.484   7.015  0.00  0.00    +0.013 A 
ATOM      3  C   UNL     1      -7.479   7.685   6.124  0.00  0.00    +0.019 A 
ATOM     38  C   UNL     1      -6.393   8.538   6.581  0.00  0.00    +0.120 A 
ATOM     39  N   UNL     1      -6.461   9.136   7.836  0.00  0.00    -0.263 NA
ATOM     40  C   UNL     1      -7.550   8.952   8.700  0.00  0.00    +0.111 A 
ENDBRANCH   4   3
ENDBRANCH  10   9
BRANCH  12  13
ATOM     13  N   UNL     1      -9.962   1.983  -0.585  0.00  0.00    -0.281 N 
ATOM     14  C   UNL     1      -8.886   1.129  -0.402  0.00  0.00    +0.248 C 
ATOM     30  O   UNL     1      -7.731   1.495  -0.249  0.00  0.00    -0.270 OA
ATOM     31  H   UNL     1     -10.831   1.549  -0.894  0.00  0.00    +0.155 HD
BRANCH  14  15
ATOM     15  C   UNL     1      -9.128  -0.346  -0.404  0.00  0.00    +0.037 A 
ATOM     16  C   UNL     1     -10.130  -0.951  -1.286  0.00  0.00    +0.013 A 
ATOM     17  C   UNL     1     -10.354  -2.375  -1.255  0.00  0.00    +0.005 A 
ATOM     18  C   UNL     1      -9.573  -3.204  -0.340  0.00  0.00    -0.033 A 
ATOM     28  C   UNL     1      -8.582  -2.578   0.519  0.00  0.00    +0.005 A 
ATOM     29  C   UNL     1      -8.360  -1.183   0.493  0.00  0.00    +0.013 A 
BRANCH  18  19
ATOM     19  C   UNL     1      -9.761  -4.728  -0.226  0.00  0.00    +0.119 C 
BRANCH  19  20
ATOM     20  N   UNL     1     -10.939  -5.215   0.553  0.00  0.00    -0.302 NA
ATOM     21  C   UNL     1     -10.528  -6.161   1.685  0.00  0.00    +0.066 C 
ATOM     22  C   UNL     1     -11.769  -6.643   2.503  0.00  0.00    -0.064 C 
ATOM     23  N   UNL     1     -12.763  -7.326   1.561  0.00  0.00    +0.379 N 
ATOM     24  C   UNL     1     -13.905  -7.832   2.337  0.00  0.00    -0.096 C 
ATOM     25  H   UNL     1     -12.249  -8.203   1.105  0.00  0.00    -0.082 HD
ATOM     26  C   UNL     1     -13.175  -6.393   0.431  0.00  0.00    -0.064 C 
ATOM     27  C   UNL     1     -11.931  -5.896  -0.357  0.00  0.00    +0.066 C 
ENDBRANCH  19  20
ENDBRANCH  18  19
ENDBRANCH  14  15
ENDBRANCH  12  13
TORSDOF 6
ENDMDL
MODEL 4
REMARK VINA RESULT:      -7.7      2.444      2.959
REMARK  Name = C:\Users\Docking\Desktop\test protocol\1iep_ligandH.pdb
REMARK  8 active torsions:
REMARK  status: ('A' for Active; 'I' for Inactive)
REMARK    1  A    between atoms: _5  and  _11
REMARK    2  A    between atoms: _19  and  _21
REMARK    3  A    between atoms: _22  and  _66
REMARK    4  A    between atoms: _27  and  _30
REMARK    5  A    between atoms: _32  and  _33
REMARK    6  A    between atoms: _38  and  _43
REMARK    7  A    between atoms: _43  and  _46
REMARK    8  A    between atoms: _53  and  _55
REMARK                            x       y       z     vdW  Elec       q    Type
REMARK                         _______ _______ _______ _____ _____    ______ ____
ROOT
ATOM     10  C   UNL     1      -3.228  -4.380   4.837  0.00  0.00    +0.038 A 
ATOM     11  C   UNL     1      -3.726  -3.055   4.748  0.00  0.00    +0.047 A 
ATOM     12  C   UNL     1      -3.715  -2.329   3.487  0.00  0.00    +0.035 A 
ATOM     32  C   UNL     1      -3.191  -2.985   2.335  0.00  0.00    +0.024 A 
ATOM     33  C   UNL     1      -2.680  -4.331   2.408  0.00  0.00    +0.007 A 
ATOM     34  C   UNL     1      -2.686  -5.051   3.649  0.00  0.00    -0.029 A 
ATOM     35  C   UNL     1      -2.119  -6.490   3.670  0.00  0.00    +0.045 C 
ENDROOT
BRANCH  10   9
ATOM      4  C   UNL     1      -1.197  -5.717   8.975  0.00  0.00    +0.077 A 
ATOM      5  C   UNL     1       0.049  -5.092   8.634  0.00  0.00    +0.048 A 
ATOM      6  C   UNL     1       0.127  -4.443   7.381  0.00  0.00    +0.116 A 
ATOM      7  N   UNL     1      -0.964  -4.426   6.541  0.00  0.00    -0.223 NA
ATOM      8  C   UNL     1      -2.150  -5.040   6.899  0.00  0.00    +0.220 A 
ATOM      9  N   UNL     1      -3.263  -5.029   6.073  0.00  0.00    -0.283 N 
ATOM     36  H   UNL     1      -4.117  -5.500   6.371  0.00  0.00    +0.155 HD
ATOM     37  N   UNL     1      -2.250  -5.668   8.089  0.00  0.00    -0.214 NA
BRANCH   4   3
ATOM      1  C   UNL     1      -2.902  -7.144  12.193  0.00  0.00    +0.020 A 
ATOM      2  C   UNL     1      -2.722  -6.429  10.950  0.00  0.00    +0.013 A 
ATOM      3  C   UNL     1      -1.437  -6.440  10.264  0.00  0.00    +0.019 A 
ATOM     38  C   UNL     1      -0.345  -7.190  10.866  0.00  0.00    +0.120 A 
ATOM     39  N   UNL     1      -0.547  -7.868  12.064  0.00  0.00    -0.263 NA
ATOM     40  C   UNL     1      -1.779  -7.863  12.735  0.00  0.00    +0.111 A 
ENDBRANCH   4   3
ENDBRANCH  10   9
BRANCH  12  13
ATOM     13  N   UNL     1      -4.200  -0.980   3.338  0.00  0.00    -0.281 N 
ATOM     14  C   UNL     1      -3.479   0.151   2.990  0.00  0.00    +0.248 C 
ATOM     30  O   UNL     1      -2.258   0.210   2.961  0.00  0.00    -0.270 OA
ATOM     31  H   UNL     1      -5.196  -0.841   3.510  0.00  0.00    +0.155 HD
BRANCH  14  15
ATOM     15  C   UNL     1      -4.220   1.399   2.636  0.00  0.00    +0.037 A 
ATOM     16  C   UNL     1      -4.508   2.423   3.643  0.00  0.00    +0.013 A 
ATOM     17  C   UNL     1      -5.240   3.611   3.278  0.00  0.00    +0.005 A 
ATOM     18  C   UNL     1      -5.687   3.781   1.898  0.00  0.00    -0.033 A 
ATOM     28  C   UNL     1      -5.383   2.751   0.918  0.00  0.00    +0.005 A 
ATOM     29  C   UNL     1      -4.667   1.586   1.272  0.00  0.00    +0.013 A 
BRANCH  18  19
ATOM     19  C   UNL     1      -6.492   5.006   1.424  0.00  0.00    +0.119 C 
BRANCH  19  20
ATOM     20  N   UNL     1      -7.979   4.933   1.540  0.00  0.00    -0.302 NA
ATOM     21  C   UNL     1      -8.613   4.206   0.351  0.00  0.00    +0.066 C 
ATOM     22  C   UNL     1     -10.167   4.119   0.499  0.00  0.00    -0.064 C 
ATOM     23  N   UNL     1     -10.742   5.529   0.640  0.00  0.00    +0.379 N 
ATOM     24  C   UNL     1     -12.208   5.455   0.722  0.00  0.00    -0.096 C 
ATOM     25  H   UNL     1     -10.483   6.095  -0.285  0.00  0.00    -0.082 HD
ATOM     26  C   UNL     1     -10.115   6.261   1.819  0.00  0.00    -0.064 C 
ATOM     27  C   UNL     1      -8.569   6.315   1.677  0.00  0.00    +0.066 C 
ENDBRANCH  19  20
ENDBRANCH  18  19
ENDBRANCH  14  15
ENDBRANCH  12  13
TORSDOF 6
ENDMDL
MODEL 5
REMARK VINA RESULT:      -7.7      7.414     12.457
REMARK  Name = C:\Users\Docking\Desktop\test protocol\1iep_ligandH.pdb
REMARK  8 active torsions:
REMARK  status: ('A' for Active; 'I' for Inactive)
REMARK    1  A    between atoms: _5  and  _11
REMARK    2  A    between atoms: _19  and  _21
REMARK    3  A    between atoms: _22  and  _66
REMARK    4  A    between atoms: _27  and  _30
REMARK    5  A    between atoms: _32  and  _33
REMARK    6  A    between atoms: _38  and  _43
REMARK    7  A    between atoms: _43  and  _46
REMARK    8  A    between atoms: _53  and  _55
REMARK                            x       y       z     vdW  Elec       q    Type
REMARK                         _______ _______ _______ _____ _____    ______ ____
ROOT
ATOM     10  C   UNL     1      -7.744   1.061   0.179  0.00  0.00    +0.038 A 
ATOM     11  C   UNL     1      -8.479  -0.130   0.411  0.00  0.00    +0.047 A 
ATOM     12  C   UNL     1      -8.738  -1.076  -0.663  0.00  0.00    +0.035 A 
ATOM     32  C   UNL     1      -8.231  -0.779  -1.962  0.00  0.00    +0.024 A 
ATOM     33  C   UNL     1      -7.483   0.428  -2.215  0.00  0.00    +0.007 A 
ATOM     34  C   UNL     1      -7.227   1.366  -1.160  0.00  0.00    -0.029 A 
ATOM     35  C   UNL     1      -6.424   2.646  -1.491  0.00  0.00    +0.045 C 
ENDROOT
BRANCH  10   9
ATOM      4  C   UNL     1      -8.910   4.896   2.819  0.00  0.00    +0.077 A 
ATOM      5  C   UNL     1     -10.036   5.202   1.984  0.00  0.00    +0.048 A 
ATOM      6  C   UNL     1     -10.276   4.352   0.881  0.00  0.00    +0.116 A 
ATOM      7  N   UNL     1      -9.446   3.278   0.641  0.00  0.00    -0.223 NA
ATOM      8  C   UNL     1      -8.368   3.012   1.465  0.00  0.00    +0.220 A 
ATOM      9  N   UNL     1      -7.525   1.934   1.247  0.00  0.00    -0.283 N 
ATOM     36  H   UNL     1      -6.736   1.775   1.874  0.00  0.00    +0.155 HD
ATOM     37  N   UNL     1      -8.117   3.810   2.524  0.00  0.00    -0.214 NA
BRANCH   4   3
ATOM      1  C   UNL     1      -7.906   7.860   5.165  0.00  0.00    +0.020 A 
ATOM      2  C   UNL     1      -8.271   7.132   3.972  0.00  0.00    +0.013 A 
ATOM      3  C   UNL     1      -8.528   5.698   4.024  0.00  0.00    +0.019 A 
ATOM     38  C   UNL     1      -8.407   5.026   5.309  0.00  0.00    +0.120 A 
ATOM     39  N   UNL     1      -8.052   5.754   6.441  0.00  0.00    -0.263 NA
ATOM     40  C   UNL     1      -7.801   7.133   6.403  0.00  0.00    +0.111 A 
ENDBRANCH   4   3
ENDBRANCH  10   9
BRANCH  12  13
ATOM     13  N   UNL     1      -9.484  -2.297  -0.489  0.00  0.00    -0.281 N 
ATOM     14  C   UNL     1      -9.027  -3.514  -0.010  0.00  0.00    +0.248 C 
ATOM     30  O   UNL     1      -7.848  -3.798   0.141  0.00  0.00    -0.270 OA
ATOM     31  H   UNL     1     -10.469  -2.260  -0.751  0.00  0.00    +0.155 HD
BRANCH  14  15
ATOM     15  C   UNL     1     -10.023  -4.574   0.336  0.00  0.00    +0.037 A 
ATOM     16  C   UNL     1     -11.187  -4.831  -0.516  0.00  0.00    +0.013 A 
ATOM     17  C   UNL     1     -12.141  -5.847  -0.149  0.00  0.00    +0.005 A 
ATOM     18  C   UNL     1     -11.933  -6.616   1.076  0.00  0.00    -0.033 A 
ATOM     28  C   UNL     1     -10.767  -6.343   1.900  0.00  0.00    +0.005 A 
ATOM     29  C   UNL     1      -9.830  -5.347   1.544  0.00  0.00    +0.013 A 
BRANCH  18  19
ATOM     19  C   UNL     1     -12.911  -7.705   1.556  0.00  0.00    +0.119 C 
BRANCH  19  20
ATOM     20  N   UNL     1     -14.291  -7.270   1.925  0.00  0.00    -0.302 NA
ATOM     21  C   UNL     1     -14.434  -7.026   3.430  0.00  0.00    +0.066 C 
ATOM     22  C   UNL     1     -15.878  -6.551   3.795  0.00  0.00    -0.064 C 
ATOM     23  N   UNL     1     -16.891  -7.592   3.316  0.00  0.00    +0.379 N 
ATOM     24  C   UNL     1     -18.245  -7.175   3.710  0.00  0.00    -0.096 C 
ATOM     25  H   UNL     1     -16.665  -8.549   3.841  0.00  0.00    -0.082 HD
ATOM     26  C   UNL     1     -16.754  -7.842   1.821  0.00  0.00    -0.064 C 
ATOM     27  C   UNL     1     -15.308  -8.286   1.465  0.00  0.00    +0.066 C 
ENDBRANCH  19  20
ENDBRANCH  18  19
ENDBRANCH  14  15
ENDBRANCH  12  13
TORSDOF 6
ENDMDL
