MODEL 1
REMARK VINA RESULT:      -8.1      0.000      0.000
REMARK  Name = C:\Users\Docking\Desktop\test protocol\1iep_ligandH.pdb
REMARK  8 active torsions:
REMARK  status: ('A' for Active; 'I' for Inactive)
REMARK    1  A    between atoms: _5  and  _11
REMARK    2  A    between atoms: _19  and  _21
REMARK    3  A    between atoms: _22  and  _66
REMARK    4  A    between atoms: _27  and  _30
REMARK    5  A    between atoms: _32  and  _33
REMARK    6  A    between atoms: _38  and  _43
REMARK    7  A    between atoms: _43  and  _46
REMARK    8  A    between atoms: _53  and  _55
REMARK                            x       y       z     vdW  Elec       q    Type
REMARK                         _______ _______ _______ _____ _____    ______ ____
ROOT
ATOM     10  C   UNL     1      -8.303  32.639   4.218  0.00  0.00    +0.038 A 
ATOM     11  C   UNL     1      -8.134  34.018   4.501  0.00  0.00    +0.047 A 
ATOM     12  C   UNL     1      -8.089  34.506   5.871  0.00  0.00    +0.035 A 
ATOM     32  C   UNL     1      -8.216  33.559   6.929  0.00  0.00    +0.024 A 
ATOM     33  C   UNL     1      -8.389  32.153   6.660  0.00  0.00    +0.007 A 
ATOM     34  C   UNL     1      -8.437  31.667   5.311  0.00  0.00    -0.029 A 
ATOM     35  C   UNL     1      -8.631  30.150   5.081  0.00  0.00    +0.045 C 
ENDROOT
BRANCH  10   9
ATOM      4  C   UNL     1     -10.672  31.274   0.274  0.00  0.00    +0.077 A 
ATOM      5  C   UNL     1     -11.943  31.365   0.933  0.00  0.00    +0.048 A 
ATOM      6  C   UNL     1     -11.942  31.759   2.290  0.00  0.00    +0.116 A 
ATOM      7  N   UNL     1     -10.754  32.040   2.929  0.00  0.00    -0.223 NA
ATOM      8  C   UNL     1      -9.546  31.941   2.264  0.00  0.00    +0.220 A 
ATOM      9  N   UNL     1      -8.339  32.226   2.885  0.00  0.00    -0.283 N 
ATOM     36  H   UNL     1      -7.469  32.133   2.362  0.00  0.00    +0.155 HD
ATOM     37  N   UNL     1      -9.519  31.564   0.969  0.00  0.00    -0.214 NA
BRANCH   4   3
ATOM      1  C   UNL     1      -9.708  29.304  -2.965  0.00  0.00    +0.020 A 
ATOM      2  C   UNL     1      -9.839  29.644  -1.567  0.00  0.00    +0.013 A 
ATOM      3  C   UNL     1     -10.508  30.873  -1.160  0.00  0.00    +0.019 A 
ATOM     38  C   UNL     1     -11.038  31.742  -2.200  0.00  0.00    +0.120 A 
ATOM     39  N   UNL     1     -10.896  31.389  -3.538  0.00  0.00    -0.263 NA
ATOM     40  C   UNL     1     -10.252  30.210  -3.942  0.00  0.00    +0.111 A 
ENDBRANCH   4   3
ENDBRANCH  10   9
BRANCH  12  13
ATOM     13  N   UNL     1      -7.928  35.896   6.219  0.00  0.00    -0.281 N 
ATOM     14  C   UNL     1      -6.751  36.621   6.307  0.00  0.00    +0.248 C 
ATOM     30  O   UNL     1      -5.633  36.127   6.308  0.00  0.00    -0.270 OA
ATOM     31  H   UNL     1      -8.786  36.407   6.425  0.00  0.00    +0.155 HD
BRANCH  14  15
ATOM     15  C   UNL     1      -6.827  38.109   6.427  0.00  0.00    +0.037 A 
ATOM     16  C   UNL     1      -6.999  38.958   5.245  0.00  0.00    +0.013 A 
ATOM     17  C   UNL     1      -7.052  40.391   5.386  0.00  0.00    +0.005 A 
ATOM     18  C   UNL     1      -6.934  40.985   6.716  0.00  0.00    -0.033 A 
ATOM     28  C   UNL     1      -6.769  40.119   7.872  0.00  0.00    +0.005 A 
ATOM     29  C   UNL     1      -6.715  38.713   7.737  0.00  0.00    +0.013 A 
BRANCH  18  19
ATOM     19  C   UNL     1      -6.958  42.506   6.958  0.00  0.00    +0.119 C 
BRANCH  19  20
ATOM     20  N   UNL     1      -8.285  43.188   6.889  0.00  0.00    -0.302 NA
ATOM     21  C   UNL     1      -9.430  42.260   7.304  0.00  0.00    +0.066 C 
ATOM     22  C   UNL     1     -10.808  42.997   7.247  0.00  0.00    -0.064 C 
ATOM     23  N   UNL     1     -11.035  43.540   5.835  0.00  0.00    +0.379 N 
ATOM     24  C   UNL     1     -12.356  44.182   5.763  0.00  0.00    -0.096 C 
ATOM     25  H   UNL     1     -11.043  42.671   5.136  0.00  0.00    -0.082 HD
ATOM     26  C   UNL     1      -9.899  44.461   5.414  0.00  0.00    -0.064 C 
ATOM     27  C   UNL     1      -8.532  43.728   5.502  0.00  0.00    +0.066 C 
ENDBRANCH  19  20
ENDBRANCH  18  19
ENDBRANCH  14  15
ENDBRANCH  12  13
TORSDOF 6
ENDMDL
MODEL 2
REMARK VINA RESULT:      -7.7      7.604     14.772
REMARK  Name = C:\Users\Docking\Desktop\test protocol\1iep_ligandH.pdb
REMARK  8 active torsions:
REMARK  status: ('A' for Active; 'I' for Inactive)
REMARK    1  A    between atoms: _5  and  _11
REMARK    2  A    between atoms: _19  and  _21
REMARK    3  A    between atoms: _22  and  _66
REMARK    4  A    between atoms: _27  and  _30
REMARK    5  A    between atoms: _32  and  _33
REMARK    6  A    between atoms: _38  and  _43
REMARK    7  A    between atoms: _43  and  _46
REMARK    8  A    between atoms: _53  and  _55
REMARK                            x       y       z     vdW  Elec       q    Type
REMARK                         _______ _______ _______ _____ _____    ______ ____
ROOT
ATOM     10  C   UNL     1      -7.163  29.234   1.754  0.00  0.00    +0.038 A 
ATOM     11  C   UNL     1      -6.569  28.051   2.264  0.00  0.00    +0.047 A 
ATOM     12  C   UNL     1      -6.910  26.744   1.725  0.00  0.00    +0.035 A 
ATOM     32  C   UNL     1      -7.860  26.678   0.664  0.00  0.00    +0.024 A 
ATOM     33  C   UNL     1      -8.475  27.870   0.134  0.00  0.00    +0.007 A 
ATOM     34  C   UNL     1      -8.144  29.162   0.664  0.00  0.00    -0.029 A 
ATOM     35  C   UNL     1      -8.839  30.405   0.061  0.00  0.00    +0.045 C 
ENDROOT
BRANCH  10   9
ATOM      4  C   UNL     1      -7.538  32.637   5.118  0.00  0.00    +0.077 A 
ATOM      5  C   UNL     1      -8.566  31.918   5.815  0.00  0.00    +0.048 A 
ATOM      6  C   UNL     1      -8.975  30.680   5.270  0.00  0.00    +0.116 A 
ATOM      7  N   UNL     1      -8.392  30.205   4.115  0.00  0.00    -0.223 NA
ATOM      8  C   UNL     1      -7.404  30.924   3.467  0.00  0.00    +0.220 A 
ATOM      9  N   UNL     1      -6.799  30.462   2.309  0.00  0.00    -0.283 N 
ATOM     36  H   UNL     1      -6.079  31.026   1.857  0.00  0.00    +0.155 HD
ATOM     37  N   UNL     1      -6.997  32.110   3.966  0.00  0.00    -0.214 NA
BRANCH   4   3
ATOM      1  C   UNL     1      -7.275  36.306   6.448  0.00  0.00    +0.020 A 
ATOM      2  C   UNL     1      -7.848  35.050   6.020  0.00  0.00    +0.013 A 
ATOM      3  C   UNL     1      -6.996  33.957   5.570  0.00  0.00    +0.019 A 
ATOM     38  C   UNL     1      -5.556  34.168   5.566  0.00  0.00    +0.120 A 
ATOM     39  N   UNL     1      -5.033  35.388   5.981  0.00  0.00    -0.263 NA
ATOM     40  C   UNL     1      -5.843  36.448   6.414  0.00  0.00    +0.111 A 
ENDBRANCH   4   3
ENDBRANCH  10   9
BRANCH  12  13
ATOM     13  N   UNL     1      -6.345  25.509   2.209  0.00  0.00    -0.281 N 
ATOM     14  C   UNL     1      -5.269  24.806   1.693  0.00  0.00    +0.248 C 
ATOM     30  O   UNL     1      -4.758  25.023   0.604  0.00  0.00    -0.270 OA
ATOM     31  H   UNL     1      -6.794  25.103   3.030  0.00  0.00    +0.155 HD
BRANCH  14  15
ATOM     15  C   UNL     1      -4.683  23.690   2.498  0.00  0.00    +0.037 A 
ATOM     16  C   UNL     1      -4.816  23.654   3.956  0.00  0.00    +0.013 A 
ATOM     17  C   UNL     1      -4.227  22.576   4.710  0.00  0.00    +0.005 A 
ATOM     18  C   UNL     1      -3.500  21.523   4.004  0.00  0.00    -0.033 A 
ATOM     28  C   UNL     1      -3.388  21.581   2.556  0.00  0.00    +0.005 A 
ATOM     29  C   UNL     1      -3.963  22.637   1.815  0.00  0.00    +0.013 A 
BRANCH  18  19
ATOM     19  C   UNL     1      -2.821  20.345   4.729  0.00  0.00    +0.119 C 
BRANCH  19  20
ATOM     20  N   UNL     1      -1.510  20.614   5.390  0.00  0.00    -0.302 NA
ATOM     21  C   UNL     1      -1.681  21.067   6.843  0.00  0.00    +0.066 C 
ATOM     22  C   UNL     1      -0.298  21.322   7.526  0.00  0.00    -0.064 C 
ATOM     23  N   UNL     1       0.481  22.364   6.722  0.00  0.00    +0.379 N 
ATOM     24  C   UNL     1       1.758  22.649   7.394  0.00  0.00    -0.096 C 
ATOM     25  H   UNL     1      -0.117  23.305   6.719  0.00  0.00    -0.082 HD
ATOM     26  C   UNL     1       0.653  21.923   5.275  0.00  0.00    -0.064 C 
ATOM     27  C   UNL     1      -0.726  21.644   4.615  0.00  0.00    +0.066 C 
ENDBRANCH  19  20
ENDBRANCH  18  19
ENDBRANCH  14  15
ENDBRANCH  12  13
TORSDOF 6
ENDMDL
MODEL 3
REMARK VINA RESULT:      -7.7      8.309     16.303
REMARK  Name = C:\Users\Docking\Desktop\test protocol\1iep_ligandH.pdb
REMARK  8 active torsions:
REMARK  status: ('A' for Active; 'I' for Inactive)
REMARK    1  A    between atoms: _5  and  _11
REMARK    2  A    between atoms: _19  and  _21
REMARK    3  A    between atoms: _22  and  _66
REMARK    4  A    between atoms: _27  and  _30
REMARK    5  A    between atoms: _32  and  _33
REMARK    6  A    between atoms: _38  and  _43
REMARK    7  A    between atoms: _43  and  _46
REMARK    8  A    between atoms: _53  and  _55
REMARK                            x       y       z     vdW  Elec       q    Type
REMARK                         _______ _______ _______ _____ _____    ______ ____
ROOT
ATOM     10  C   UNL     1      -8.771  27.170  -0.545  0.00  0.00    +0.038 A 
ATOM     11  C   UNL     1      -9.422  25.944  -0.252  0.00  0.00    +0.047 A 
ATOM     12  C   UNL     1      -9.795  25.019  -1.311  0.00  0.00    +0.035 A 
ATOM     32  C   UNL     1      -9.488  25.372  -2.657  0.00  0.00    +0.024 A 
ATOM     33  C   UNL     1      -8.828  26.615  -2.973  0.00  0.00    +0.007 A 
ATOM     34  C   UNL     1      -8.459  27.533  -1.933  0.00  0.00    -0.029 A 
ATOM     35  C   UNL     1      -7.759  28.853  -2.331  0.00  0.00    +0.045 C 
ENDROOT
BRANCH  10   9
ATOM      4  C   UNL     1      -9.689  30.881   2.356  0.00  0.00    +0.077 A 
ATOM      5  C   UNL     1     -10.931  31.165   1.697  0.00  0.00    +0.048 A 
ATOM      6  C   UNL     1     -11.294  30.337   0.611  0.00  0.00    +0.116 A 
ATOM      7  N   UNL     1     -10.468  29.305   0.222  0.00  0.00    -0.223 NA
ATOM      8  C   UNL     1      -9.276  29.059   0.879  0.00  0.00    +0.220 A 
ATOM      9  N   UNL     1      -8.435  28.021   0.510  0.00  0.00    -0.283 N 
ATOM     36  H   UNL     1      -7.560  27.877   1.015  0.00  0.00    +0.155 HD
ATOM     37  N   UNL     1      -8.907  29.836   1.918  0.00  0.00    -0.214 NA
BRANCH   4   3
ATOM      1  C   UNL     1      -8.501  31.891   5.944  0.00  0.00    +0.020 A 
ATOM      2  C   UNL     1      -9.007  31.092   4.852  0.00  0.00    +0.013 A 
ATOM      3  C   UNL     1      -9.170  31.664   3.522  0.00  0.00    +0.019 A 
ATOM     38  C   UNL     1      -8.808  33.060   3.328  0.00  0.00    +0.120 A 
ATOM     39  N   UNL     1      -8.325  33.807   4.398  0.00  0.00    -0.263 NA
ATOM     40  C   UNL     1      -8.165  33.267   5.683  0.00  0.00    +0.111 A 
ENDBRANCH   4   3
ENDBRANCH  10   9
BRANCH  12  13
ATOM     13  N   UNL     1     -10.465  23.764  -1.074  0.00  0.00    -0.281 N 
ATOM     14  C   UNL     1      -9.944  22.615  -0.502  0.00  0.00    +0.248 C 
ATOM     30  O   UNL     1      -8.754  22.422  -0.300  0.00  0.00    -0.270 OA
ATOM     31  H   UNL     1     -11.442  23.717  -1.364  0.00  0.00    +0.155 HD
BRANCH  14  15
ATOM     15  C   UNL     1     -10.878  21.515  -0.111  0.00  0.00    +0.037 A 
ATOM     16  C   UNL     1     -12.057  21.196  -0.920  0.00  0.00    +0.013 A 
ATOM     17  C   UNL     1     -12.951  20.142  -0.511  0.00  0.00    +0.005 A 
ATOM     18  C   UNL     1     -12.668  19.398   0.713  0.00  0.00    -0.033 A 
ATOM     28  C   UNL     1     -11.488  19.732   1.494  0.00  0.00    +0.005 A 
ATOM     29  C   UNL     1     -10.610  20.765   1.097  0.00  0.00    +0.013 A 
BRANCH  18  19
ATOM     19  C   UNL     1     -13.578  18.271   1.237  0.00  0.00    +0.119 C 
BRANCH  19  20
ATOM     20  N   UNL     1     -14.958  18.650   1.665  0.00  0.00    -0.302 NA
ATOM     21  C   UNL     1     -14.981  19.228   3.083  0.00  0.00    +0.066 C 
ATOM     22  C   UNL     1     -16.429  19.640   3.505  0.00  0.00    -0.064 C 
ATOM     23  N   UNL     1     -17.353  18.425   3.400  0.00  0.00    +0.379 N 
ATOM     24  C   UNL     1     -18.702  18.795   3.853  0.00  0.00    -0.096 C 
ATOM     25  H   UNL     1     -16.965  17.645   4.095  0.00  0.00    -0.082 HD
ATOM     26  C   UNL     1     -17.333  17.843   1.994  0.00  0.00    -0.064 C 
ATOM     27  C   UNL     1     -15.886  17.464   1.573  0.00  0.00    +0.066 C 
ENDBRANCH  19  20
ENDBRANCH  18  19
ENDBRANCH  14  15
ENDBRANCH  12  13
TORSDOF 6
ENDMDL
MODEL 4
REMARK VINA RESULT:      -7.6      8.006     15.616
REMARK  Name = C:\Users\Docking\Desktop\test protocol\1iep_ligandH.pdb
REMARK  8 active torsions:
REMARK  status: ('A' for Active; 'I' for Inactive)
REMARK    1  A    between atoms: _5  and  _11
REMARK    2  A    between atoms: _19  and  _21
REMARK    3  A    between atoms: _22  and  _66
REMARK    4  A    between atoms: _27  and  _30
REMARK    5  A    between atoms: _32  and  _33
REMARK    6  A    between atoms: _38  and  _43
REMARK    7  A    between atoms: _43  and  _46
REMARK    8  A    between atoms: _53  and  _55
REMARK                            x       y       z     vdW  Elec       q    Type
REMARK                         _______ _______ _______ _____ _____    ______ ____
ROOT
ATOM     10  C   UNL     1      -7.973  29.584   1.361  0.00  0.00    +0.038 A 
ATOM     11  C   UNL     1      -7.352  28.353   1.694  0.00  0.00    +0.047 A 
ATOM     12  C   UNL     1      -7.786  27.103   1.088  0.00  0.00    +0.035 A 
ATOM     32  C   UNL     1      -8.853  27.145   0.144  0.00  0.00    +0.024 A 
ATOM     33  C   UNL     1      -9.495  28.388  -0.205  0.00  0.00    +0.007 A 
ATOM     34  C   UNL     1      -9.074  29.623   0.392  0.00  0.00    -0.029 A 
ATOM     35  C   UNL     1      -9.804  30.924  -0.015  0.00  0.00    +0.045 C 
ENDROOT
BRANCH  10   9
ATOM      4  C   UNL     1      -7.778  32.617   5.076  0.00  0.00    +0.077 A 
ATOM      5  C   UNL     1      -8.683  31.819   5.852  0.00  0.00    +0.048 A 
ATOM      6  C   UNL     1      -9.181  30.639   5.255  0.00  0.00    +0.116 A 
ATOM      7  N   UNL     1      -8.796  30.293   3.978  0.00  0.00    -0.223 NA
ATOM      8  C   UNL     1      -7.923  31.086   3.257  0.00  0.00    +0.220 A 
ATOM      9  N   UNL     1      -7.517  30.753   1.974  0.00  0.00    -0.283 N 
ATOM     36  H   UNL     1      -6.877  31.369   1.472  0.00  0.00    +0.155 HD
ATOM     37  N   UNL     1      -7.434  32.219   3.803  0.00  0.00    -0.214 NA
BRANCH   4   3
ATOM      1  C   UNL     1      -7.310  36.216   6.537  0.00  0.00    +0.020 A 
ATOM      2  C   UNL     1      -7.952  35.008   6.072  0.00  0.00    +0.013 A 
ATOM      3  C   UNL     1      -7.164  33.891   5.569  0.00  0.00    +0.019 A 
ATOM     38  C   UNL     1      -5.715  34.028   5.550  0.00  0.00    +0.120 A 
ATOM     39  N   UNL     1      -5.124  35.203   6.003  0.00  0.00    -0.263 NA
ATOM     40  C   UNL     1      -5.873  36.286   6.487  0.00  0.00    +0.111 A 
ENDBRANCH   4   3
ENDBRANCH  10   9
BRANCH  12  13
ATOM     13  N   UNL     1      -7.199  25.822   1.392  0.00  0.00    -0.281 N 
ATOM     14  C   UNL     1      -5.949  25.350   1.028  0.00  0.00    +0.248 C 
ATOM     30  O   UNL     1      -5.224  25.880   0.198  0.00  0.00    -0.270 OA
ATOM     31  H   UNL     1      -7.775  25.186   1.944  0.00  0.00    +0.155 HD
BRANCH  14  15
ATOM     15  C   UNL     1      -5.435  24.100   1.667  0.00  0.00    +0.037 A 
ATOM     16  C   UNL     1      -4.917  24.105   3.037  0.00  0.00    +0.013 A 
ATOM     17  C   UNL     1      -4.411  22.889   3.624  0.00  0.00    +0.005 A 
ATOM     18  C   UNL     1      -4.422  21.657   2.839  0.00  0.00    -0.033 A 
ATOM     28  C   UNL     1      -4.946  21.679   1.483  0.00  0.00    +0.005 A 
ATOM     29  C   UNL     1      -5.442  22.869   0.905  0.00  0.00    +0.013 A 
BRANCH  18  19
ATOM     19  C   UNL     1      -3.883  20.318   3.376  0.00  0.00    +0.119 C 
BRANCH  19  20
ATOM     20  N   UNL     1      -2.919  19.573   2.513  0.00  0.00    -0.302 NA
ATOM     21  C   UNL     1      -3.044  18.057   2.687  0.00  0.00    +0.066 C 
ATOM     22  C   UNL     1      -2.043  17.293   1.760  0.00  0.00    -0.064 C 
ATOM     23  N   UNL     1      -0.617  17.757   2.062  0.00  0.00    +0.379 N 
ATOM     24  C   UNL     1       0.331  16.999   1.233  0.00  0.00    -0.096 C 
ATOM     25  H   UNL     1      -0.402  17.516   3.129  0.00  0.00    -0.082 HD
ATOM     26  C   UNL     1      -0.484  19.264   1.894  0.00  0.00    -0.064 C 
ATOM     27  C   UNL     1      -1.503  20.013   2.797  0.00  0.00    +0.066 C 
ENDBRANCH  19  20
ENDBRANCH  18  19
ENDBRANCH  14  15
ENDBRANCH  12  13
TORSDOF 6
ENDMDL
MODEL 5
REMARK VINA RESULT:      -7.5      5.275      9.720
REMARK  Name = C:\Users\Docking\Desktop\test protocol\1iep_ligandH.pdb
REMARK  8 active torsions:
REMARK  status: ('A' for Active; 'I' for Inactive)
REMARK    1  A    between atoms: _5  and  _11
REMARK    2  A    between atoms: _19  and  _21
REMARK    3  A    between atoms: _22  and  _66
REMARK    4  A    between atoms: _27  and  _30
REMARK    5  A    between atoms: _32  and  _33
REMARK    6  A    between atoms: _38  and  _43
REMARK    7  A    between atoms: _43  and  _46
REMARK    8  A    between atoms: _53  and  _55
REMARK                            x       y       z     vdW  Elec       q    Type
REMARK                         _______ _______ _______ _____ _____    ______ ____
ROOT
ATOM     10  C   UNL     1     -13.294  31.210  -3.181  0.00  0.00    +0.038 A 
ATOM     11  C   UNL     1     -12.719  31.603  -1.945  0.00  0.00    +0.047 A 
ATOM     12  C   UNL     1     -11.351  31.245  -1.604  0.00  0.00    +0.035 A 
ATOM     32  C   UNL     1     -10.596  30.488  -2.547  0.00  0.00    +0.024 A 
ATOM     33  C   UNL     1     -11.165  30.078  -3.807  0.00  0.00    +0.007 A 
ATOM     34  C   UNL     1     -12.515  30.426  -4.147  0.00  0.00    -0.029 A 
ATOM     35  C   UNL     1     -13.076  29.955  -5.509  0.00  0.00    +0.045 C 
ENDROOT
BRANCH  10   9
ATOM      4  C   UNL     1     -16.589  34.419  -4.551  0.00  0.00    +0.077 A 
ATOM      5  C   UNL     1     -15.605  35.452  -4.705  0.00  0.00    +0.048 A 
ATOM      6  C   UNL     1     -14.263  35.118  -4.415  0.00  0.00    +0.116 A 
ATOM      7  N   UNL     1     -13.941  33.843  -4.002  0.00  0.00    -0.223 NA
ATOM      8  C   UNL     1     -14.915  32.871  -3.862  0.00  0.00    +0.220 A 
ATOM      9  N   UNL     1     -14.612  31.581  -3.457  0.00  0.00    -0.283 N 
ATOM     36  H   UNL     1     -15.360  30.895  -3.359  0.00  0.00    +0.155 HD
ATOM     37  N   UNL     1     -16.204  33.166  -4.132  0.00  0.00    -0.214 NA
BRANCH   4   3
ATOM      1  C   UNL     1     -20.401  33.761  -5.129  0.00  0.00    +0.020 A 
ATOM      2  C   UNL     1     -19.003  33.516  -4.863  0.00  0.00    +0.013 A 
ATOM      3  C   UNL     1     -18.048  34.617  -4.823  0.00  0.00    +0.019 A 
ATOM     38  C   UNL     1     -18.546  35.964  -5.058  0.00  0.00    +0.120 A 
ATOM     39  N   UNL     1     -19.898  36.169  -5.314  0.00  0.00    -0.263 NA
ATOM     40  C   UNL     1     -20.825  35.117  -5.356  0.00  0.00    +0.111 A 
ENDBRANCH   4   3
ENDBRANCH  10   9
BRANCH  12  13
ATOM     13  N   UNL     1     -10.717  31.609  -0.362  0.00  0.00    -0.281 N 
ATOM     14  C   UNL     1     -11.270  31.615   0.908  0.00  0.00    +0.248 C 
ATOM     30  O   UNL     1     -12.465  31.510   1.141  0.00  0.00    -0.270 OA
ATOM     31  H   UNL     1      -9.741  31.899  -0.427  0.00  0.00    +0.155 HD
BRANCH  14  15
ATOM     15  C   UNL     1     -10.368  31.773   2.088  0.00  0.00    +0.037 A 
ATOM     16  C   UNL     1     -10.353  30.787   3.172  0.00  0.00    +0.013 A 
ATOM     17  C   UNL     1      -9.485  30.973   4.308  0.00  0.00    +0.005 A 
ATOM     18  C   UNL     1      -8.623  32.151   4.365  0.00  0.00    -0.033 A 
ATOM     28  C   UNL     1      -8.653  33.110   3.274  0.00  0.00    +0.005 A 
ATOM     29  C   UNL     1      -9.504  32.932   2.159  0.00  0.00    +0.013 A 
BRANCH  18  19
ATOM     19  C   UNL     1      -7.681  32.441   5.548  0.00  0.00    +0.119 C 
BRANCH  19  20
ATOM     20  N   UNL     1      -6.534  33.365   5.298  0.00  0.00    -0.302 NA
ATOM     21  C   UNL     1      -5.197  32.621   5.251  0.00  0.00    +0.066 C 
ATOM     22  C   UNL     1      -4.011  33.599   4.967  0.00  0.00    -0.064 C 
ATOM     23  N   UNL     1      -3.986  34.690   6.038  0.00  0.00    +0.379 N 
ATOM     24  C   UNL     1      -2.837  35.579   5.807  0.00  0.00    -0.096 C 
ATOM     25  H   UNL     1      -3.835  34.192   7.024  0.00  0.00    -0.082 HD
ATOM     26  C   UNL     1      -5.313  35.433   6.094  0.00  0.00    -0.064 C 
ATOM     27  C   UNL     1      -6.488  34.448   6.348  0.00  0.00    +0.066 C 
ENDBRANCH  19  20
ENDBRANCH  18  19
ENDBRANCH  14  15
ENDBRANCH  12  13
TORSDOF 6
ENDMDL
