MODEL 1
REMARK VINA RESULT:      -9.0      0.000      0.000
REMARK  Name = C:\Users\Docking\Desktop\test protocol\1iep_ligandH.pdb
REMARK  8 active torsions:
REMARK  status: ('A' for Active; 'I' for Inactive)
REMARK    1  A    between atoms: _5  and  _11
REMARK    2  A    between atoms: _19  and  _21
REMARK    3  A    between atoms: _22  and  _66
REMARK    4  A    between atoms: _27  and  _30
REMARK    5  A    between atoms: _32  and  _33
REMARK    6  A    between atoms: _38  and  _43
REMARK    7  A    between atoms: _43  and  _46
REMARK    8  A    between atoms: _53  and  _55
REMARK                            x       y       z     vdW  Elec       q    Type
REMARK                         _______ _______ _______ _____ _____    ______ ____
ROOT
ATOM     10  C   UNL     1      -0.643  -2.557  25.281  0.00  0.00    +0.038 A 
ATOM     11  C   UNL     1      -1.451  -2.014  24.250  0.00  0.00    +0.047 A 
ATOM     12  C   UNL     1      -2.226  -0.801  24.462  0.00  0.00    +0.035 A 
ATOM     32  C   UNL     1      -2.152  -0.166  25.736  0.00  0.00    +0.024 A 
ATOM     33  C   UNL     1      -1.337  -0.706  26.795  0.00  0.00    +0.007 A 
ATOM     34  C   UNL     1      -0.572  -1.903  26.593  0.00  0.00    -0.029 A 
ATOM     35  C   UNL     1       0.281  -2.440  27.766  0.00  0.00    +0.045 C 
ENDROOT
BRANCH  10   9
ATOM      4  C   UNL     1      -0.076  -7.319  25.487  0.00  0.00    +0.077 A 
ATOM      5  C   UNL     1      -1.312  -7.495  26.193  0.00  0.00    +0.048 A 
ATOM      6  C   UNL     1      -2.061  -6.334  26.490  0.00  0.00    +0.116 A 
ATOM      7  N   UNL     1      -1.598  -5.095  26.104  0.00  0.00    -0.223 NA
ATOM      8  C   UNL     1      -0.400  -4.960  25.426  0.00  0.00    +0.220 A 
ATOM      9  N   UNL     1       0.080  -3.724  25.023  0.00  0.00    -0.283 N 
ATOM     36  H   UNL     1       0.972  -3.666  24.531  0.00  0.00    +0.155 HD
ATOM     37  N   UNL     1       0.334  -6.053  25.132  0.00  0.00    -0.214 NA
BRANCH   4   3
ATOM      1  C   UNL     1       1.241 -10.783  24.236  0.00  0.00    +0.020 A 
ATOM      2  C   UNL     1       0.328  -9.724  24.598  0.00  0.00    +0.013 A 
ATOM      3  C   UNL     1       0.826  -8.449  25.098  0.00  0.00    +0.019 A 
ATOM     38  C   UNL     1       2.266  -8.276  25.219  0.00  0.00    +0.120 A 
ATOM     39  N   UNL     1       3.121  -9.314  24.864  0.00  0.00    -0.263 NA
ATOM     40  C   UNL     1       2.653 -10.546  24.383  0.00  0.00    +0.111 A 
ENDBRANCH   4   3
ENDBRANCH  10   9
BRANCH  12  13
ATOM     13  N   UNL     1      -3.071  -0.207  23.456  0.00  0.00    -0.281 N 
ATOM     14  C   UNL     1      -4.157   0.633  23.643  0.00  0.00    +0.248 C 
ATOM     30  O   UNL     1      -4.700   0.831  24.719  0.00  0.00    -0.270 OA
ATOM     31  H   UNL     1      -2.841  -0.434  22.488  0.00  0.00    +0.155 HD
BRANCH  14  15
ATOM     15  C   UNL     1      -4.731   1.344  22.460  0.00  0.00    +0.037 A 
ATOM     16  C   UNL     1      -6.012   2.050  22.546  0.00  0.00    +0.013 A 
ATOM     17  C   UNL     1      -6.552   2.713  21.386  0.00  0.00    +0.005 A 
ATOM     18  C   UNL     1      -5.809   2.676  20.129  0.00  0.00    -0.033 A 
ATOM     28  C   UNL     1      -4.537   1.973  20.073  0.00  0.00    +0.005 A 
ATOM     29  C   UNL     1      -4.006   1.320  21.208  0.00  0.00    +0.013 A 
BRANCH  18  19
ATOM     19  C   UNL     1      -6.319   3.338  18.836  0.00  0.00    +0.119 C 
BRANCH  19  20
ATOM     20  N   UNL     1      -5.891   4.745  18.573  0.00  0.00    -0.302 NA
ATOM     21  C   UNL     1      -6.432   5.715  19.627  0.00  0.00    +0.066 C 
ATOM     22  C   UNL     1      -5.957   7.179  19.350  0.00  0.00    -0.064 C 
ATOM     23  N   UNL     1      -6.401   7.600  17.948  0.00  0.00    +0.379 N 
ATOM     24  C   UNL     1      -6.006   8.995  17.707  0.00  0.00    -0.096 C 
ATOM     25  H   UNL     1      -7.514   7.553  17.918  0.00  0.00    -0.082 HD
ATOM     26  C   UNL     1      -5.870   6.638  16.894  0.00  0.00    -0.064 C 
ATOM     27  C   UNL     1      -6.323   5.182  17.195  0.00  0.00    +0.066 C 
ENDBRANCH  19  20
ENDBRANCH  18  19
ENDBRANCH  14  15
ENDBRANCH  12  13
TORSDOF 6
ENDMDL
MODEL 2
REMARK VINA RESULT:      -8.9      6.584     13.133
REMARK  Name = C:\Users\Docking\Desktop\test protocol\1iep_ligandH.pdb
REMARK  8 active torsions:
REMARK  status: ('A' for Active; 'I' for Inactive)
REMARK    1  A    between atoms: _5  and  _11
REMARK    2  A    between atoms: _19  and  _21
REMARK    3  A    between atoms: _22  and  _66
REMARK    4  A    between atoms: _27  and  _30
REMARK    5  A    between atoms: _32  and  _33
REMARK    6  A    between atoms: _38  and  _43
REMARK    7  A    between atoms: _43  and  _46
REMARK    8  A    between atoms: _53  and  _55
REMARK                            x       y       z     vdW  Elec       q    Type
REMARK                         _______ _______ _______ _____ _____    ______ ____
ROOT
ATOM     10  C   UNL     1      -8.122   4.342  23.348  0.00  0.00    +0.038 A 
ATOM     11  C   UNL     1      -8.002   3.253  24.249  0.00  0.00    +0.047 A 
ATOM     12  C   UNL     1      -8.148   3.444  25.683  0.00  0.00    +0.035 A 
ATOM     32  C   UNL     1      -8.419   4.757  26.166  0.00  0.00    +0.024 A 
ATOM     33  C   UNL     1      -8.544   5.876  25.265  0.00  0.00    +0.007 A 
ATOM     34  C   UNL     1      -8.398   5.694  23.849  0.00  0.00    -0.029 A 
ATOM     35  C   UNL     1      -8.535   6.930  22.930  0.00  0.00    +0.045 C 
ENDROOT
BRANCH  10   9
ATOM      4  C   UNL     1      -5.508   3.030  19.542  0.00  0.00    +0.077 A 
ATOM      5  C   UNL     1      -4.334   2.832  20.342  0.00  0.00    +0.048 A 
ATOM      6  C   UNL     1      -4.443   3.086  21.728  0.00  0.00    +0.116 A 
ATOM      7  N   UNL     1      -5.642   3.505  22.263  0.00  0.00    -0.223 NA
ATOM      8  C   UNL     1      -6.755   3.688  21.463  0.00  0.00    +0.220 A 
ATOM      9  N   UNL     1      -7.972   4.102  21.980  0.00  0.00    -0.283 N 
ATOM     36  H   UNL     1      -8.768   4.232  21.355  0.00  0.00    +0.155 HD
ATOM     37  N   UNL     1      -6.676   3.454  20.136  0.00  0.00    -0.214 NA
BRANCH   4   3
ATOM      1  C   UNL     1      -5.269   1.356  16.015  0.00  0.00    +0.020 A 
ATOM      2  C   UNL     1      -5.209   1.525  17.449  0.00  0.00    +0.013 A 
ATOM      3  C   UNL     1      -5.553   2.801  18.063  0.00  0.00    +0.019 A 
ATOM     38  C   UNL     1      -5.958   3.894  17.192  0.00  0.00    +0.120 A 
ATOM     39  N   UNL     1      -6.005   3.702  15.815  0.00  0.00    -0.263 NA
ATOM     40  C   UNL     1      -5.674   2.479  15.212  0.00  0.00    +0.111 A 
ENDBRANCH   4   3
ENDBRANCH  10   9
BRANCH  12  13
ATOM     13  N   UNL     1      -8.029   2.378  26.647  0.00  0.00    -0.281 N 
ATOM     14  C   UNL     1      -7.017   2.175  27.572  0.00  0.00    +0.248 C 
ATOM     30  O   UNL     1      -5.948   2.766  27.567  0.00  0.00    -0.270 OA
ATOM     31  H   UNL     1      -8.781   1.689  26.647  0.00  0.00    +0.155 HD
BRANCH  14  15
ATOM     15  C   UNL     1      -7.218   1.160  28.650  0.00  0.00    +0.037 A 
ATOM     16  C   UNL     1      -6.410   1.180  29.872  0.00  0.00    +0.013 A 
ATOM     17  C   UNL     1      -6.612   0.178  30.889  0.00  0.00    +0.005 A 
ATOM     18  C   UNL     1      -7.628  -0.852  30.687  0.00  0.00    -0.033 A 
ATOM     28  C   UNL     1      -8.419  -0.846  29.467  0.00  0.00    +0.005 A 
ATOM     29  C   UNL     1      -8.223   0.134  28.468  0.00  0.00    +0.013 A 
BRANCH  18  19
ATOM     19  C   UNL     1      -7.898  -1.973  31.709  0.00  0.00    +0.119 C 
BRANCH  19  20
ATOM     20  N   UNL     1      -7.418  -3.344  31.363  0.00  0.00    -0.302 NA
ATOM     21  C   UNL     1      -8.267  -4.434  32.023  0.00  0.00    +0.066 C 
ATOM     22  C   UNL     1      -7.764  -5.862  31.632  0.00  0.00    -0.064 C 
ATOM     23  N   UNL     1      -6.294  -6.008  32.026  0.00  0.00    +0.379 N 
ATOM     24  C   UNL     1      -5.834  -7.369  31.713  0.00  0.00    -0.096 C 
ATOM     25  H   UNL     1      -6.225  -5.873  33.131  0.00  0.00    -0.082 HD
ATOM     26  C   UNL     1      -5.442  -4.926  31.376  0.00  0.00    -0.064 C 
ATOM     27  C   UNL     1      -5.968  -3.511  31.747  0.00  0.00    +0.066 C 
ENDBRANCH  19  20
ENDBRANCH  18  19
ENDBRANCH  14  15
ENDBRANCH  12  13
TORSDOF 6
ENDMDL
MODEL 3
REMARK VINA RESULT:      -8.7      1.353      1.898
REMARK  Name = C:\Users\Docking\Desktop\test protocol\1iep_ligandH.pdb
REMARK  8 active torsions:
REMARK  status: ('A' for Active; 'I' for Inactive)
REMARK    1  A    between atoms: _5  and  _11
REMARK    2  A    between atoms: _19  and  _21
REMARK    3  A    between atoms: _22  and  _66
REMARK    4  A    between atoms: _27  and  _30
REMARK    5  A    between atoms: _32  and  _33
REMARK    6  A    between atoms: _38  and  _43
REMARK    7  A    between atoms: _43  and  _46
REMARK    8  A    between atoms: _53  and  _55
REMARK                            x       y       z     vdW  Elec       q    Type
REMARK                         _______ _______ _______ _____ _____    ______ ____
ROOT
ATOM     10  C   UNL     1       0.183  -3.169  26.624  0.00  0.00    +0.038 A 
ATOM     11  C   UNL     1      -0.509  -2.362  25.686  0.00  0.00    +0.047 A 
ATOM     12  C   UNL     1      -1.223  -1.165  26.104  0.00  0.00    +0.035 A 
ATOM     32  C   UNL     1      -1.210  -0.820  27.487  0.00  0.00    +0.024 A 
ATOM     33  C   UNL     1      -0.513  -1.630  28.455  0.00  0.00    +0.007 A 
ATOM     34  C   UNL     1       0.191  -2.812  28.048  0.00  0.00    -0.029 A 
ATOM     35  C   UNL     1       0.916  -3.647  29.130  0.00  0.00    +0.045 C 
ENDROOT
BRANCH  10   9
ATOM      4  C   UNL     1       0.334  -7.845  25.549  0.00  0.00    +0.077 A 
ATOM      5  C   UNL     1      -1.027  -8.043  25.958  0.00  0.00    +0.048 A 
ATOM      6  C   UNL     1      -1.728  -6.918  26.445  0.00  0.00    +0.116 A 
ATOM      7  N   UNL     1      -1.106  -5.690  26.514  0.00  0.00    -0.223 NA
ATOM      8  C   UNL     1       0.208  -5.534  26.114  0.00  0.00    +0.220 A 
ATOM      9  N   UNL     1       0.852  -4.307  26.168  0.00  0.00    -0.283 N 
ATOM     36  H   UNL     1       1.825  -4.234  25.870  0.00  0.00    +0.155 HD
ATOM     37  N   UNL     1       0.901  -6.593  25.646  0.00  0.00    -0.214 NA
BRANCH   4   3
ATOM      1  C   UNL     1       1.559 -11.186  23.925  0.00  0.00    +0.020 A 
ATOM      2  C   UNL     1       0.673 -10.163  24.433  0.00  0.00    +0.013 A 
ATOM      3  C   UNL     1       1.206  -8.936  25.010  0.00  0.00    +0.019 A 
ATOM     38  C   UNL     1       2.651  -8.772  25.057  0.00  0.00    +0.120 A 
ATOM     39  N   UNL     1       3.479  -9.774  24.562  0.00  0.00    -0.263 NA
ATOM     40  C   UNL     1       2.978 -10.961  24.006  0.00  0.00    +0.111 A 
ENDBRANCH   4   3
ENDBRANCH  10   9
BRANCH  12  13
ATOM     13  N   UNL     1      -1.949  -0.311  25.198  0.00  0.00    -0.281 N 
ATOM     14  C   UNL     1      -2.596  -0.667  24.026  0.00  0.00    +0.248 C 
ATOM     30  O   UNL     1      -2.467  -1.745  23.465  0.00  0.00    -0.270 OA
ATOM     31  H   UNL     1      -1.991   0.676  25.450  0.00  0.00    +0.155 HD
BRANCH  14  15
ATOM     15  C   UNL     1      -3.508   0.322  23.375  0.00  0.00    +0.037 A 
ATOM     16  C   UNL     1      -3.892   1.563  24.053  0.00  0.00    +0.013 A 
ATOM     17  C   UNL     1      -4.786   2.492  23.410  0.00  0.00    +0.005 A 
ATOM     18  C   UNL     1      -5.302   2.184  22.078  0.00  0.00    -0.033 A 
ATOM     28  C   UNL     1      -4.901   0.949  21.426  0.00  0.00    +0.005 A 
ATOM     29  C   UNL     1      -4.025   0.035  22.054  0.00  0.00    +0.013 A 
BRANCH  18  19
ATOM     19  C   UNL     1      -6.278   3.108  21.325  0.00  0.00    +0.119 C 
BRANCH  19  20
ATOM     20  N   UNL     1      -5.806   3.697  20.037  0.00  0.00    -0.302 NA
ATOM     21  C   UNL     1      -6.063   5.205  19.966  0.00  0.00    +0.066 C 
ATOM     22  C   UNL     1      -5.542   5.808  18.621  0.00  0.00    -0.064 C 
ATOM     23  N   UNL     1      -6.212   5.088  17.449  0.00  0.00    +0.379 N 
ATOM     24  C   UNL     1      -5.769   5.692  16.184  0.00  0.00    -0.096 C 
ATOM     25  H   UNL     1      -7.312   5.253  17.535  0.00  0.00    -0.082 HD
ATOM     26  C   UNL     1      -5.964   3.588  17.513  0.00  0.00    -0.064 C 
ATOM     27  C   UNL     1      -6.458   3.004  18.866  0.00  0.00    +0.066 C 
ENDBRANCH  19  20
ENDBRANCH  18  19
ENDBRANCH  14  15
ENDBRANCH  12  13
TORSDOF 6
ENDMDL
MODEL 4
REMARK VINA RESULT:      -8.6      2.015      2.660
REMARK  Name = C:\Users\Docking\Desktop\test protocol\1iep_ligandH.pdb
REMARK  8 active torsions:
REMARK  status: ('A' for Active; 'I' for Inactive)
REMARK    1  A    between atoms: _5  and  _11
REMARK    2  A    between atoms: _19  and  _21
REMARK    3  A    between atoms: _22  and  _66
REMARK    4  A    between atoms: _27  and  _30
REMARK    5  A    between atoms: _32  and  _33
REMARK    6  A    between atoms: _38  and  _43
REMARK    7  A    between atoms: _43  and  _46
REMARK    8  A    between atoms: _53  and  _55
REMARK                            x       y       z     vdW  Elec       q    Type
REMARK                         _______ _______ _______ _____ _____    ______ ____
ROOT
ATOM     10  C   UNL     1       0.183  -3.350  26.616  0.00  0.00    +0.038 A 
ATOM     11  C   UNL     1      -0.340  -2.494  25.613  0.00  0.00    +0.047 A 
ATOM     12  C   UNL     1      -1.085  -1.294  25.962  0.00  0.00    +0.035 A 
ATOM     32  C   UNL     1      -1.276  -0.995  27.343  0.00  0.00    +0.024 A 
ATOM     33  C   UNL     1      -0.753  -1.855  28.375  0.00  0.00    +0.007 A 
ATOM     34  C   UNL     1      -0.020  -3.042  28.036  0.00  0.00    -0.029 A 
ATOM     35  C   UNL     1       0.513  -3.931  29.184  0.00  0.00    +0.045 C 
ENDROOT
BRANCH  10   9
ATOM      4  C   UNL     1       0.409  -8.003  25.460  0.00  0.00    +0.077 A 
ATOM      5  C   UNL     1      -0.997  -8.187  25.681  0.00  0.00    +0.048 A 
ATOM      6  C   UNL     1      -1.741  -7.061  26.099  0.00  0.00    +0.116 A 
ATOM      7  N   UNL     1      -1.116  -5.846  26.278  0.00  0.00    -0.223 NA
ATOM      8  C   UNL     1       0.242  -5.703  26.057  0.00  0.00    +0.220 A 
ATOM      9  N   UNL     1       0.890  -4.489  26.224  0.00  0.00    -0.283 N 
ATOM     36  H   UNL     1       1.894  -4.427  26.058  0.00  0.00    +0.155 HD
ATOM     37  N   UNL     1       0.975  -6.764  25.660  0.00  0.00    -0.214 NA
BRANCH   4   3
ATOM      1  C   UNL     1       1.781 -11.378  24.036  0.00  0.00    +0.020 A 
ATOM      2  C   UNL     1       0.851 -10.354  24.452  0.00  0.00    +0.013 A 
ATOM      3  C   UNL     1       1.328  -9.097  25.014  0.00  0.00    +0.019 A 
ATOM     38  C   UNL     1       2.765  -8.906  25.142  0.00  0.00    +0.120 A 
ATOM     39  N   UNL     1       3.637  -9.910  24.734  0.00  0.00    -0.263 NA
ATOM     40  C   UNL     1       3.189 -11.125  24.193  0.00  0.00    +0.111 A 
ENDBRANCH   4   3
ENDBRANCH  10   9
BRANCH  12  13
ATOM     13  N   UNL     1      -1.646  -0.391  24.988  0.00  0.00    -0.281 N 
ATOM     14  C   UNL     1      -2.398  -0.706  23.869  0.00  0.00    +0.248 C 
ATOM     30  O   UNL     1      -2.524  -1.834  23.415  0.00  0.00    -0.270 OA
ATOM     31  H   UNL     1      -1.467   0.601  25.143  0.00  0.00    +0.155 HD
BRANCH  14  15
ATOM     15  C   UNL     1      -3.102   0.392  23.139  0.00  0.00    +0.037 A 
ATOM     16  C   UNL     1      -4.265   0.118  22.291  0.00  0.00    +0.013 A 
ATOM     17  C   UNL     1      -4.915   1.193  21.584  0.00  0.00    +0.005 A 
ATOM     18  C   UNL     1      -4.403   2.554  21.724  0.00  0.00    -0.033 A 
ATOM     28  C   UNL     1      -3.251   2.799  22.576  0.00  0.00    +0.005 A 
ATOM     29  C   UNL     1      -2.611   1.747  23.269  0.00  0.00    +0.013 A 
BRANCH  18  19
ATOM     19  C   UNL     1      -5.020   3.760  20.991  0.00  0.00    +0.119 C 
BRANCH  19  20
ATOM     20  N   UNL     1      -5.972   4.614  21.761  0.00  0.00    -0.302 NA
ATOM     21  C   UNL     1      -7.166   3.813  22.288  0.00  0.00    +0.066 C 
ATOM     22  C   UNL     1      -8.140   4.718  23.111  0.00  0.00    -0.064 C 
ATOM     23  N   UNL     1      -8.612   5.882  22.236  0.00  0.00    +0.379 N 
ATOM     24  C   UNL     1      -9.573   6.702  22.988  0.00  0.00    -0.096 C 
ATOM     25  H   UNL     1      -9.148   5.450  21.360  0.00  0.00    -0.082 HD
ATOM     26  C   UNL     1      -7.431   6.682  21.706  0.00  0.00    -0.064 C 
ATOM     27  C   UNL     1      -6.454   5.767  20.915  0.00  0.00    +0.066 C 
ENDBRANCH  19  20
ENDBRANCH  18  19
ENDBRANCH  14  15
ENDBRANCH  12  13
TORSDOF 6
ENDMDL
MODEL 5
REMARK VINA RESULT:      -8.6      1.886      2.678
REMARK  Name = C:\Users\Docking\Desktop\test protocol\1iep_ligandH.pdb
REMARK  8 active torsions:
REMARK  status: ('A' for Active; 'I' for Inactive)
REMARK    1  A    between atoms: _5  and  _11
REMARK    2  A    between atoms: _19  and  _21
REMARK    3  A    between atoms: _22  and  _66
REMARK    4  A    between atoms: _27  and  _30
REMARK    5  A    between atoms: _32  and  _33
REMARK    6  A    between atoms: _38  and  _43
REMARK    7  A    between atoms: _43  and  _46
REMARK    8  A    between atoms: _53  and  _55
REMARK                            x       y       z     vdW  Elec       q    Type
REMARK                         _______ _______ _______ _____ _____    ______ ____
ROOT
ATOM     10  C   UNL     1      -0.321  -3.344  27.073  0.00  0.00    +0.038 A 
ATOM     11  C   UNL     1      -0.727  -2.478  26.026  0.00  0.00    +0.047 A 
ATOM     12  C   UNL     1      -1.294  -1.169  26.310  0.00  0.00    +0.035 A 
ATOM     32  C   UNL     1      -1.431  -0.772  27.672  0.00  0.00    +0.024 A 
ATOM     33  C   UNL     1      -1.024  -1.640  28.749  0.00  0.00    +0.007 A 
ATOM     34  C   UNL     1      -0.467  -2.934  28.475  0.00  0.00    -0.029 A 
ATOM     35  C   UNL     1      -0.054  -3.826  29.670  0.00  0.00    +0.045 C 
ENDROOT
BRANCH  10   9
ATOM      4  C   UNL     1      -0.744  -8.053  26.250  0.00  0.00    +0.077 A 
ATOM      5  C   UNL     1      -2.152  -8.035  26.525  0.00  0.00    +0.048 A 
ATOM      6  C   UNL     1      -2.727  -6.795  26.882  0.00  0.00    +0.116 A 
ATOM      7  N   UNL     1      -1.944  -5.664  26.955  0.00  0.00    -0.223 NA
ATOM      8  C   UNL     1      -0.589  -5.717  26.685  0.00  0.00    +0.220 A 
ATOM      9  N   UNL     1       0.217  -4.590  26.744  0.00  0.00    -0.283 N 
ATOM     36  H   UNL     1       1.214  -4.672  26.545  0.00  0.00    +0.155 HD
ATOM     37  N   UNL     1      -0.015  -6.889  26.343  0.00  0.00    -0.214 NA
BRANCH   4   3
ATOM      1  C   UNL     1       1.146 -10.765  24.159  0.00  0.00    +0.020 A 
ATOM      2  C   UNL     1       0.421  -9.559  24.485  0.00  0.00    +0.013 A 
ATOM      3  C   UNL     1       0.008  -9.287  25.856  0.00  0.00    +0.019 A 
ATOM     38  C   UNL     1       0.348 -10.262  26.881  0.00  0.00    +0.120 A 
ATOM     39  N   UNL     1       1.046 -11.415  26.537  0.00  0.00    -0.263 NA
ATOM     40  C   UNL     1       1.447 -11.689  25.220  0.00  0.00    +0.111 A 
ENDBRANCH   4   3
ENDBRANCH  10   9
BRANCH  12  13
ATOM     13  N   UNL     1      -1.732  -0.250  25.288  0.00  0.00    -0.281 N 
ATOM     14  C   UNL     1      -2.376  -0.544  24.098  0.00  0.00    +0.248 C 
ATOM     30  O   UNL     1      -2.484  -1.667  23.629  0.00  0.00    -0.270 OA
ATOM     31  H   UNL     1      -1.544   0.737  25.464  0.00  0.00    +0.155 HD
BRANCH  14  15
ATOM     15  C   UNL     1      -2.975   0.573  23.306  0.00  0.00    +0.037 A 
ATOM     16  C   UNL     1      -2.156   1.692  22.831  0.00  0.00    +0.013 A 
ATOM     17  C   UNL     1      -2.762   2.765  22.083  0.00  0.00    +0.005 A 
ATOM     18  C   UNL     1      -4.196   2.724  21.805  0.00  0.00    -0.033 A 
ATOM     28  C   UNL     1      -4.983   1.600  22.283  0.00  0.00    +0.005 A 
ATOM     29  C   UNL     1      -4.393   0.546  23.017  0.00  0.00    +0.013 A 
BRANCH  18  19
ATOM     19  C   UNL     1      -4.930   3.836  21.033  0.00  0.00    +0.119 C 
BRANCH  19  20
ATOM     20  N   UNL     1      -5.502   3.480  19.700  0.00  0.00    -0.302 NA
ATOM     21  C   UNL     1      -4.581   2.545  18.911  0.00  0.00    +0.066 C 
ATOM     22  C   UNL     1      -5.204   2.165  17.529  0.00  0.00    -0.064 C 
ATOM     23  N   UNL     1      -5.491   3.440  16.734  0.00  0.00    +0.379 N 
ATOM     24  C   UNL     1      -6.023   3.084  15.410  0.00  0.00    -0.096 C 
ATOM     25  H   UNL     1      -4.520   3.967  16.578  0.00  0.00    -0.082 HD
ATOM     26  C   UNL     1      -6.404   4.377  17.512  0.00  0.00    -0.064 C 
ATOM     27  C   UNL     1      -5.789   4.725  18.896  0.00  0.00    +0.066 C 
ENDBRANCH  19  20
ENDBRANCH  18  19
ENDBRANCH  14  15
ENDBRANCH  12  13
TORSDOF 6
ENDMDL
