MODEL 1
REMARK VINA RESULT:      -9.9      0.000      0.000
REMARK  Name = C:\Users\Docking\Desktop\test protocol\1iep_ligandH.pdb
REMARK  8 active torsions:
REMARK  status: ('A' for Active; 'I' for Inactive)
REMARK    1  A    between atoms: _5  and  _11
REMARK    2  A    between atoms: _19  and  _21
REMARK    3  A    between atoms: _22  and  _66
REMARK    4  A    between atoms: _27  and  _30
REMARK    5  A    between atoms: _32  and  _33
REMARK    6  A    between atoms: _38  and  _43
REMARK    7  A    between atoms: _43  and  _46
REMARK    8  A    between atoms: _53  and  _55
REMARK                            x       y       z     vdW  Elec       q    Type
REMARK                         _______ _______ _______ _____ _____    ______ ____
ROOT
ATOM     10  C   UNL     1     220.512 110.724  10.828  0.00  0.00    +0.038 A 
ATOM     11  C   UNL     1     221.499 111.348  10.023  0.00  0.00    +0.047 A 
ATOM     12  C   UNL     1     222.659 111.992  10.618  0.00  0.00    +0.035 A 
ATOM     32  C   UNL     1     222.785 111.978  12.038  0.00  0.00    +0.024 A 
ATOM     33  C   UNL     1     221.791 111.349  12.872  0.00  0.00    +0.007 A 
ATOM     34  C   UNL     1     220.643 110.715  12.290  0.00  0.00    -0.029 A 
ATOM     35  C   UNL     1     219.605 110.062  13.233  0.00  0.00    +0.045 C 
ENDROOT
BRANCH  10   9
ATOM      4  C   UNL     1     218.302 106.922   8.905  0.00  0.00    +0.077 A 
ATOM      5  C   UNL     1     219.433 106.071   9.141  0.00  0.00    +0.048 A 
ATOM      6  C   UNL     1     220.566 106.652   9.753  0.00  0.00    +0.116 A 
ATOM      7  N   UNL     1     220.558 107.986  10.099  0.00  0.00    -0.223 NA
ATOM      8  C   UNL     1     219.451 108.779   9.856  0.00  0.00    +0.220 A 
ATOM      9  N   UNL     1     219.418 110.121  10.203  0.00  0.00    -0.283 N 
ATOM     36  H   UNL     1     218.586 110.674  10.000  0.00  0.00    +0.155 HD
ATOM     37  N   UNL     1     218.357 108.248   9.271  0.00  0.00    -0.214 NA
BRANCH   4   3
ATOM      1  C   UNL     1     215.330 106.451   6.406  0.00  0.00    +0.020 A 
ATOM      2  C   UNL     1     216.566 106.936   6.975  0.00  0.00    +0.013 A 
ATOM      3  C   UNL     1     217.030 106.454   8.270  0.00  0.00    +0.019 A 
ATOM     38  C   UNL     1     216.213 105.472   8.968  0.00  0.00    +0.120 A 
ATOM     39  N   UNL     1     215.026 105.025   8.395  0.00  0.00    -0.263 NA
ATOM     40  C   UNL     1     214.569 105.483   7.151  0.00  0.00    +0.111 A 
ENDBRANCH   4   3
ENDBRANCH  10   9
BRANCH  12  13
ATOM     13  N   UNL     1     223.689 112.649   9.852  0.00  0.00    -0.281 N 
ATOM     14  C   UNL     1     224.336 112.183   8.719  0.00  0.00    +0.248 C 
ATOM     30  O   UNL     1     224.276 111.031   8.314  0.00  0.00    -0.270 OA
ATOM     31  H   UNL     1     223.976 113.569  10.186  0.00  0.00    +0.155 HD
BRANCH  14  15
ATOM     15  C   UNL     1     225.182 113.129   7.930  0.00  0.00    +0.037 A 
ATOM     16  C   UNL     1     226.151 114.010   8.587  0.00  0.00    +0.013 A 
ATOM     17  C   UNL     1     226.943 114.925   7.804  0.00  0.00    +0.005 A 
ATOM     18  C   UNL     1     226.769 114.963   6.354  0.00  0.00    -0.033 A 
ATOM     28  C   UNL     1     225.804 114.074   5.728  0.00  0.00    +0.005 A 
ATOM     29  C   UNL     1     225.026 113.176   6.492  0.00  0.00    +0.013 A 
BRANCH  18  19
ATOM     19  C   UNL     1     227.556 115.923   5.442  0.00  0.00    +0.119 C 
BRANCH  19  20
ATOM     20  N   UNL     1     229.015 115.659   5.268  0.00  0.00    -0.302 NA
ATOM     21  C   UNL     1     229.872 116.549   6.173  0.00  0.00    +0.066 C 
ATOM     22  C   UNL     1     231.395 116.244   5.995  0.00  0.00    -0.064 C 
ATOM     23  N   UNL     1     231.782 116.432   4.527  0.00  0.00    +0.379 N 
ATOM     24  C   UNL     1     233.225 116.202   4.366  0.00  0.00    -0.096 C 
ATOM     25  H   UNL     1     231.576 117.493   4.256  0.00  0.00    -0.082 HD
ATOM     26  C   UNL     1     230.933 115.552   3.620  0.00  0.00    -0.064 C 
ATOM     27  C   UNL     1     229.420 115.843   3.826  0.00  0.00    +0.066 C 
ENDBRANCH  19  20
ENDBRANCH  18  19
ENDBRANCH  14  15
ENDBRANCH  12  13
TORSDOF 6
ENDMDL
MODEL 2
REMARK VINA RESULT:      -9.7      2.095      2.853
REMARK  Name = C:\Users\Docking\Desktop\test protocol\1iep_ligandH.pdb
REMARK  8 active torsions:
REMARK  status: ('A' for Active; 'I' for Inactive)
REMARK    1  A    between atoms: _5  and  _11
REMARK    2  A    between atoms: _19  and  _21
REMARK    3  A    between atoms: _22  and  _66
REMARK    4  A    between atoms: _27  and  _30
REMARK    5  A    between atoms: _32  and  _33
REMARK    6  A    between atoms: _38  and  _43
REMARK    7  A    between atoms: _43  and  _46
REMARK    8  A    between atoms: _53  and  _55
REMARK                            x       y       z     vdW  Elec       q    Type
REMARK                         _______ _______ _______ _____ _____    ______ ____
ROOT
ATOM     10  C   UNL     1     221.630 110.164  11.702  0.00  0.00    +0.038 A 
ATOM     11  C   UNL     1     222.599 110.750  10.848  0.00  0.00    +0.047 A 
ATOM     12  C   UNL     1     222.769 112.193  10.780  0.00  0.00    +0.035 A 
ATOM     32  C   UNL     1     221.936 113.010  11.599  0.00  0.00    +0.024 A 
ATOM     33  C   UNL     1     220.945 112.431  12.472  0.00  0.00    +0.007 A 
ATOM     34  C   UNL     1     220.772 111.008  12.541  0.00  0.00    -0.029 A 
ATOM     35  C   UNL     1     219.689 110.443  13.490  0.00  0.00    +0.045 C 
ENDROOT
BRANCH  10   9
ATOM      4  C   UNL     1     220.559 105.970   9.629  0.00  0.00    +0.077 A 
ATOM      5  C   UNL     1     220.179 106.606   8.401  0.00  0.00    +0.048 A 
ATOM      6  C   UNL     1     220.268 108.015   8.346  0.00  0.00    +0.116 A 
ATOM      7  N   UNL     1     220.705 108.725   9.443  0.00  0.00    -0.223 NA
ATOM      8  C   UNL     1     221.061 108.080  10.614  0.00  0.00    +0.220 A 
ATOM      9  N   UNL     1     221.511 108.773  11.727  0.00  0.00    -0.283 N 
ATOM     36  H   UNL     1     221.757 108.261  12.574  0.00  0.00    +0.155 HD
ATOM     37  N   UNL     1     220.984 106.735  10.692  0.00  0.00    -0.214 NA
BRANCH   4   3
ATOM      1  C   UNL     1     221.453 102.163   9.539  0.00  0.00    +0.020 A 
ATOM      2  C   UNL     1     221.534 103.586   9.305  0.00  0.00    +0.013 A 
ATOM      3  C   UNL     1     220.523 104.488   9.841  0.00  0.00    +0.019 A 
ATOM     38  C   UNL     1     219.434 103.913  10.618  0.00  0.00    +0.120 A 
ATOM     39  N   UNL     1     219.382 102.538  10.826  0.00  0.00    -0.263 NA
ATOM     40  C   UNL     1     220.349 101.660  10.313  0.00  0.00    +0.111 A 
ENDBRANCH   4   3
ENDBRANCH  10   9
BRANCH  12  13
ATOM     13  N   UNL     1     223.730 112.845   9.926  0.00  0.00    -0.281 N 
ATOM     14  C   UNL     1     224.340 112.340   8.789  0.00  0.00    +0.248 C 
ATOM     30  O   UNL     1     224.311 111.166   8.453  0.00  0.00    -0.270 OA
ATOM     31  H   UNL     1     223.993 113.794  10.192  0.00  0.00    +0.155 HD
BRANCH  14  15
ATOM     15  C   UNL     1     225.105 113.272   7.906  0.00  0.00    +0.037 A 
ATOM     16  C   UNL     1     224.793 113.394   6.479  0.00  0.00    +0.013 A 
ATOM     17  C   UNL     1     225.557 114.288   5.646  0.00  0.00    +0.005 A 
ATOM     18  C   UNL     1     226.641 115.068   6.238  0.00  0.00    -0.033 A 
ATOM     28  C   UNL     1     226.925 114.932   7.657  0.00  0.00    +0.005 A 
ATOM     29  C   UNL     1     226.179 114.056   8.477  0.00  0.00    +0.013 A 
BRANCH  18  19
ATOM     19  C   UNL     1     227.522 116.031   5.420  0.00  0.00    +0.119 C 
BRANCH  19  20
ATOM     20  N   UNL     1     228.980 115.720   5.338  0.00  0.00    -0.302 NA
ATOM     21  C   UNL     1     229.821 116.681   6.185  0.00  0.00    +0.066 C 
ATOM     22  C   UNL     1     231.342 116.327   6.106  0.00  0.00    -0.064 C 
ATOM     23  N   UNL     1     231.794 116.356   4.645  0.00  0.00    +0.379 N 
ATOM     24  C   UNL     1     233.236 116.081   4.572  0.00  0.00    -0.096 C 
ATOM     25  H   UNL     1     231.626 117.389   4.260  0.00  0.00    -0.082 HD
ATOM     26  C   UNL     1     230.961 115.406   3.795  0.00  0.00    -0.064 C 
ATOM     27  C   UNL     1     229.449 115.748   3.904  0.00  0.00    +0.066 C 
ENDBRANCH  19  20
ENDBRANCH  18  19
ENDBRANCH  14  15
ENDBRANCH  12  13
TORSDOF 6
ENDMDL
MODEL 3
REMARK VINA RESULT:      -9.4      4.971     12.404
REMARK  Name = C:\Users\Docking\Desktop\test protocol\1iep_ligandH.pdb
REMARK  8 active torsions:
REMARK  status: ('A' for Active; 'I' for Inactive)
REMARK    1  A    between atoms: _5  and  _11
REMARK    2  A    between atoms: _19  and  _21
REMARK    3  A    between atoms: _22  and  _66
REMARK    4  A    between atoms: _27  and  _30
REMARK    5  A    between atoms: _32  and  _33
REMARK    6  A    between atoms: _38  and  _43
REMARK    7  A    between atoms: _43  and  _46
REMARK    8  A    between atoms: _53  and  _55
REMARK                            x       y       z     vdW  Elec       q    Type
REMARK                         _______ _______ _______ _____ _____    ______ ____
ROOT
ATOM     10  C   UNL     1     225.440 112.888   7.312  0.00  0.00    +0.038 A 
ATOM     11  C   UNL     1     225.142 113.098   8.683  0.00  0.00    +0.047 A 
ATOM     12  C   UNL     1     223.817 112.823   9.215  0.00  0.00    +0.035 A 
ATOM     32  C   UNL     1     222.819 112.333   8.324  0.00  0.00    +0.024 A 
ATOM     33  C   UNL     1     223.104 112.114   6.928  0.00  0.00    +0.007 A 
ATOM     34  C   UNL     1     224.409 112.386   6.396  0.00  0.00    -0.029 A 
ATOM     35  C   UNL     1     224.656 112.139   4.889  0.00  0.00    +0.045 C 
ENDROOT
BRANCH  10   9
ATOM      4  C   UNL     1     228.686 115.819   5.336  0.00  0.00    +0.077 A 
ATOM      5  C   UNL     1     227.726 116.873   5.178  0.00  0.00    +0.048 A 
ATOM      6  C   UNL     1     226.405 116.617   5.611  0.00  0.00    +0.116 A 
ATOM      7  N   UNL     1     226.081 115.396   6.161  0.00  0.00    -0.223 NA
ATOM      8  C   UNL     1     227.031 114.401   6.297  0.00  0.00    +0.220 A 
ATOM      9  N   UNL     1     226.729 113.168   6.854  0.00  0.00    -0.283 N 
ATOM     36  H   UNL     1     227.457 112.457   6.930  0.00  0.00    +0.155 HD
ATOM     37  N   UNL     1     228.299 114.619   5.889  0.00  0.00    -0.214 NA
BRANCH   4   3
ATOM      1  C   UNL     1     232.023 115.590   3.307  0.00  0.00    +0.020 A 
ATOM      2  C   UNL     1     230.626 115.450   3.651  0.00  0.00    +0.013 A 
ATOM      3  C   UNL     1     230.122 115.938   4.929  0.00  0.00    +0.019 A 
ATOM     38  C   UNL     1     231.064 116.567   5.842  0.00  0.00    +0.120 A 
ATOM     39  N   UNL     1     232.403 116.687   5.484  0.00  0.00    -0.263 NA
ATOM     40  C   UNL     1     232.900 116.219   4.258  0.00  0.00    +0.111 A 
ENDBRANCH   4   3
ENDBRANCH  10   9
BRANCH  12  13
ATOM     13  N   UNL     1     223.454 113.025  10.596  0.00  0.00    -0.281 N 
ATOM     14  C   UNL     1     223.076 112.070  11.526  0.00  0.00    +0.248 C 
ATOM     30  O   UNL     1     222.786 110.916  11.251  0.00  0.00    -0.270 OA
ATOM     31  H   UNL     1     223.478 113.989  10.929  0.00  0.00    +0.155 HD
BRANCH  14  15
ATOM     15  C   UNL     1     222.996 112.458  12.967  0.00  0.00    +0.037 A 
ATOM     16  C   UNL     1     221.868 112.041  13.804  0.00  0.00    +0.013 A 
ATOM     17  C   UNL     1     221.806 112.443  15.187  0.00  0.00    +0.005 A 
ATOM     18  C   UNL     1     222.878 113.266  15.742  0.00  0.00    -0.033 A 
ATOM     28  C   UNL     1     223.988 113.661  14.891  0.00  0.00    +0.005 A 
ATOM     29  C   UNL     1     224.051 113.270  13.535  0.00  0.00    +0.013 A 
BRANCH  18  19
ATOM     19  C   UNL     1     222.884 113.759  17.201  0.00  0.00    +0.119 C 
BRANCH  19  20
ATOM     20  N   UNL     1     223.493 115.096  17.469  0.00  0.00    -0.302 NA
ATOM     21  C   UNL     1     224.706 114.999  18.399  0.00  0.00    +0.066 C 
ATOM     22  C   UNL     1     225.344 116.404  18.650  0.00  0.00    -0.064 C 
ATOM     23  N   UNL     1     224.288 117.343  19.234  0.00  0.00    +0.379 N 
ATOM     24  C   UNL     1     224.900 118.648  19.526  0.00  0.00    -0.096 C 
ATOM     25  H   UNL     1     223.945 116.907  20.201  0.00  0.00    -0.082 HD
ATOM     26  C   UNL     1     223.077 117.444  18.318  0.00  0.00    -0.064 C 
ATOM     27  C   UNL     1     222.468 116.039  18.051  0.00  0.00    +0.066 C 
ENDBRANCH  19  20
ENDBRANCH  18  19
ENDBRANCH  14  15
ENDBRANCH  12  13
TORSDOF 6
ENDMDL
MODEL 4
REMARK VINA RESULT:      -9.3      8.497     17.238
REMARK  Name = C:\Users\Docking\Desktop\test protocol\1iep_ligandH.pdb
REMARK  8 active torsions:
REMARK  status: ('A' for Active; 'I' for Inactive)
REMARK    1  A    between atoms: _5  and  _11
REMARK    2  A    between atoms: _19  and  _21
REMARK    3  A    between atoms: _22  and  _66
REMARK    4  A    between atoms: _27  and  _30
REMARK    5  A    between atoms: _32  and  _33
REMARK    6  A    between atoms: _38  and  _43
REMARK    7  A    between atoms: _43  and  _46
REMARK    8  A    between atoms: _53  and  _55
REMARK                            x       y       z     vdW  Elec       q    Type
REMARK                         _______ _______ _______ _____ _____    ______ ____
ROOT
ATOM     10  C   UNL     1     235.811 115.370  13.153  0.00  0.00    +0.038 A 
ATOM     11  C   UNL     1     234.816 115.599  12.169  0.00  0.00    +0.047 A 
ATOM     12  C   UNL     1     233.474 115.059  12.315  0.00  0.00    +0.035 A 
ATOM     32  C   UNL     1     233.178 114.291  13.479  0.00  0.00    +0.024 A 
ATOM     33  C   UNL     1     234.177 114.047  14.489  0.00  0.00    +0.007 A 
ATOM     34  C   UNL     1     235.504 114.575  14.349  0.00  0.00    -0.029 A 
ATOM     35  C   UNL     1     236.537 114.276  15.460  0.00  0.00    +0.045 C 
ENDROOT
BRANCH  10   9
ATOM      4  C   UNL     1     239.253 118.553  14.180  0.00  0.00    +0.077 A 
ATOM      5  C   UNL     1     238.438 119.207  15.163  0.00  0.00    +0.048 A 
ATOM      6  C   UNL     1     237.136 118.697  15.369  0.00  0.00    +0.116 A 
ATOM      7  N   UNL     1     236.693 117.614  14.641  0.00  0.00    -0.223 NA
ATOM      8  C   UNL     1     237.505 117.008  13.700  0.00  0.00    +0.220 A 
ATOM      9  N   UNL     1     237.084 115.912  12.962  0.00  0.00    -0.283 N 
ATOM     36  H   UNL     1     237.710 115.498  12.272  0.00  0.00    +0.155 HD
ATOM     37  N   UNL     1     238.752 117.476  13.483  0.00  0.00    -0.214 NA
BRANCH   4   3
ATOM      1  C   UNL     1     243.151 118.884  14.189  0.00  0.00    +0.020 A 
ATOM      2  C   UNL     1     241.821 118.447  14.546  0.00  0.00    +0.013 A 
ATOM      3  C   UNL     1     240.652 118.972  13.851  0.00  0.00    +0.019 A 
ATOM     38  C   UNL     1     240.866 119.946  12.791  0.00  0.00    +0.120 A 
ATOM     39  N   UNL     1     242.158 120.350  12.471  0.00  0.00    -0.263 NA
ATOM     40  C   UNL     1     243.290 119.853  13.133  0.00  0.00    +0.111 A 
ENDBRANCH   4   3
ENDBRANCH  10   9
BRANCH  12  13
ATOM     13  N   UNL     1     232.425 115.252  11.345  0.00  0.00    -0.281 N 
ATOM     14  C   UNL     1     232.421 114.882  10.010  0.00  0.00    +0.248 C 
ATOM     30  O   UNL     1     233.409 114.516   9.391  0.00  0.00    -0.270 OA
ATOM     31  H   UNL     1     231.583 115.719  11.683  0.00  0.00    +0.155 HD
BRANCH  14  15
ATOM     15  C   UNL     1     231.136 114.939   9.249  0.00  0.00    +0.037 A 
ATOM     16  C   UNL     1     231.116 115.224   7.812  0.00  0.00    +0.013 A 
ATOM     17  C   UNL     1     229.861 115.291   7.105  0.00  0.00    +0.005 A 
ATOM     18  C   UNL     1     228.615 115.070   7.835  0.00  0.00    -0.033 A 
ATOM     28  C   UNL     1     228.664 114.784   9.259  0.00  0.00    +0.005 A 
ATOM     29  C   UNL     1     229.892 114.719   9.956  0.00  0.00    +0.013 A 
BRANCH  18  19
ATOM     19  C   UNL     1     227.230 115.143   7.166  0.00  0.00    +0.119 C 
BRANCH  19  20
ATOM     20  N   UNL     1     226.349 113.943   7.286  0.00  0.00    -0.302 NA
ATOM     21  C   UNL     1     225.373 113.827   6.111  0.00  0.00    +0.066 C 
ATOM     22  C   UNL     1     224.475 112.554   6.241  0.00  0.00    -0.064 C 
ATOM     23  N   UNL     1     223.719 112.601   7.570  0.00  0.00    +0.379 N 
ATOM     24  C   UNL     1     222.829 111.434   7.669  0.00  0.00    -0.096 C 
ATOM     25  H   UNL     1     223.080 113.514   7.563  0.00  0.00    -0.082 HD
ATOM     26  C   UNL     1     224.681 112.719   8.743  0.00  0.00    -0.064 C 
ATOM     27  C   UNL     1     225.589 113.970   8.590  0.00  0.00    +0.066 C 
ENDBRANCH  19  20
ENDBRANCH  18  19
ENDBRANCH  14  15
ENDBRANCH  12  13
TORSDOF 6
ENDMDL
MODEL 5
REMARK VINA RESULT:      -9.3     38.676     43.441
REMARK  Name = C:\Users\Docking\Desktop\test protocol\1iep_ligandH.pdb
REMARK  8 active torsions:
REMARK  status: ('A' for Active; 'I' for Inactive)
REMARK    1  A    between atoms: _5  and  _11
REMARK    2  A    between atoms: _19  and  _21
REMARK    3  A    between atoms: _22  and  _66
REMARK    4  A    between atoms: _27  and  _30
REMARK    5  A    between atoms: _32  and  _33
REMARK    6  A    between atoms: _38  and  _43
REMARK    7  A    between atoms: _43  and  _46
REMARK    8  A    between atoms: _53  and  _55
REMARK                            x       y       z     vdW  Elec       q    Type
REMARK                         _______ _______ _______ _____ _____    ______ ____
ROOT
ATOM     10  C   UNL     1     264.782 103.170   0.195  0.00  0.00    +0.038 A 
ATOM     11  C   UNL     1     264.152 103.621  -0.993  0.00  0.00    +0.047 A 
ATOM     12  C   UNL     1     262.981 102.943  -1.528  0.00  0.00    +0.035 A 
ATOM     32  C   UNL     1     262.478 101.809  -0.826  0.00  0.00    +0.024 A 
ATOM     33  C   UNL     1     263.108 101.336   0.382  0.00  0.00    +0.007 A 
ATOM     34  C   UNL     1     264.264 102.000   0.913  0.00  0.00    -0.029 A 
ATOM     35  C   UNL     1     264.902 101.445   2.208  0.00  0.00    +0.045 C 
ENDROOT
BRANCH  10   9
ATOM      4  C   UNL     1     267.151 107.227   1.178  0.00  0.00    +0.077 A 
ATOM      5  C   UNL     1     266.075 108.043   0.691  0.00  0.00    +0.048 A 
ATOM      6  C   UNL     1     264.933 107.379   0.190  0.00  0.00    +0.116 A 
ATOM      7  N   UNL     1     264.881 106.002   0.181  0.00  0.00    -0.223 NA
ATOM      8  C   UNL     1     265.937 105.245   0.656  0.00  0.00    +0.220 A 
ATOM      9  N   UNL     1     265.903 103.859   0.663  0.00  0.00    -0.283 N 
ATOM     36  H   UNL     1     266.705 103.337   1.015  0.00  0.00    +0.155 HD
ATOM     37  N   UNL     1     267.039 105.855   1.138  0.00  0.00    -0.214 NA
BRANCH   4   3
ATOM      1  C   UNL     1     270.026 109.673   2.204  0.00  0.00    +0.020 A 
ATOM      2  C   UNL     1     268.786 109.189   1.641  0.00  0.00    +0.013 A 
ATOM      3  C   UNL     1     268.422 107.781   1.741  0.00  0.00    +0.019 A 
ATOM     38  C   UNL     1     269.342 106.882   2.423  0.00  0.00    +0.120 A 
ATOM     39  N   UNL     1     270.530 107.376   2.953  0.00  0.00    -0.263 NA
ATOM     40  C   UNL     1     270.891 108.729   2.861  0.00  0.00    +0.111 A 
ENDBRANCH   4   3
ENDBRANCH  10   9
BRANCH  12  13
ATOM     13  N   UNL     1     262.304 103.350  -2.734  0.00  0.00    -0.281 N 
ATOM     14  C   UNL     1     261.872 104.620  -3.080  0.00  0.00    +0.248 C 
ATOM     30  O   UNL     1     261.813 105.565  -2.307  0.00  0.00    -0.270 OA
ATOM     31  H   UNL     1     262.120 102.613  -3.414  0.00  0.00    +0.155 HD
BRANCH  14  15
ATOM     15  C   UNL     1     261.428 104.874  -4.485  0.00  0.00    +0.037 A 
ATOM     16  C   UNL     1     260.335 104.105  -5.087  0.00  0.00    +0.013 A 
ATOM     17  C   UNL     1     259.938 104.358  -6.449  0.00  0.00    +0.005 A 
ATOM     18  C   UNL     1     260.634 105.386  -7.219  0.00  0.00    -0.033 A 
ATOM     28  C   UNL     1     261.711 106.137  -6.595  0.00  0.00    +0.005 A 
ATOM     29  C   UNL     1     262.104 105.892  -5.260  0.00  0.00    +0.013 A 
BRANCH  18  19
ATOM     19  C   UNL     1     260.292 105.709  -8.685  0.00  0.00    +0.119 C 
BRANCH  19  20
ATOM     20  N   UNL     1     259.230 106.730  -8.931  0.00  0.00    -0.302 NA
ATOM     21  C   UNL     1     259.808 108.040  -9.475  0.00  0.00    +0.066 C 
ATOM     22  C   UNL     1     258.682 109.090  -9.747  0.00  0.00    -0.064 C 
ATOM     23  N   UNL     1     257.897 109.338  -8.457  0.00  0.00    +0.379 N 
ATOM     24  C   UNL     1     256.875 110.367  -8.696  0.00  0.00    -0.096 C 
ATOM     25  H   UNL     1     258.611 109.738  -7.700  0.00  0.00    -0.082 HD
ATOM     26  C   UNL     1     257.322 108.040  -7.908  0.00  0.00    -0.064 C 
ATOM     27  C   UNL     1     258.446 106.994  -7.669  0.00  0.00    +0.066 C 
ENDBRANCH  19  20
ENDBRANCH  18  19
ENDBRANCH  14  15
ENDBRANCH  12  13
TORSDOF 6
ENDMDL
