MODEL 1
REMARK VINA RESULT:      -8.6      0.000      0.000
REMARK  Name = C:\Users\Docking\Desktop\test protocol\1iep_ligandH.pdb
REMARK  8 active torsions:
REMARK  status: ('A' for Active; 'I' for Inactive)
REMARK    1  A    between atoms: _5  and  _11
REMARK    2  A    between atoms: _19  and  _21
REMARK    3  A    between atoms: _22  and  _66
REMARK    4  A    between atoms: _27  and  _30
REMARK    5  A    between atoms: _32  and  _33
REMARK    6  A    between atoms: _38  and  _43
REMARK    7  A    between atoms: _43  and  _46
REMARK    8  A    between atoms: _53  and  _55
REMARK                            x       y       z     vdW  Elec       q    Type
REMARK                         _______ _______ _______ _____ _____    ______ ____
ROOT
ATOM     10  C   UNL     1      -7.073  -6.355   4.938  0.00  0.00    +0.038 A 
ATOM     11  C   UNL     1      -7.680  -5.094   5.166  0.00  0.00    +0.047 A 
ATOM     12  C   UNL     1      -7.487  -4.381   6.419  0.00  0.00    +0.035 A 
ATOM     32  C   UNL     1      -6.666  -4.982   7.418  0.00  0.00    +0.024 A 
ATOM     33  C   UNL     1      -6.042  -6.264   7.204  0.00  0.00    +0.007 A 
ATOM     34  C   UNL     1      -6.231  -6.972   5.970  0.00  0.00    -0.029 A 
ATOM     35  C   UNL     1      -5.543  -8.346   5.797  0.00  0.00    +0.045 C 
ENDROOT
BRANCH  10   9
ATOM      4  C   UNL     1      -9.428  -9.481   2.160  0.00  0.00    +0.077 A 
ATOM      5  C   UNL     1     -10.276  -9.894   3.241  0.00  0.00    +0.048 A 
ATOM      6  C   UNL     1     -10.069  -9.282   4.498  0.00  0.00    +0.116 A 
ATOM      7  N   UNL     1      -9.084  -8.330   4.650  0.00  0.00    -0.223 NA
ATOM      8  C   UNL     1      -8.283  -7.956   3.587  0.00  0.00    +0.220 A 
ATOM      9  N   UNL     1      -7.292  -6.995   3.716  0.00  0.00    -0.283 N 
ATOM     36  H   UNL     1      -6.717  -6.752   2.909  0.00  0.00    +0.155 HD
ATOM     37  N   UNL     1      -8.460  -8.526   2.377  0.00  0.00    -0.214 NA
BRANCH   4   3
ATOM      1  C   UNL     1     -10.838 -10.767  -1.255  0.00  0.00    +0.020 A 
ATOM      2  C   UNL     1     -10.798 -10.231   0.086  0.00  0.00    +0.013 A 
ATOM      3  C   UNL     1      -9.527 -10.032   0.771  0.00  0.00    +0.019 A 
ATOM     38  C   UNL     1      -8.305 -10.387   0.066  0.00  0.00    +0.120 A 
ATOM     39  N   UNL     1      -8.375 -10.902  -1.225  0.00  0.00    -0.263 NA
ATOM     40  C   UNL     1      -9.592 -11.100  -1.894  0.00  0.00    +0.111 A 
ENDBRANCH   4   3
ENDBRANCH  10   9
BRANCH  12  13
ATOM     13  N   UNL     1      -8.084  -3.102   6.711  0.00  0.00    -0.281 N 
ATOM     14  C   UNL     1      -7.649  -1.848   6.313  0.00  0.00    +0.248 C 
ATOM     30  O   UNL     1      -6.554  -1.621   5.821  0.00  0.00    -0.270 OA
ATOM     31  H   UNL     1      -8.930  -3.122   7.280  0.00  0.00    +0.155 HD
BRANCH  14  15
ATOM     15  C   UNL     1      -8.556  -0.675   6.501  0.00  0.00    +0.037 A 
ATOM     16  C   UNL     1      -8.807   0.274   5.414  0.00  0.00    +0.013 A 
ATOM     17  C   UNL     1      -9.673   1.406   5.628  0.00  0.00    +0.005 A 
ATOM     18  C   UNL     1     -10.296   1.595   6.936  0.00  0.00    -0.033 A 
ATOM     28  C   UNL     1     -10.034   0.635   7.995  0.00  0.00    +0.005 A 
ATOM     29  C   UNL     1      -9.185  -0.476   7.790  0.00  0.00    +0.013 A 
BRANCH  18  19
ATOM     19  C   UNL     1     -11.217   2.786   7.260  0.00  0.00    +0.119 C 
BRANCH  19  20
ATOM     20  N   UNL     1     -12.661   2.488   7.497  0.00  0.00    -0.302 NA
ATOM     21  C   UNL     1     -13.468   2.485   6.196  0.00  0.00    +0.066 C 
ATOM     22  C   UNL     1     -14.973   2.151   6.460  0.00  0.00    -0.064 C 
ATOM     23  N   UNL     1     -15.550   3.160   7.453  0.00  0.00    +0.379 N 
ATOM     24  C   UNL     1     -16.979   2.883   7.660  0.00  0.00    -0.096 C 
ATOM     25  H   UNL     1     -15.464   4.173   6.995  0.00  0.00    -0.082 HD
ATOM     26  C   UNL     1     -14.751   3.172   8.749  0.00  0.00    -0.064 C 
ATOM     27  C   UNL     1     -13.253   3.477   8.472  0.00  0.00    +0.066 C 
ENDBRANCH  19  20
ENDBRANCH  18  19
ENDBRANCH  14  15
ENDBRANCH  12  13
TORSDOF 6
ENDMDL
MODEL 2
REMARK VINA RESULT:      -8.4      1.540      1.590
REMARK  Name = C:\Users\Docking\Desktop\test protocol\1iep_ligandH.pdb
REMARK  8 active torsions:
REMARK  status: ('A' for Active; 'I' for Inactive)
REMARK    1  A    between atoms: _5  and  _11
REMARK    2  A    between atoms: _19  and  _21
REMARK    3  A    between atoms: _22  and  _66
REMARK    4  A    between atoms: _27  and  _30
REMARK    5  A    between atoms: _32  and  _33
REMARK    6  A    between atoms: _38  and  _43
REMARK    7  A    between atoms: _43  and  _46
REMARK    8  A    between atoms: _53  and  _55
REMARK                            x       y       z     vdW  Elec       q    Type
REMARK                         _______ _______ _______ _____ _____    ______ ____
ROOT
ATOM     10  C   UNL     1      -6.364  -5.736   2.992  0.00  0.00    +0.038 A 
ATOM     11  C   UNL     1      -7.108  -4.681   3.580  0.00  0.00    +0.047 A 
ATOM     12  C   UNL     1      -6.545  -3.866   4.645  0.00  0.00    +0.035 A 
ATOM     32  C   UNL     1      -5.219  -4.150   5.085  0.00  0.00    +0.024 A 
ATOM     33  C   UNL     1      -4.449  -5.219   4.499  0.00  0.00    +0.007 A 
ATOM     34  C   UNL     1      -5.000  -6.028   3.450  0.00  0.00    -0.029 A 
ATOM     35  C   UNL     1      -4.131  -7.165   2.863  0.00  0.00    +0.045 C 
ENDROOT
BRANCH  10   9
ATOM      4  C   UNL     1      -8.904  -9.499   1.436  0.00  0.00    +0.077 A 
ATOM      5  C   UNL     1      -9.046 -10.027   2.762  0.00  0.00    +0.048 A 
ATOM      6  C   UNL     1      -8.444  -9.304   3.816  0.00  0.00    +0.116 A 
ATOM      7  N   UNL     1      -7.754  -8.140   3.552  0.00  0.00    -0.223 NA
ATOM      8  C   UNL     1      -7.635  -7.659   2.261  0.00  0.00    +0.220 A 
ATOM      9  N   UNL     1      -6.953  -6.487   1.973  0.00  0.00    -0.283 N 
ATOM     36  H   UNL     1      -6.882  -6.170   1.007  0.00  0.00    +0.155 HD
ATOM     37  N   UNL     1      -8.200  -8.332   1.237  0.00  0.00    -0.214 NA
BRANCH   4   3
ATOM      1  C   UNL     1     -11.432 -10.886  -1.208  0.00  0.00    +0.020 A 
ATOM      2  C   UNL     1     -10.921 -10.251  -0.015  0.00  0.00    +0.013 A 
ATOM      3  C   UNL     1      -9.486 -10.147   0.218  0.00  0.00    +0.019 A 
ATOM     38  C   UNL     1      -8.588 -10.699  -0.785  0.00  0.00    +0.120 A 
ATOM     39  N   UNL     1      -9.108 -11.306  -1.923  0.00  0.00    -0.263 NA
ATOM     40  C   UNL     1     -10.488 -11.414  -2.157  0.00  0.00    +0.111 A 
ENDBRANCH   4   3
ENDBRANCH  10   9
BRANCH  12  13
ATOM     13  N   UNL     1      -7.256  -2.787   5.286  0.00  0.00    -0.281 N 
ATOM     14  C   UNL     1      -7.098  -1.425   5.085  0.00  0.00    +0.248 C 
ATOM     30  O   UNL     1      -6.166  -0.920   4.476  0.00  0.00    -0.270 OA
ATOM     31  H   UNL     1      -7.961  -3.060   5.970  0.00  0.00    +0.155 HD
BRANCH  14  15
ATOM     15  C   UNL     1      -8.113  -0.489   5.656  0.00  0.00    +0.037 A 
ATOM     16  C   UNL     1      -8.746   0.542   4.829  0.00  0.00    +0.013 A 
ATOM     17  C   UNL     1      -9.710   1.443   5.408  0.00  0.00    +0.005 A 
ATOM     18  C   UNL     1     -10.048   1.317   6.824  0.00  0.00    -0.033 A 
ATOM     28  C   UNL     1      -9.409   0.282   7.620  0.00  0.00    +0.005 A 
ATOM     29  C   UNL     1      -8.463  -0.603   7.056  0.00  0.00    +0.013 A 
BRANCH  18  19
ATOM     19  C   UNL     1     -11.050   2.249   7.531  0.00  0.00    +0.119 C 
BRANCH  19  20
ATOM     20  N   UNL     1     -12.461   1.774   7.648  0.00  0.00    -0.302 NA
ATOM     21  C   UNL     1     -13.400   2.525   6.701  0.00  0.00    +0.066 C 
ATOM     22  C   UNL     1     -14.868   2.000   6.819  0.00  0.00    -0.064 C 
ATOM     23  N   UNL     1     -15.339   2.134   8.269  0.00  0.00    +0.379 N 
ATOM     24  C   UNL     1     -16.738   1.696   8.372  0.00  0.00    -0.096 C 
ATOM     25  H   UNL     1     -15.302   3.216   8.537  0.00  0.00    -0.082 HD
ATOM     26  C   UNL     1     -14.409   1.392   9.217  0.00  0.00    -0.064 C 
ATOM     27  C   UNL     1     -12.947   1.901   9.070  0.00  0.00    +0.066 C 
ENDBRANCH  19  20
ENDBRANCH  18  19
ENDBRANCH  14  15
ENDBRANCH  12  13
TORSDOF 6
ENDMDL
MODEL 3
REMARK VINA RESULT:      -8.3      1.294      1.963
REMARK  Name = C:\Users\Docking\Desktop\test protocol\1iep_ligandH.pdb
REMARK  8 active torsions:
REMARK  status: ('A' for Active; 'I' for Inactive)
REMARK    1  A    between atoms: _5  and  _11
REMARK    2  A    between atoms: _19  and  _21
REMARK    3  A    between atoms: _22  and  _66
REMARK    4  A    between atoms: _27  and  _30
REMARK    5  A    between atoms: _32  and  _33
REMARK    6  A    between atoms: _38  and  _43
REMARK    7  A    between atoms: _43  and  _46
REMARK    8  A    between atoms: _53  and  _55
REMARK                            x       y       z     vdW  Elec       q    Type
REMARK                         _______ _______ _______ _____ _____    ______ ____
ROOT
ATOM     10  C   UNL     1      -8.023  -7.441   5.004  0.00  0.00    +0.038 A 
ATOM     11  C   UNL     1      -8.408  -6.093   5.220  0.00  0.00    +0.047 A 
ATOM     12  C   UNL     1      -7.734  -5.267   6.210  0.00  0.00    +0.035 A 
ATOM     32  C   UNL     1      -6.671  -5.846   6.962  0.00  0.00    +0.024 A 
ATOM     33  C   UNL     1      -6.267  -7.215   6.757  0.00  0.00    +0.007 A 
ATOM     34  C   UNL     1      -6.930  -8.035   5.783  0.00  0.00    -0.029 A 
ATOM     35  C   UNL     1      -6.460  -9.498   5.610  0.00  0.00    +0.045 C 
ENDROOT
BRANCH  10   9
ATOM      4  C   UNL     1      -8.483  -9.210   0.566  0.00  0.00    +0.077 A 
ATOM      5  C   UNL     1      -7.278  -8.570   0.123  0.00  0.00    +0.048 A 
ATOM      6  C   UNL     1      -6.574  -7.788   1.066  0.00  0.00    +0.116 A 
ATOM      7  N   UNL     1      -7.048  -7.664   2.354  0.00  0.00    -0.223 NA
ATOM      8  C   UNL     1      -8.214  -8.293   2.748  0.00  0.00    +0.220 A 
ATOM      9  N   UNL     1      -8.704  -8.188   4.041  0.00  0.00    -0.283 N 
ATOM     36  H   UNL     1      -9.572  -8.662   4.291  0.00  0.00    +0.155 HD
ATOM     37  N   UNL     1      -8.906  -9.044   1.866  0.00  0.00    -0.214 NA
BRANCH   4   3
ATOM      1  C   UNL     1     -11.564 -10.999  -1.050  0.00  0.00    +0.020 A 
ATOM      2  C   UNL     1     -10.785 -10.151  -0.176  0.00  0.00    +0.013 A 
ATOM      3  C   UNL     1      -9.336 -10.072  -0.312  0.00  0.00    +0.019 A 
ATOM     38  C   UNL     1      -8.701 -10.868  -1.351  0.00  0.00    +0.120 A 
ATOM     39  N   UNL     1      -9.476 -11.676  -2.177  0.00  0.00    -0.263 NA
ATOM     40  C   UNL     1     -10.871 -11.762  -2.054  0.00  0.00    +0.111 A 
ENDBRANCH   4   3
ENDBRANCH  10   9
BRANCH  12  13
ATOM     13  N   UNL     1      -8.087  -3.895   6.478  0.00  0.00    -0.281 N 
ATOM     14  C   UNL     1      -7.506  -2.749   5.959  0.00  0.00    +0.248 C 
ATOM     30  O   UNL     1      -6.449  -2.728   5.345  0.00  0.00    -0.270 OA
ATOM     31  H   UNL     1      -8.858  -3.750   7.130  0.00  0.00    +0.155 HD
BRANCH  14  15
ATOM     15  C   UNL     1      -8.190  -1.437   6.163  0.00  0.00    +0.037 A 
ATOM     16  C   UNL     1      -8.762  -1.071   7.461  0.00  0.00    +0.013 A 
ATOM     17  C   UNL     1      -9.432   0.194   7.627  0.00  0.00    +0.005 A 
ATOM     18  C   UNL     1      -9.532   1.105   6.489  0.00  0.00    -0.033 A 
ATOM     28  C   UNL     1      -8.951   0.720   5.213  0.00  0.00    +0.005 A 
ATOM     29  C   UNL     1      -8.295  -0.520   5.047  0.00  0.00    +0.013 A 
BRANCH  18  19
ATOM     19  C   UNL     1     -10.247   2.467   6.568  0.00  0.00    +0.119 C 
BRANCH  19  20
ATOM     20  N   UNL     1     -11.466   2.550   7.428  0.00  0.00    -0.302 NA
ATOM     21  C   UNL     1     -12.755   2.454   6.607  0.00  0.00    +0.066 C 
ATOM     22  C   UNL     1     -14.020   2.520   7.524  0.00  0.00    -0.064 C 
ATOM     23  N   UNL     1     -13.990   3.816   8.336  0.00  0.00    +0.379 N 
ATOM     24  C   UNL     1     -15.207   3.908   9.157  0.00  0.00    -0.096 C 
ATOM     25  H   UNL     1     -14.002   4.666   7.616  0.00  0.00    -0.082 HD
ATOM     26  C   UNL     1     -12.710   3.921   9.153  0.00  0.00    -0.064 C 
ATOM     27  C   UNL     1     -11.459   3.824   8.236  0.00  0.00    +0.066 C 
ENDBRANCH  19  20
ENDBRANCH  18  19
ENDBRANCH  14  15
ENDBRANCH  12  13
TORSDOF 6
ENDMDL
MODEL 4
REMARK VINA RESULT:      -8.0      1.667      2.003
REMARK  Name = C:\Users\Docking\Desktop\test protocol\1iep_ligandH.pdb
REMARK  8 active torsions:
REMARK  status: ('A' for Active; 'I' for Inactive)
REMARK    1  A    between atoms: _5  and  _11
REMARK    2  A    between atoms: _19  and  _21
REMARK    3  A    between atoms: _22  and  _66
REMARK    4  A    between atoms: _27  and  _30
REMARK    5  A    between atoms: _32  and  _33
REMARK    6  A    between atoms: _38  and  _43
REMARK    7  A    between atoms: _43  and  _46
REMARK    8  A    between atoms: _53  and  _55
REMARK                            x       y       z     vdW  Elec       q    Type
REMARK                         _______ _______ _______ _____ _____    ______ ____
ROOT
ATOM     10  C   UNL     1      -6.380  -5.833   2.411  0.00  0.00    +0.038 A 
ATOM     11  C   UNL     1      -7.224  -4.852   2.990  0.00  0.00    +0.047 A 
ATOM     12  C   UNL     1      -6.730  -3.943   4.013  0.00  0.00    +0.035 A 
ATOM     32  C   UNL     1      -5.370  -4.061   4.421  0.00  0.00    +0.024 A 
ATOM     33  C   UNL     1      -4.498  -5.053   3.844  0.00  0.00    +0.007 A 
ATOM     34  C   UNL     1      -4.980  -5.954   2.836  0.00  0.00    -0.029 A 
ATOM     35  C   UNL     1      -4.002  -7.003   2.258  0.00  0.00    +0.045 C 
ENDROOT
BRANCH  10   9
ATOM      4  C   UNL     1      -8.981  -9.632   1.054  0.00  0.00    +0.077 A 
ATOM      5  C   UNL     1      -9.296  -9.975   2.411  0.00  0.00    +0.048 A 
ATOM      6  C   UNL     1      -8.763  -9.153   3.429  0.00  0.00    +0.116 A 
ATOM      7  N   UNL     1      -7.976  -8.070   3.103  0.00  0.00    -0.223 NA
ATOM      8  C   UNL     1      -7.690  -7.768   1.784  0.00  0.00    +0.220 A 
ATOM      9  N   UNL     1      -6.906  -6.680   1.432  0.00  0.00    -0.283 N 
ATOM     36  H   UNL     1      -6.712  -6.495   0.449  0.00  0.00    +0.155 HD
ATOM     37  N   UNL     1      -8.185  -8.539   0.794  0.00  0.00    -0.214 NA
BRANCH   4   3
ATOM      1  C   UNL     1     -11.309 -11.369  -1.566  0.00  0.00    +0.020 A 
ATOM      2  C   UNL     1     -10.887 -10.618  -0.406  0.00  0.00    +0.013 A 
ATOM      3  C   UNL     1      -9.472 -10.402  -0.132  0.00  0.00    +0.019 A 
ATOM     38  C   UNL     1      -8.501 -10.964  -1.059  0.00  0.00    +0.120 A 
ATOM     39  N   UNL     1      -8.937 -11.684  -2.167  0.00  0.00    -0.263 NA
ATOM     40  C   UNL     1     -10.296 -11.899  -2.440  0.00  0.00    +0.111 A 
ENDBRANCH   4   3
ENDBRANCH  10   9
BRANCH  12  13
ATOM     13  N   UNL     1      -7.543  -2.932   4.642  0.00  0.00    -0.281 N 
ATOM     14  C   UNL     1      -7.326  -2.298   5.854  0.00  0.00    +0.248 C 
ATOM     30  O   UNL     1      -6.508  -2.659   6.687  0.00  0.00    -0.270 OA
ATOM     31  H   UNL     1      -8.380  -2.649   4.132  0.00  0.00    +0.155 HD
BRANCH  14  15
ATOM     15  C   UNL     1      -8.146  -1.096   6.198  0.00  0.00    +0.037 A 
ATOM     16  C   UNL     1      -8.671  -0.896   7.551  0.00  0.00    +0.013 A 
ATOM     17  C   UNL     1      -9.474   0.263   7.851  0.00  0.00    +0.005 A 
ATOM     18  C   UNL     1      -9.756   1.232   6.795  0.00  0.00    -0.033 A 
ATOM     28  C   UNL     1      -9.218   1.011   5.462  0.00  0.00    +0.005 A 
ATOM     29  C   UNL     1      -8.432  -0.124   5.164  0.00  0.00    +0.013 A 
BRANCH  18  19
ATOM     19  C   UNL     1     -10.620   2.487   7.020  0.00  0.00    +0.119 C 
BRANCH  19  20
ATOM     20  N   UNL     1     -11.968   2.287   7.632  0.00  0.00    -0.302 NA
ATOM     21  C   UNL     1     -13.098   2.540   6.630  0.00  0.00    +0.066 C 
ATOM     22  C   UNL     1     -14.499   2.305   7.282  0.00  0.00    -0.064 C 
ATOM     23  N   UNL     1     -14.648   3.211   8.505  0.00  0.00    +0.379 N 
ATOM     24  C   UNL     1     -15.987   3.035   9.086  0.00  0.00    -0.096 C 
ATOM     25  H   UNL     1     -14.567   4.266   8.156  0.00  0.00    -0.082 HD
ATOM     26  C   UNL     1     -13.527   2.969   9.506  0.00  0.00    -0.064 C 
ATOM     27  C   UNL     1     -12.138   3.176   8.840  0.00  0.00    +0.066 C 
ENDBRANCH  19  20
ENDBRANCH  18  19
ENDBRANCH  14  15
ENDBRANCH  12  13
TORSDOF 6
ENDMDL
MODEL 5
REMARK VINA RESULT:      -7.9      2.221      2.953
REMARK  Name = C:\Users\Docking\Desktop\test protocol\1iep_ligandH.pdb
REMARK  8 active torsions:
REMARK  status: ('A' for Active; 'I' for Inactive)
REMARK    1  A    between atoms: _5  and  _11
REMARK    2  A    between atoms: _19  and  _21
REMARK    3  A    between atoms: _22  and  _66
REMARK    4  A    between atoms: _27  and  _30
REMARK    5  A    between atoms: _32  and  _33
REMARK    6  A    between atoms: _38  and  _43
REMARK    7  A    between atoms: _43  and  _46
REMARK    8  A    between atoms: _53  and  _55
REMARK                            x       y       z     vdW  Elec       q    Type
REMARK                         _______ _______ _______ _____ _____    ______ ____
ROOT
ATOM     10  C   UNL     1      -6.297  -5.586   2.787  0.00  0.00    +0.038 A 
ATOM     11  C   UNL     1      -7.050  -4.584   3.451  0.00  0.00    +0.047 A 
ATOM     12  C   UNL     1      -6.451  -3.753   4.483  0.00  0.00    +0.035 A 
ATOM     32  C   UNL     1      -5.081  -3.968   4.813  0.00  0.00    +0.024 A 
ATOM     33  C   UNL     1      -4.301  -4.983   4.149  0.00  0.00    +0.007 A 
ATOM     34  C   UNL     1      -4.888  -5.808   3.131  0.00  0.00    -0.029 A 
ATOM     35  C   UNL     1      -4.006  -6.885   2.457  0.00  0.00    +0.045 C 
ENDROOT
BRANCH  10   9
ATOM      4  C   UNL     1      -8.730  -9.471   1.362  0.00  0.00    +0.077 A 
ATOM      5  C   UNL     1      -8.731 -10.028   2.684  0.00  0.00    +0.048 A 
ATOM      6  C   UNL     1      -8.089  -9.287   3.701  0.00  0.00    +0.116 A 
ATOM      7  N   UNL     1      -7.493  -8.079   3.406  0.00  0.00    -0.223 NA
ATOM      8  C   UNL     1      -7.509  -7.571   2.120  0.00  0.00    +0.220 A 
ATOM      9  N   UNL     1      -6.923  -6.355   1.803  0.00  0.00    -0.283 N 
ATOM     36  H   UNL     1      -6.950  -6.019   0.841  0.00  0.00    +0.155 HD
ATOM     37  N   UNL     1      -8.115  -8.261   1.131  0.00  0.00    -0.214 NA
BRANCH   4   3
ATOM      1  C   UNL     1     -11.384 -10.904  -1.129  0.00  0.00    +0.020 A 
ATOM      2  C   UNL     1     -10.816 -10.256   0.030  0.00  0.00    +0.013 A 
ATOM      3  C   UNL     1      -9.371 -10.133   0.182  0.00  0.00    +0.019 A 
ATOM     38  C   UNL     1      -8.523 -10.681  -0.866  0.00  0.00    +0.120 A 
ATOM     39  N   UNL     1      -9.098 -11.301  -1.970  0.00  0.00    -0.263 NA
ATOM     40  C   UNL     1     -10.487 -11.426  -2.127  0.00  0.00    +0.111 A 
ENDBRANCH   4   3
ENDBRANCH  10   9
BRANCH  12  13
ATOM     13  N   UNL     1      -7.167  -2.726   5.197  0.00  0.00    -0.281 N 
ATOM     14  C   UNL     1      -7.106  -1.355   5.006  0.00  0.00    +0.248 C 
ATOM     30  O   UNL     1      -6.260  -0.789   4.330  0.00  0.00    -0.270 OA
ATOM     31  H   UNL     1      -7.796  -3.048   5.933  0.00  0.00    +0.155 HD
BRANCH  14  15
ATOM     15  C   UNL     1      -8.124  -0.487   5.673  0.00  0.00    +0.037 A 
ATOM     16  C   UNL     1      -8.487  -0.685   7.079  0.00  0.00    +0.013 A 
ATOM     17  C   UNL     1      -9.484   0.155   7.693  0.00  0.00    +0.005 A 
ATOM     18  C   UNL     1     -10.123   1.204   6.902  0.00  0.00    -0.033 A 
ATOM     28  C   UNL     1      -9.740   1.382   5.511  0.00  0.00    +0.005 A 
ATOM     29  C   UNL     1      -8.764   0.559   4.905  0.00  0.00    +0.013 A 
BRANCH  18  19
ATOM     19  C   UNL     1     -11.212   2.134   7.469  0.00  0.00    +0.119 C 
BRANCH  19  20
ATOM     20  N   UNL     1     -10.774   3.464   7.986  0.00  0.00    -0.302 NA
ATOM     21  C   UNL     1     -10.193   3.369   9.400  0.00  0.00    +0.066 C 
ATOM     22  C   UNL     1      -9.719   4.767   9.916  0.00  0.00    -0.064 C 
ATOM     23  N   UNL     1     -10.893   5.747   9.877  0.00  0.00    +0.379 N 
ATOM     24  C   UNL     1     -10.465   7.046  10.416  0.00  0.00    -0.096 C 
ATOM     25  H   UNL     1     -11.689   5.347  10.548  0.00  0.00    -0.082 HD
ATOM     26  C   UNL     1     -11.478   5.846   8.476  0.00  0.00    -0.064 C 
ATOM     27  C   UNL     1     -11.919   4.447   7.961  0.00  0.00    +0.066 C 
ENDBRANCH  19  20
ENDBRANCH  18  19
ENDBRANCH  14  15
ENDBRANCH  12  13
TORSDOF 6
ENDMDL
