MODEL 1
REMARK VINA RESULT:      -8.0      0.000      0.000
REMARK  Name = C:\Users\Docking\Desktop\test protocol\1iep_ligandH.pdb
REMARK  8 active torsions:
REMARK  status: ('A' for Active; 'I' for Inactive)
REMARK    1  A    between atoms: _5  and  _11
REMARK    2  A    between atoms: _19  and  _21
REMARK    3  A    between atoms: _22  and  _66
REMARK    4  A    between atoms: _27  and  _30
REMARK    5  A    between atoms: _32  and  _33
REMARK    6  A    between atoms: _38  and  _43
REMARK    7  A    between atoms: _43  and  _46
REMARK    8  A    between atoms: _53  and  _55
REMARK                            x       y       z     vdW  Elec       q    Type
REMARK                         _______ _______ _______ _____ _____    ______ ____
ROOT
ATOM     10  C   UNL     1      19.895  -0.826   8.100  0.00  0.00    +0.038 A 
ATOM     11  C   UNL     1      20.245  -0.864   9.474  0.00  0.00    +0.047 A 
ATOM     12  C   UNL     1      19.479  -1.656  10.424  0.00  0.00    +0.035 A 
ATOM     32  C   UNL     1      18.364  -2.400   9.939  0.00  0.00    +0.024 A 
ATOM     33  C   UNL     1      17.994  -2.372   8.546  0.00  0.00    +0.007 A 
ATOM     34  C   UNL     1      18.744  -1.590   7.605  0.00  0.00    -0.029 A 
ATOM     35  C   UNL     1      18.297  -1.593   6.124  0.00  0.00    +0.045 C 
ENDROOT
BRANCH  10   9
ATOM      4  C   UNL     1      20.743   3.225   5.670  0.00  0.00    +0.077 A 
ATOM      5  C   UNL     1      19.536   3.835   6.149  0.00  0.00    +0.048 A 
ATOM      6  C   UNL     1      18.721   3.070   7.013  0.00  0.00    +0.116 A 
ATOM      7  N   UNL     1      19.096   1.791   7.365  0.00  0.00    -0.223 NA
ATOM      8  C   UNL     1      20.265   1.232   6.884  0.00  0.00    +0.220 A 
ATOM      9  N   UNL     1      20.665  -0.049   7.232  0.00  0.00    -0.283 N 
ATOM     36  H   UNL     1      21.531  -0.428   6.850  0.00  0.00    +0.155 HD
ATOM     37  N   UNL     1      21.060   1.942   6.057  0.00  0.00    -0.214 NA
BRANCH   4   3
ATOM      1  C   UNL     1      24.039   4.599   4.073  0.00  0.00    +0.020 A 
ATOM      2  C   UNL     1      23.148   3.927   4.990  0.00  0.00    +0.013 A 
ATOM      3  C   UNL     1      21.710   3.907   4.753  0.00  0.00    +0.019 A 
ATOM     38  C   UNL     1      21.202   4.583   3.569  0.00  0.00    +0.120 A 
ATOM     39  N   UNL     1      22.084   5.224   2.704  0.00  0.00    -0.263 NA
ATOM     40  C   UNL     1      23.469   5.251   2.923  0.00  0.00    +0.111 A 
ENDBRANCH   4   3
ENDBRANCH  10   9
BRANCH  12  13
ATOM     13  N   UNL     1      19.782  -1.727  11.832  0.00  0.00    -0.281 N 
ATOM     14  C   UNL     1      20.529  -2.687  12.495  0.00  0.00    +0.248 C 
ATOM     30  O   UNL     1      20.875  -3.752  12.007  0.00  0.00    -0.270 OA
ATOM     31  H   UNL     1      19.398  -0.980  12.410  0.00  0.00    +0.155 HD
BRANCH  14  15
ATOM     15  C   UNL     1      20.940  -2.432  13.909  0.00  0.00    +0.037 A 
ATOM     16  C   UNL     1      22.068  -3.146  14.513  0.00  0.00    +0.013 A 
ATOM     17  C   UNL     1      22.432  -2.893  15.885  0.00  0.00    +0.005 A 
ATOM     18  C   UNL     1      21.668  -1.920  16.661  0.00  0.00    -0.033 A 
ATOM     28  C   UNL     1      20.557  -1.222  16.035  0.00  0.00    +0.005 A 
ATOM     29  C   UNL     1      20.197  -1.468  14.692  0.00  0.00    +0.013 A 
BRANCH  18  19
ATOM     19  C   UNL     1      21.973  -1.603  18.137  0.00  0.00    +0.119 C 
BRANCH  19  20
ATOM     20  N   UNL     1      22.762  -0.367  18.422  0.00  0.00    -0.302 NA
ATOM     21  C   UNL     1      23.818  -0.598  19.507  0.00  0.00    +0.066 C 
ATOM     22  C   UNL     1      24.650   0.699  19.777  0.00  0.00    -0.064 C 
ATOM     23  N   UNL     1      23.705   1.834  20.173  0.00  0.00    +0.379 N 
ATOM     24  C   UNL     1      24.488   3.039  20.484  0.00  0.00    -0.096 C 
ATOM     25  H   UNL     1      23.177   1.524  21.105  0.00  0.00    -0.082 HD
ATOM     26  C   UNL     1      22.650   2.068  19.102  0.00  0.00    -0.064 C 
ATOM     27  C   UNL     1      21.849   0.766  18.820  0.00  0.00    +0.066 C 
ENDBRANCH  19  20
ENDBRANCH  18  19
ENDBRANCH  14  15
ENDBRANCH  12  13
TORSDOF 6
ENDMDL
MODEL 2
REMARK VINA RESULT:      -7.9      2.084      3.028
REMARK  Name = C:\Users\Docking\Desktop\test protocol\1iep_ligandH.pdb
REMARK  8 active torsions:
REMARK  status: ('A' for Active; 'I' for Inactive)
REMARK    1  A    between atoms: _5  and  _11
REMARK    2  A    between atoms: _19  and  _21
REMARK    3  A    between atoms: _22  and  _66
REMARK    4  A    between atoms: _27  and  _30
REMARK    5  A    between atoms: _32  and  _33
REMARK    6  A    between atoms: _38  and  _43
REMARK    7  A    between atoms: _43  and  _46
REMARK    8  A    between atoms: _53  and  _55
REMARK                            x       y       z     vdW  Elec       q    Type
REMARK                         _______ _______ _______ _____ _____    ______ ____
ROOT
ATOM     10  C   UNL     1      20.364  -0.791   8.390  0.00  0.00    +0.038 A 
ATOM     11  C   UNL     1      20.744  -0.803   9.757  0.00  0.00    +0.047 A 
ATOM     12  C   UNL     1      20.044  -1.633  10.725  0.00  0.00    +0.035 A 
ATOM     32  C   UNL     1      18.963  -2.441  10.267  0.00  0.00    +0.024 A 
ATOM     33  C   UNL     1      18.562  -2.439   8.882  0.00  0.00    +0.007 A 
ATOM     34  C   UNL     1      19.247  -1.621   7.922  0.00  0.00    -0.029 A 
ATOM     35  C   UNL     1      18.770  -1.654   6.451  0.00  0.00    +0.045 C 
ENDROOT
BRANCH  10   9
ATOM      4  C   UNL     1      20.814   3.185   5.740  0.00  0.00    +0.077 A 
ATOM      5  C   UNL     1      19.521   3.665   6.133  0.00  0.00    +0.048 A 
ATOM      6  C   UNL     1      18.768   2.856   7.014  0.00  0.00    +0.116 A 
ATOM      7  N   UNL     1      19.281   1.657   7.461  0.00  0.00    -0.223 NA
ATOM      8  C   UNL     1      20.531   1.223   7.060  0.00  0.00    +0.220 A 
ATOM      9  N   UNL     1      21.070   0.025   7.504  0.00  0.00    -0.283 N 
ATOM     36  H   UNL     1      21.993  -0.264   7.179  0.00  0.00    +0.155 HD
ATOM     37  N   UNL     1      21.269   1.977   6.219  0.00  0.00    -0.214 NA
BRANCH   4   3
ATOM      1  C   UNL     1      24.016   4.688   4.070  0.00  0.00    +0.020 A 
ATOM      2  C   UNL     1      23.177   3.955   4.989  0.00  0.00    +0.013 A 
ATOM      3  C   UNL     1      21.730   3.928   4.817  0.00  0.00    +0.019 A 
ATOM     38  C   UNL     1      21.159   4.659   3.696  0.00  0.00    +0.120 A 
ATOM     39  N   UNL     1      21.992   5.357   2.827  0.00  0.00    -0.263 NA
ATOM     40  C   UNL     1      23.386   5.391   2.984  0.00  0.00    +0.111 A 
ENDBRANCH   4   3
ENDBRANCH  10   9
BRANCH  12  13
ATOM     13  N   UNL     1      20.380  -1.681  12.126  0.00  0.00    -0.281 N 
ATOM     14  C   UNL     1      20.463  -2.795  12.945  0.00  0.00    +0.248 C 
ATOM     30  O   UNL     1      20.050  -3.905  12.645  0.00  0.00    -0.270 OA
ATOM     31  H   UNL     1      20.582  -0.784  12.569  0.00  0.00    +0.155 HD
BRANCH  14  15
ATOM     15  C   UNL     1      21.081  -2.653  14.298  0.00  0.00    +0.037 A 
ATOM     16  C   UNL     1      20.799  -1.490  15.144  0.00  0.00    +0.013 A 
ATOM     17  C   UNL     1      21.422  -1.370  16.439  0.00  0.00    +0.005 A 
ATOM     18  C   UNL     1      22.333  -2.416  16.896  0.00  0.00    -0.033 A 
ATOM     28  C   UNL     1      22.591  -3.561  16.038  0.00  0.00    +0.005 A 
ATOM     29  C   UNL     1      21.983  -3.683  14.769  0.00  0.00    +0.013 A 
BRANCH  18  19
ATOM     19  C   UNL     1      23.058  -2.359  18.253  0.00  0.00    +0.119 C 
BRANCH  19  20
ATOM     20  N   UNL     1      23.515  -3.655  18.839  0.00  0.00    -0.302 NA
ATOM     21  C   UNL     1      22.414  -4.335  19.658  0.00  0.00    +0.066 C 
ATOM     22  C   UNL     1      22.902  -5.700  20.245  0.00  0.00    -0.064 C 
ATOM     23  N   UNL     1      24.149  -5.467  21.100  0.00  0.00    +0.379 N 
ATOM     24  C   UNL     1      24.576  -6.740  21.700  0.00  0.00    -0.096 C 
ATOM     25  H   UNL     1      23.865  -4.780  21.931  0.00  0.00    -0.082 HD
ATOM     26  C   UNL     1      25.247  -4.789  20.294  0.00  0.00    -0.064 C 
ATOM     27  C   UNL     1      24.743  -3.448  19.691  0.00  0.00    +0.066 C 
ENDBRANCH  19  20
ENDBRANCH  18  19
ENDBRANCH  14  15
ENDBRANCH  12  13
TORSDOF 6
ENDMDL
MODEL 3
REMARK VINA RESULT:      -7.8      4.460      8.318
REMARK  Name = C:\Users\Docking\Desktop\test protocol\1iep_ligandH.pdb
REMARK  8 active torsions:
REMARK  status: ('A' for Active; 'I' for Inactive)
REMARK    1  A    between atoms: _5  and  _11
REMARK    2  A    between atoms: _19  and  _21
REMARK    3  A    between atoms: _22  and  _66
REMARK    4  A    between atoms: _27  and  _30
REMARK    5  A    between atoms: _32  and  _33
REMARK    6  A    between atoms: _38  and  _43
REMARK    7  A    between atoms: _43  and  _46
REMARK    8  A    between atoms: _53  and  _55
REMARK                            x       y       z     vdW  Elec       q    Type
REMARK                         _______ _______ _______ _____ _____    ______ ____
ROOT
ATOM     10  C   UNL     1      22.331  -3.737  16.029  0.00  0.00    +0.038 A 
ATOM     11  C   UNL     1      22.755  -2.511  16.602  0.00  0.00    +0.047 A 
ATOM     12  C   UNL     1      22.890  -2.361  18.042  0.00  0.00    +0.035 A 
ATOM     32  C   UNL     1      22.588  -3.481  18.870  0.00  0.00    +0.024 A 
ATOM     33  C   UNL     1      22.154  -4.734  18.305  0.00  0.00    +0.007 A 
ATOM     34  C   UNL     1      22.016  -4.888  16.884  0.00  0.00    -0.029 A 
ATOM     35  C   UNL     1      21.541  -6.253  16.334  0.00  0.00    +0.045 C 
ENDROOT
BRANCH  10   9
ATOM      4  C   UNL     1      20.507  -2.298  11.829  0.00  0.00    +0.077 A 
ATOM      5  C   UNL     1      19.688  -1.302  12.459  0.00  0.00    +0.048 A 
ATOM      6  C   UNL     1      19.760  -1.198  13.866  0.00  0.00    +0.116 A 
ATOM      7  N   UNL     1      20.593  -2.032  14.580  0.00  0.00    -0.223 NA
ATOM      8  C   UNL     1      21.368  -2.982  13.942  0.00  0.00    +0.220 A 
ATOM      9  N   UNL     1      22.219  -3.826  14.640  0.00  0.00    -0.283 N 
ATOM     36  H   UNL     1      22.768  -4.519  14.133  0.00  0.00    +0.155 HD
ATOM     37  N   UNL     1      21.316  -3.103  12.599  0.00  0.00    -0.214 NA
BRANCH   4   3
ATOM      1  C   UNL     1      20.708  -1.722   7.966  0.00  0.00    +0.020 A 
ATOM      2  C   UNL     1      20.677  -1.446   9.383  0.00  0.00    +0.013 A 
ATOM      3  C   UNL     1      20.543  -2.528  10.350  0.00  0.00    +0.019 A 
ATOM     38  C   UNL     1      20.442  -3.889   9.846  0.00  0.00    +0.120 A 
ATOM     39  N   UNL     1      20.473  -4.125   8.475  0.00  0.00    -0.263 NA
ATOM     40  C   UNL     1      20.600  -3.091   7.535  0.00  0.00    +0.111 A 
ENDBRANCH   4   3
ENDBRANCH  10   9
BRANCH  12  13
ATOM     13  N   UNL     1      23.309  -1.138  18.682  0.00  0.00    -0.281 N 
ATOM     14  C   UNL     1      23.024   0.163  18.301  0.00  0.00    +0.248 C 
ATOM     30  O   UNL     1      22.540   0.478  17.224  0.00  0.00    -0.270 OA
ATOM     31  H   UNL     1      23.886  -1.245  19.516  0.00  0.00    +0.155 HD
BRANCH  14  15
ATOM     15  C   UNL     1      23.335   1.277  19.248  0.00  0.00    +0.037 A 
ATOM     16  C   UNL     1      24.598   1.313  19.990  0.00  0.00    +0.013 A 
ATOM     17  C   UNL     1      24.865   2.391  20.910  0.00  0.00    +0.005 A 
ATOM     18  C   UNL     1      23.867   3.442  21.091  0.00  0.00    -0.033 A 
ATOM     28  C   UNL     1      22.625   3.384  20.338  0.00  0.00    +0.005 A 
ATOM     29  C   UNL     1      22.359   2.329  19.436  0.00  0.00    +0.013 A 
BRANCH  18  19
ATOM     19  C   UNL     1      24.059   4.618  22.067  0.00  0.00    +0.119 C 
BRANCH  19  20
ATOM     20  N   UNL     1      24.098   4.297  23.525  0.00  0.00    -0.302 NA
ATOM     21  C   UNL     1      22.698   4.266  24.144  0.00  0.00    +0.066 C 
ATOM     22  C   UNL     1      22.756   3.906  25.665  0.00  0.00    -0.064 C 
ATOM     23  N   UNL     1      23.647   4.916  26.391  0.00  0.00    +0.379 N 
ATOM     24  C   UNL     1      23.657   4.615  27.830  0.00  0.00    -0.096 C 
ATOM     25  H   UNL     1      23.191   5.925  26.259  0.00  0.00    -0.082 HD
ATOM     26  C   UNL     1      25.040   4.956  25.779  0.00  0.00    -0.064 C 
ATOM     27  C   UNL     1      24.969   5.285  24.262  0.00  0.00    +0.066 C 
ENDBRANCH  19  20
ENDBRANCH  18  19
ENDBRANCH  14  15
ENDBRANCH  12  13
TORSDOF 6
ENDMDL
MODEL 4
REMARK VINA RESULT:      -7.8      3.512     12.693
REMARK  Name = C:\Users\Docking\Desktop\test protocol\1iep_ligandH.pdb
REMARK  8 active torsions:
REMARK  status: ('A' for Active; 'I' for Inactive)
REMARK    1  A    between atoms: _5  and  _11
REMARK    2  A    between atoms: _19  and  _21
REMARK    3  A    between atoms: _22  and  _66
REMARK    4  A    between atoms: _27  and  _30
REMARK    5  A    between atoms: _32  and  _33
REMARK    6  A    between atoms: _38  and  _43
REMARK    7  A    between atoms: _43  and  _46
REMARK    8  A    between atoms: _53  and  _55
REMARK                            x       y       z     vdW  Elec       q    Type
REMARK                         _______ _______ _______ _____ _____    ______ ____
ROOT
ATOM     10  C   UNL     1      18.849   1.375   9.177  0.00  0.00    +0.038 A 
ATOM     11  C   UNL     1      19.725   2.070   8.304  0.00  0.00    +0.047 A 
ATOM     12  C   UNL     1      19.234   2.692   7.085  0.00  0.00    +0.035 A 
ATOM     32  C   UNL     1      17.844   2.590   6.786  0.00  0.00    +0.024 A 
ATOM     33  C   UNL     1      16.940   1.887   7.662  0.00  0.00    +0.007 A 
ATOM     34  C   UNL     1      17.419   1.268   8.865  0.00  0.00    -0.029 A 
ATOM     35  C   UNL     1      16.406   0.522   9.763  0.00  0.00    +0.045 C 
ENDROOT
BRANCH  10   9
ATOM      4  C   UNL     1      20.528  -2.386  11.642  0.00  0.00    +0.077 A 
ATOM      5  C   UNL     1      20.316  -3.278  10.540  0.00  0.00    +0.048 A 
ATOM      6  C   UNL     1      19.766  -2.732   9.359  0.00  0.00    +0.116 A 
ATOM      7  N   UNL     1      19.456  -1.390   9.296  0.00  0.00    -0.223 NA
ATOM      8  C   UNL     1      19.672  -0.557  10.378  0.00  0.00    +0.220 A 
ATOM      9  N   UNL     1      19.375   0.796  10.335  0.00  0.00    -0.283 N 
ATOM     36  H   UNL     1      19.542   1.376  11.157  0.00  0.00    +0.155 HD
ATOM     37  N   UNL     1      20.194  -1.056  11.518  0.00  0.00    -0.214 NA
BRANCH   4   3
ATOM      1  C   UNL     1      22.895  -3.892  14.368  0.00  0.00    +0.020 A 
ATOM      2  C   UNL     1      22.383  -3.501  13.075  0.00  0.00    +0.013 A 
ATOM      3  C   UNL     1      21.104  -2.813  12.957  0.00  0.00    +0.019 A 
ATOM     38  C   UNL     1      20.362  -2.531  14.177  0.00  0.00    +0.120 A 
ATOM     39  N   UNL     1      20.880  -2.921  15.408  0.00  0.00    -0.263 NA
ATOM     40  C   UNL     1      22.109  -3.585  15.534  0.00  0.00    +0.111 A 
ENDBRANCH   4   3
ENDBRANCH  10   9
BRANCH  12  13
ATOM     13  N   UNL     1      20.077   3.404   6.156  0.00  0.00    -0.281 N 
ATOM     14  C   UNL     1      21.293   3.000   5.628  0.00  0.00    +0.248 C 
ATOM     30  O   UNL     1      21.945   2.053   6.041  0.00  0.00    -0.270 OA
ATOM     31  H   UNL     1      19.737   4.316   5.852  0.00  0.00    +0.155 HD
BRANCH  14  15
ATOM     15  C   UNL     1      21.874   3.768   4.485  0.00  0.00    +0.037 A 
ATOM     16  C   UNL     1      21.019   4.513   3.557  0.00  0.00    +0.013 A 
ATOM     17  C   UNL     1      21.603   5.232   2.453  0.00  0.00    +0.005 A 
ATOM     18  C   UNL     1      23.053   5.209   2.271  0.00  0.00    -0.033 A 
ATOM     28  C   UNL     1      23.878   4.466   3.209  0.00  0.00    +0.005 A 
ATOM     29  C   UNL     1      23.308   3.760   4.292  0.00  0.00    +0.013 A 
BRANCH  18  19
ATOM     19  C   UNL     1      23.761   5.929   1.108  0.00  0.00    +0.119 C 
BRANCH  19  20
ATOM     20  N   UNL     1      24.753   6.988   1.463  0.00  0.00    -0.302 NA
ATOM     21  C   UNL     1      24.452   8.315   0.760  0.00  0.00    +0.066 C 
ATOM     22  C   UNL     1      25.485   9.418   1.159  0.00  0.00    -0.064 C 
ATOM     23  N   UNL     1      26.897   8.935   0.823  0.00  0.00    +0.379 N 
ATOM     24  C   UNL     1      27.867   9.993   1.144  0.00  0.00    -0.096 C 
ATOM     25  H   UNL     1      26.941   8.758  -0.276  0.00  0.00    -0.082 HD
ATOM     26  C   UNL     1      27.204   7.615   1.516  0.00  0.00    -0.064 C 
ATOM     27  C   UNL     1      26.154   6.534   1.135  0.00  0.00    +0.066 C 
ENDBRANCH  19  20
ENDBRANCH  18  19
ENDBRANCH  14  15
ENDBRANCH  12  13
TORSDOF 6
ENDMDL
MODEL 5
REMARK VINA RESULT:      -7.7      9.948     13.798
REMARK  Name = C:\Users\Docking\Desktop\test protocol\1iep_ligandH.pdb
REMARK  8 active torsions:
REMARK  status: ('A' for Active; 'I' for Inactive)
REMARK    1  A    between atoms: _5  and  _11
REMARK    2  A    between atoms: _19  and  _21
REMARK    3  A    between atoms: _22  and  _66
REMARK    4  A    between atoms: _27  and  _30
REMARK    5  A    between atoms: _32  and  _33
REMARK    6  A    between atoms: _38  and  _43
REMARK    7  A    between atoms: _43  and  _46
REMARK    8  A    between atoms: _53  and  _55
REMARK                            x       y       z     vdW  Elec       q    Type
REMARK                         _______ _______ _______ _____ _____    ______ ____
ROOT
ATOM     10  C   UNL     1      22.114  -5.401  19.754  0.00  0.00    +0.038 A 
ATOM     11  C   UNL     1      22.605  -6.039  20.922  0.00  0.00    +0.047 A 
ATOM     12  C   UNL     1      22.604  -7.489  21.044  0.00  0.00    +0.035 A 
ATOM     32  C   UNL     1      22.098  -8.258  19.956  0.00  0.00    +0.024 A 
ATOM     33  C   UNL     1      21.595  -7.626  18.762  0.00  0.00    +0.007 A 
ATOM     34  C   UNL     1      21.591  -6.196  18.637  0.00  0.00    -0.029 A 
ATOM     35  C   UNL     1      21.033  -5.572  17.336  0.00  0.00    +0.045 C 
ENDROOT
BRANCH  10   9
ATOM      4  C   UNL     1      24.451  -1.217  19.493  0.00  0.00    +0.077 A 
ATOM      5  C   UNL     1      25.732  -1.863  19.512  0.00  0.00    +0.048 A 
ATOM      6  C   UNL     1      25.745  -3.273  19.597  0.00  0.00    +0.116 A 
ATOM      7  N   UNL     1      24.561  -3.975  19.658  0.00  0.00    -0.223 NA
ATOM      8  C   UNL     1      23.343  -3.320  19.638  0.00  0.00    +0.220 A 
ATOM      9  N   UNL     1      22.139  -4.006  19.690  0.00  0.00    -0.283 N 
ATOM     36  H   UNL     1      21.262  -3.486  19.681  0.00  0.00    +0.155 HD
ATOM     37  N   UNL     1      23.303  -1.974  19.559  0.00  0.00    -0.214 NA
BRANCH   4   3
ATOM      1  C   UNL     1      25.121   2.636  19.575  0.00  0.00    +0.020 A 
ATOM      2  C   UNL     1      25.346   1.213  19.677  0.00  0.00    +0.013 A 
ATOM      3  C   UNL     1      24.272   0.267  19.402  0.00  0.00    +0.019 A 
ATOM     38  C   UNL     1      22.971   0.798  19.023  0.00  0.00    +0.120 A 
ATOM     39  N   UNL     1      22.783   2.174  18.934  0.00  0.00    -0.263 NA
ATOM     40  C   UNL     1      23.809   3.094  19.198  0.00  0.00    +0.111 A 
ENDBRANCH   4   3
ENDBRANCH  10   9
BRANCH  12  13
ATOM     13  N   UNL     1      23.081  -8.192  22.209  0.00  0.00    -0.281 N 
ATOM     14  C   UNL     1      24.218  -8.975  22.324  0.00  0.00    +0.248 C 
ATOM     30  O   UNL     1      24.887  -9.366  21.379  0.00  0.00    -0.270 OA
ATOM     31  H   UNL     1      22.512  -8.101  23.051  0.00  0.00    +0.155 HD
BRANCH  14  15
ATOM     15  C   UNL     1      24.669  -9.398  23.685  0.00  0.00    +0.037 A 
ATOM     16  C   UNL     1      23.705  -9.776  24.721  0.00  0.00    +0.013 A 
ATOM     17  C   UNL     1      24.166 -10.164  26.031  0.00  0.00    +0.005 A 
ATOM     18  C   UNL     1      25.599 -10.177  26.311  0.00  0.00    -0.033 A 
ATOM     28  C   UNL     1      26.534  -9.802  25.263  0.00  0.00    +0.005 A 
ATOM     29  C   UNL     1      26.086  -9.420  23.978  0.00  0.00    +0.013 A 
BRANCH  18  19
ATOM     19  C   UNL     1      26.180 -10.556  27.686  0.00  0.00    +0.119 C 
BRANCH  19  20
ATOM     20  N   UNL     1      26.325  -9.462  28.692  0.00  0.00    -0.302 NA
ATOM     21  C   UNL     1      24.971  -8.875  29.102  0.00  0.00    +0.066 C 
ATOM     22  C   UNL     1      25.140  -7.748  30.172  0.00  0.00    -0.064 C 
ATOM     23  N   UNL     1      26.058  -6.657  29.619  0.00  0.00    +0.379 N 
ATOM     24  C   UNL     1      26.173  -5.568  30.600  0.00  0.00    -0.096 C 
ATOM     25  H   UNL     1      25.575  -6.240  28.705  0.00  0.00    -0.082 HD
ATOM     26  C   UNL     1      27.406  -7.233  29.207  0.00  0.00    -0.064 C 
ATOM     27  C   UNL     1      27.225  -8.372  28.165  0.00  0.00    +0.066 C 
ENDBRANCH  19  20
ENDBRANCH  18  19
ENDBRANCH  14  15
ENDBRANCH  12  13
TORSDOF 6
ENDMDL
