MODEL 1
REMARK VINA RESULT:      -7.9      0.000      0.000
REMARK  Name = C:\Users\Docking\Desktop\test protocol\1iep_ligandH.pdb
REMARK  8 active torsions:
REMARK  status: ('A' for Active; 'I' for Inactive)
REMARK    1  A    between atoms: _5  and  _11
REMARK    2  A    between atoms: _19  and  _21
REMARK    3  A    between atoms: _22  and  _66
REMARK    4  A    between atoms: _27  and  _30
REMARK    5  A    between atoms: _32  and  _33
REMARK    6  A    between atoms: _38  and  _43
REMARK    7  A    between atoms: _43  and  _46
REMARK    8  A    between atoms: _53  and  _55
REMARK                            x       y       z     vdW  Elec       q    Type
REMARK                         _______ _______ _______ _____ _____    ______ ____
ROOT
ATOM     10  C   UNL     1      20.274  -1.040   8.199  0.00  0.00    +0.038 A 
ATOM     11  C   UNL     1      20.557  -1.013   9.588  0.00  0.00    +0.047 A 
ATOM     12  C   UNL     1      19.887  -1.918  10.510  0.00  0.00    +0.035 A 
ATOM     32  C   UNL     1      18.937  -2.839   9.981  0.00  0.00    +0.024 A 
ATOM     33  C   UNL     1      18.637  -2.879   8.572  0.00  0.00    +0.007 A 
ATOM     34  C   UNL     1      19.292  -1.988   7.658  0.00  0.00    -0.029 A 
ATOM     35  C   UNL     1      18.926  -2.071   6.158  0.00  0.00    +0.045 C 
ENDROOT
BRANCH  10   9
ATOM      4  C   UNL     1      20.593   3.121   5.828  0.00  0.00    +0.077 A 
ATOM      5  C   UNL     1      19.299   3.545   6.278  0.00  0.00    +0.048 A 
ATOM      6  C   UNL     1      18.580   2.659   7.113  0.00  0.00    +0.116 A 
ATOM      7  N   UNL     1      19.125   1.444   7.465  0.00  0.00    -0.223 NA
ATOM      8  C   UNL     1      20.376   1.065   7.011  0.00  0.00    +0.220 A 
ATOM      9  N   UNL     1      20.947  -0.149   7.359  0.00  0.00    -0.283 N 
ATOM     36  H   UNL     1      21.868  -0.395   6.998  0.00  0.00    +0.155 HD
ATOM     37  N   UNL     1      21.081   1.892   6.212  0.00  0.00    -0.214 NA
BRANCH   4   3
ATOM      1  C   UNL     1      21.915   5.301   2.862  0.00  0.00    +0.020 A 
ATOM      2  C   UNL     1      21.023   4.510   3.678  0.00  0.00    +0.013 A 
ATOM      3  C   UNL     1      21.475   3.947   4.944  0.00  0.00    +0.019 A 
ATOM     38  C   UNL     1      22.846   4.205   5.358  0.00  0.00    +0.120 A 
ATOM     39  N   UNL     1      23.682   4.969   4.551  0.00  0.00    -0.263 NA
ATOM     40  C   UNL     1      23.259   5.515   3.330  0.00  0.00    +0.111 A 
ENDBRANCH   4   3
ENDBRANCH  10   9
BRANCH  12  13
ATOM     13  N   UNL     1      20.128  -1.931  11.932  0.00  0.00    -0.281 N 
ATOM     14  C   UNL     1      20.871  -2.844  12.661  0.00  0.00    +0.248 C 
ATOM     30  O   UNL     1      21.268  -3.916  12.228  0.00  0.00    -0.270 OA
ATOM     31  H   UNL     1      19.697  -1.175  12.465  0.00  0.00    +0.155 HD
BRANCH  14  15
ATOM     15  C   UNL     1      21.210  -2.529  14.082  0.00  0.00    +0.037 A 
ATOM     16  C   UNL     1      22.173  -3.339  14.832  0.00  0.00    +0.013 A 
ATOM     17  C   UNL     1      22.469  -3.023  16.207  0.00  0.00    +0.005 A 
ATOM     18  C   UNL     1      21.801  -1.889  16.841  0.00  0.00    -0.033 A 
ATOM     28  C   UNL     1      20.853  -1.099  16.072  0.00  0.00    +0.005 A 
ATOM     29  C   UNL     1      20.560  -1.406  14.725  0.00  0.00    +0.013 A 
BRANCH  18  19
ATOM     19  C   UNL     1      22.039  -1.492  18.310  0.00  0.00    +0.119 C 
BRANCH  19  20
ATOM     20  N   UNL     1      22.796  -0.229  18.562  0.00  0.00    -0.302 NA
ATOM     21  C   UNL     1      23.912  -0.424  19.592  0.00  0.00    +0.066 C 
ATOM     22  C   UNL     1      24.707   0.901  19.827  0.00  0.00    -0.064 C 
ATOM     23  N   UNL     1      23.742   1.999  20.277  0.00  0.00    +0.379 N 
ATOM     24  C   UNL     1      24.495   3.231  20.555  0.00  0.00    -0.096 C 
ATOM     25  H   UNL     1      23.273   1.666  21.232  0.00  0.00    -0.082 HD
ATOM     26  C   UNL     1      22.627   2.198  19.260  0.00  0.00    -0.064 C 
ATOM     27  C   UNL     1      21.862   0.868  19.011  0.00  0.00    +0.066 C 
ENDBRANCH  19  20
ENDBRANCH  18  19
ENDBRANCH  14  15
ENDBRANCH  12  13
TORSDOF 6
ENDMDL
MODEL 2
REMARK VINA RESULT:      -7.8      3.544     12.403
REMARK  Name = C:\Users\Docking\Desktop\test protocol\1iep_ligandH.pdb
REMARK  8 active torsions:
REMARK  status: ('A' for Active; 'I' for Inactive)
REMARK    1  A    between atoms: _5  and  _11
REMARK    2  A    between atoms: _19  and  _21
REMARK    3  A    between atoms: _22  and  _66
REMARK    4  A    between atoms: _27  and  _30
REMARK    5  A    between atoms: _32  and  _33
REMARK    6  A    between atoms: _38  and  _43
REMARK    7  A    between atoms: _43  and  _46
REMARK    8  A    between atoms: _53  and  _55
REMARK                            x       y       z     vdW  Elec       q    Type
REMARK                         _______ _______ _______ _____ _____    ______ ____
ROOT
ATOM     10  C   UNL     1      22.600  -2.753  17.081  0.00  0.00    +0.038 A 
ATOM     11  C   UNL     1      22.247  -2.525  15.726  0.00  0.00    +0.047 A 
ATOM     12  C   UNL     1      22.418  -3.561  14.719  0.00  0.00    +0.035 A 
ATOM     32  C   UNL     1      22.948  -4.819  15.128  0.00  0.00    +0.024 A 
ATOM     33  C   UNL     1      23.313  -5.068  16.501  0.00  0.00    +0.007 A 
ATOM     34  C   UNL     1      23.149  -4.049  17.498  0.00  0.00    -0.029 A 
ATOM     35  C   UNL     1      23.563  -4.369  18.953  0.00  0.00    +0.045 C 
ENDROOT
BRANCH  10   9
ATOM      4  C   UNL     1      24.006   1.291  19.250  0.00  0.00    +0.077 A 
ATOM      5  C   UNL     1      25.225   1.342  18.495  0.00  0.00    +0.048 A 
ATOM      6  C   UNL     1      25.456   0.304  17.564  0.00  0.00    +0.116 A 
ATOM      7  N   UNL     1      24.529  -0.704  17.407  0.00  0.00    -0.223 NA
ATOM      8  C   UNL     1      23.364  -0.723  18.153  0.00  0.00    +0.220 A 
ATOM      9  N   UNL     1      22.415  -1.723  18.006  0.00  0.00    -0.283 N 
ATOM     36  H   UNL     1      21.572  -1.706  18.580  0.00  0.00    +0.155 HD
ATOM     37  N   UNL     1      23.122   0.255  19.049  0.00  0.00    -0.214 NA
BRANCH   4   3
ATOM      1  C   UNL     1      24.058   3.689  22.340  0.00  0.00    +0.020 A 
ATOM      2  C   UNL     1      24.480   2.692  21.383  0.00  0.00    +0.013 A 
ATOM      3  C   UNL     1      23.619   2.317  20.269  0.00  0.00    +0.019 A 
ATOM     38  C   UNL     1      22.326   2.975  20.151  0.00  0.00    +0.120 A 
ATOM     39  N   UNL     1      21.946   3.930  21.088  0.00  0.00    -0.263 NA
ATOM     40  C   UNL     1      22.766   4.298  22.165  0.00  0.00    +0.111 A 
ENDBRANCH   4   3
ENDBRANCH  10   9
BRANCH  12  13
ATOM     13  N   UNL     1      22.085  -3.384  13.328  0.00  0.00    -0.281 N 
ATOM     14  C   UNL     1      20.847  -3.529  12.723  0.00  0.00    +0.248 C 
ATOM     30  O   UNL     1      19.875  -4.044  13.254  0.00  0.00    -0.270 OA
ATOM     31  H   UNL     1      22.856  -3.120  12.714  0.00  0.00    +0.155 HD
BRANCH  14  15
ATOM     15  C   UNL     1      20.668  -3.045  11.320  0.00  0.00    +0.037 A 
ATOM     16  C   UNL     1      20.782  -1.623  10.986  0.00  0.00    +0.013 A 
ATOM     17  C   UNL     1      20.587  -1.182   9.628  0.00  0.00    +0.005 A 
ATOM     18  C   UNL     1      20.277  -2.164   8.593  0.00  0.00    -0.033 A 
ATOM     28  C   UNL     1      20.175  -3.569   8.951  0.00  0.00    +0.005 A 
ATOM     29  C   UNL     1      20.364  -4.006  10.281  0.00  0.00    +0.013 A 
BRANCH  18  19
ATOM     19  C   UNL     1      20.033  -1.780   7.121  0.00  0.00    +0.119 C 
BRANCH  19  20
ATOM     20  N   UNL     1      18.623  -1.812   6.631  0.00  0.00    -0.302 NA
ATOM     21  C   UNL     1      18.353  -3.023   5.734  0.00  0.00    +0.066 C 
ATOM     22  C   UNL     1      16.867  -3.053   5.249  0.00  0.00    -0.064 C 
ATOM     23  N   UNL     1      16.548  -1.751   4.512  0.00  0.00    +0.379 N 
ATOM     24  C   UNL     1      15.169  -1.800   4.004  0.00  0.00    -0.096 C 
ATOM     25  H   UNL     1      17.231  -1.685   3.633  0.00  0.00    -0.082 HD
ATOM     26  C   UNL     1      16.816  -0.541   5.396  0.00  0.00    -0.064 C 
ATOM     27  C   UNL     1      18.287  -0.537   5.897  0.00  0.00    +0.066 C 
ENDBRANCH  19  20
ENDBRANCH  18  19
ENDBRANCH  14  15
ENDBRANCH  12  13
TORSDOF 6
ENDMDL
MODEL 3
REMARK VINA RESULT:      -7.6      6.045     11.501
REMARK  Name = C:\Users\Docking\Desktop\test protocol\1iep_ligandH.pdb
REMARK  8 active torsions:
REMARK  status: ('A' for Active; 'I' for Inactive)
REMARK    1  A    between atoms: _5  and  _11
REMARK    2  A    between atoms: _19  and  _21
REMARK    3  A    between atoms: _22  and  _66
REMARK    4  A    between atoms: _27  and  _30
REMARK    5  A    between atoms: _32  and  _33
REMARK    6  A    between atoms: _38  and  _43
REMARK    7  A    between atoms: _43  and  _46
REMARK    8  A    between atoms: _53  and  _55
REMARK                            x       y       z     vdW  Elec       q    Type
REMARK                         _______ _______ _______ _____ _____    ______ ____
ROOT
ATOM     10  C   UNL     1      21.147   7.155   0.370  0.00  0.00    +0.038 A 
ATOM     11  C   UNL     1      20.724   6.250   1.377  0.00  0.00    +0.047 A 
ATOM     12  C   UNL     1      21.685   5.456   2.126  0.00  0.00    +0.035 A 
ATOM     32  C   UNL     1      23.070   5.610   1.825  0.00  0.00    +0.024 A 
ATOM     33  C   UNL     1      23.517   6.524   0.804  0.00  0.00    +0.007 A 
ATOM     34  C   UNL     1      22.573   7.309   0.060  0.00  0.00    -0.029 A 
ATOM     35  C   UNL     1      23.108   8.268  -1.028  0.00  0.00    +0.045 C 
ENDROOT
BRANCH  10   9
ATOM      4  C   UNL     1      17.788   7.602  -3.029  0.00  0.00    +0.077 A 
ATOM      5  C   UNL     1      17.994   6.259  -3.492  0.00  0.00    +0.048 A 
ATOM      6  C   UNL     1      18.978   5.489  -2.833  0.00  0.00    +0.116 A 
ATOM      7  N   UNL     1      19.697   6.032  -1.790  0.00  0.00    -0.223 NA
ATOM      8  C   UNL     1      19.475   7.330  -1.370  0.00  0.00    +0.220 A 
ATOM      9  N   UNL     1      20.181   7.893  -0.318  0.00  0.00    -0.283 N 
ATOM     36  H   UNL     1      19.993   8.857  -0.043  0.00  0.00    +0.155 HD
ATOM     37  N   UNL     1      18.541   8.086  -1.984  0.00  0.00    -0.214 NA
BRANCH   4   3
ATOM      1  C   UNL     1      15.827  10.841  -4.010  0.00  0.00    +0.020 A 
ATOM      2  C   UNL     1      16.823   9.980  -3.415  0.00  0.00    +0.013 A 
ATOM      3  C   UNL     1      16.782   8.538  -3.622  0.00  0.00    +0.019 A 
ATOM     38  C   UNL     1      15.711   7.995  -4.444  0.00  0.00    +0.120 A 
ATOM     39  N   UNL     1      14.765   8.848  -5.004  0.00  0.00    -0.263 NA
ATOM     40  C   UNL     1      14.794  10.237  -4.810  0.00  0.00    +0.111 A 
ENDBRANCH   4   3
ENDBRANCH  10   9
BRANCH  12  13
ATOM     13  N   UNL     1      21.315   4.515   3.154  0.00  0.00    -0.281 N 
ATOM     14  C   UNL     1      21.482   4.640   4.524  0.00  0.00    +0.248 C 
ATOM     30  O   UNL     1      22.173   5.493   5.060  0.00  0.00    -0.270 OA
ATOM     31  H   UNL     1      20.876   3.652   2.833  0.00  0.00    +0.155 HD
BRANCH  14  15
ATOM     15  C   UNL     1      20.793   3.669   5.427  0.00  0.00    +0.037 A 
ATOM     16  C   UNL     1      19.397   3.862   5.827  0.00  0.00    +0.013 A 
ATOM     17  C   UNL     1      18.762   2.919   6.713  0.00  0.00    +0.005 A 
ATOM     18  C   UNL     1      19.523   1.773   7.204  0.00  0.00    -0.033 A 
ATOM     28  C   UNL     1      20.905   1.603   6.787  0.00  0.00    +0.005 A 
ATOM     29  C   UNL     1      21.531   2.526   5.920  0.00  0.00    +0.013 A 
BRANCH  18  19
ATOM     19  C   UNL     1      18.932   0.729   8.170  0.00  0.00    +0.119 C 
BRANCH  19  20
ATOM     20  N   UNL     1      19.698  -0.539   8.358  0.00  0.00    -0.302 NA
ATOM     21  C   UNL     1      19.266  -1.624   7.366  0.00  0.00    +0.066 C 
ATOM     22  C   UNL     1      20.093  -2.936   7.562  0.00  0.00    -0.064 C 
ATOM     23  N   UNL     1      19.935  -3.425   9.003  0.00  0.00    +0.379 N 
ATOM     24  C   UNL     1      20.664  -4.690   9.174  0.00  0.00    -0.096 C 
ATOM     25  H   UNL     1      18.853  -3.633   9.172  0.00  0.00    -0.082 HD
ATOM     26  C   UNL     1      20.360  -2.352   9.995  0.00  0.00    -0.064 C 
ATOM     27  C   UNL     1      19.553  -1.043   9.773  0.00  0.00    +0.066 C 
ENDBRANCH  19  20
ENDBRANCH  18  19
ENDBRANCH  14  15
ENDBRANCH  12  13
TORSDOF 6
ENDMDL
MODEL 4
REMARK VINA RESULT:      -7.6      2.432      3.415
REMARK  Name = C:\Users\Docking\Desktop\test protocol\1iep_ligandH.pdb
REMARK  8 active torsions:
REMARK  status: ('A' for Active; 'I' for Inactive)
REMARK    1  A    between atoms: _5  and  _11
REMARK    2  A    between atoms: _19  and  _21
REMARK    3  A    between atoms: _22  and  _66
REMARK    4  A    between atoms: _27  and  _30
REMARK    5  A    between atoms: _32  and  _33
REMARK    6  A    between atoms: _38  and  _43
REMARK    7  A    between atoms: _43  and  _46
REMARK    8  A    between atoms: _53  and  _55
REMARK                            x       y       z     vdW  Elec       q    Type
REMARK                         _______ _______ _______ _____ _____    ______ ____
ROOT
ATOM     10  C   UNL     1      20.713  -1.021   8.509  0.00  0.00    +0.038 A 
ATOM     11  C   UNL     1      21.093  -0.986   9.875  0.00  0.00    +0.047 A 
ATOM     12  C   UNL     1      20.543  -1.932  10.833  0.00  0.00    +0.035 A 
ATOM     32  C   UNL     1      19.610  -2.902  10.366  0.00  0.00    +0.024 A 
ATOM     33  C   UNL     1      19.211  -2.951   8.981  0.00  0.00    +0.007 A 
ATOM     34  C   UNL     1      19.749  -2.019   8.031  0.00  0.00    -0.029 A 
ATOM     35  C   UNL     1      19.280  -2.114   6.560  0.00  0.00    +0.045 C 
ENDROOT
BRANCH  10   9
ATOM      4  C   UNL     1      20.523   3.050   5.974  0.00  0.00    +0.077 A 
ATOM      5  C   UNL     1      19.186   3.330   6.412  0.00  0.00    +0.048 A 
ATOM      6  C   UNL     1      18.581   2.398   7.284  0.00  0.00    +0.116 A 
ATOM      7  N   UNL     1      19.270   1.273   7.682  0.00  0.00    -0.223 NA
ATOM      8  C   UNL     1      20.558   1.032   7.239  0.00  0.00    +0.220 A 
ATOM      9  N   UNL     1      21.272  -0.089   7.632  0.00  0.00    -0.283 N 
ATOM     36  H   UNL     1      22.217  -0.235   7.277  0.00  0.00    +0.155 HD
ATOM     37  N   UNL     1      21.158   1.906   6.404  0.00  0.00    -0.214 NA
BRANCH   4   3
ATOM      1  C   UNL     1      21.560   5.279   2.931  0.00  0.00    +0.020 A 
ATOM      2  C   UNL     1      20.770   4.420   3.783  0.00  0.00    +0.013 A 
ATOM      3  C   UNL     1      21.299   3.941   5.054  0.00  0.00    +0.019 A 
ATOM     38  C   UNL     1      22.640   4.354   5.437  0.00  0.00    +0.120 A 
ATOM     39  N   UNL     1      23.378   5.181   4.596  0.00  0.00    -0.263 NA
ATOM     40  C   UNL     1      22.881   5.647   3.370  0.00  0.00    +0.111 A 
ENDBRANCH   4   3
ENDBRANCH  10   9
BRANCH  12  13
ATOM     13  N   UNL     1      20.886  -1.940  12.234  0.00  0.00    -0.281 N 
ATOM     14  C   UNL     1      20.038  -1.794  13.319  0.00  0.00    +0.248 C 
ATOM     30  O   UNL     1      18.877  -1.418  13.243  0.00  0.00    -0.270 OA
ATOM     31  H   UNL     1      21.874  -2.069  12.452  0.00  0.00    +0.155 HD
BRANCH  14  15
ATOM     15  C   UNL     1      20.557  -2.094  14.688  0.00  0.00    +0.037 A 
ATOM     16  C   UNL     1      21.811  -2.828  14.881  0.00  0.00    +0.013 A 
ATOM     17  C   UNL     1      22.281  -3.119  16.212  0.00  0.00    +0.005 A 
ATOM     18  C   UNL     1      21.497  -2.674  17.361  0.00  0.00    -0.033 A 
ATOM     28  C   UNL     1      20.260  -1.943  17.142  0.00  0.00    +0.005 A 
ATOM     29  C   UNL     1      19.796  -1.657  15.838  0.00  0.00    +0.013 A 
BRANCH  18  19
ATOM     19  C   UNL     1      21.912  -2.959  18.817  0.00  0.00    +0.119 C 
BRANCH  19  20
ATOM     20  N   UNL     1      22.617  -4.247  19.088  0.00  0.00    -0.302 NA
ATOM     21  C   UNL     1      21.641  -5.418  19.229  0.00  0.00    +0.066 C 
ATOM     22  C   UNL     1      22.397  -6.762  19.489  0.00  0.00    -0.064 C 
ATOM     23  N   UNL     1      23.262  -6.622  20.744  0.00  0.00    +0.379 N 
ATOM     24  C   UNL     1      23.929  -7.902  21.024  0.00  0.00    -0.096 C 
ATOM     25  H   UNL     1      22.583  -6.400  21.599  0.00  0.00    -0.082 HD
ATOM     26  C   UNL     1      24.234  -5.458  20.612  0.00  0.00    -0.064 C 
ATOM     27  C   UNL     1      23.474  -4.134  20.325  0.00  0.00    +0.066 C 
ENDBRANCH  19  20
ENDBRANCH  18  19
ENDBRANCH  14  15
ENDBRANCH  12  13
TORSDOF 6
ENDMDL
MODEL 5
REMARK VINA RESULT:      -7.5      2.377     11.756
REMARK  Name = C:\Users\Docking\Desktop\test protocol\1iep_ligandH.pdb
REMARK  8 active torsions:
REMARK  status: ('A' for Active; 'I' for Inactive)
REMARK    1  A    between atoms: _5  and  _11
REMARK    2  A    between atoms: _19  and  _21
REMARK    3  A    between atoms: _22  and  _66
REMARK    4  A    between atoms: _27  and  _30
REMARK    5  A    between atoms: _32  and  _33
REMARK    6  A    between atoms: _38  and  _43
REMARK    7  A    between atoms: _43  and  _46
REMARK    8  A    between atoms: _53  and  _55
REMARK                            x       y       z     vdW  Elec       q    Type
REMARK                         _______ _______ _______ _____ _____    ______ ____
ROOT
ATOM     10  C   UNL     1      22.319  -2.551  16.747  0.00  0.00    +0.038 A 
ATOM     11  C   UNL     1      21.942  -2.279  15.407  0.00  0.00    +0.047 A 
ATOM     12  C   UNL     1      22.080  -3.287  14.367  0.00  0.00    +0.035 A 
ATOM     32  C   UNL     1      22.604  -4.563  14.728  0.00  0.00    +0.024 A 
ATOM     33  C   UNL     1      22.994  -4.855  16.085  0.00  0.00    +0.007 A 
ATOM     34  C   UNL     1      22.862  -3.864  17.114  0.00  0.00    -0.029 A 
ATOM     35  C   UNL     1      23.301  -4.232  18.551  0.00  0.00    +0.045 C 
ENDROOT
BRANCH  10   9
ATOM      4  C   UNL     1      23.923   1.268  19.172  0.00  0.00    +0.077 A 
ATOM      5  C   UNL     1      25.186   1.244  18.491  0.00  0.00    +0.048 A 
ATOM      6  C   UNL     1      25.385   0.228  17.530  0.00  0.00    +0.116 A 
ATOM      7  N   UNL     1      24.389  -0.690  17.275  0.00  0.00    -0.223 NA
ATOM      8  C   UNL     1      23.183  -0.639  17.951  0.00  0.00    +0.220 A 
ATOM      9  N   UNL     1      22.165  -1.547  17.705  0.00  0.00    -0.283 N 
ATOM     36  H   UNL     1      21.293  -1.480  18.230  0.00  0.00    +0.155 HD
ATOM     37  N   UNL     1      22.969   0.321  18.875  0.00  0.00    -0.214 NA
BRANCH   4   3
ATOM      1  C   UNL     1      24.049   3.625  22.291  0.00  0.00    +0.020 A 
ATOM      2  C   UNL     1      24.447   2.639  21.313  0.00  0.00    +0.013 A 
ATOM      3  C   UNL     1      23.560   2.282  20.212  0.00  0.00    +0.019 A 
ATOM     38  C   UNL     1      22.268   2.946  20.130  0.00  0.00    +0.120 A 
ATOM     39  N   UNL     1      21.912   3.890  21.087  0.00  0.00    -0.263 NA
ATOM     40  C   UNL     1      22.756   4.241  22.151  0.00  0.00    +0.111 A 
ENDBRANCH   4   3
ENDBRANCH  10   9
BRANCH  12  13
ATOM     13  N   UNL     1      21.721  -3.066  12.988  0.00  0.00    -0.281 N 
ATOM     14  C   UNL     1      20.455  -2.884  12.456  0.00  0.00    +0.248 C 
ATOM     30  O   UNL     1      19.415  -3.098  13.060  0.00  0.00    -0.270 OA
ATOM     31  H   UNL     1      22.495  -3.041  12.323  0.00  0.00    +0.155 HD
BRANCH  14  15
ATOM     15  C   UNL     1      20.326  -2.410  11.045  0.00  0.00    +0.037 A 
ATOM     16  C   UNL     1      21.148  -1.310  10.534  0.00  0.00    +0.013 A 
ATOM     17  C   UNL     1      20.992  -0.861   9.174  0.00  0.00    +0.005 A 
ATOM     18  C   UNL     1      20.009  -1.515   8.312  0.00  0.00    -0.033 A 
ATOM     28  C   UNL     1      19.211  -2.608   8.843  0.00  0.00    +0.005 A 
ATOM     29  C   UNL     1      19.361  -3.049  10.176  0.00  0.00    +0.013 A 
BRANCH  18  19
ATOM     19  C   UNL     1      19.760  -1.088   6.854  0.00  0.00    +0.119 C 
BRANCH  19  20
ATOM     20  N   UNL     1      19.037   0.200   6.632  0.00  0.00    -0.302 NA
ATOM     21  C   UNL     1      19.962   1.411   6.779  0.00  0.00    +0.066 C 
ATOM     22  C   UNL     1      19.193   2.748   6.521  0.00  0.00    -0.064 C 
ATOM     23  N   UNL     1      18.012   2.849   7.488  0.00  0.00    +0.379 N 
ATOM     24  C   UNL     1      17.322   4.131   7.289  0.00  0.00    -0.096 C 
ATOM     25  H   UNL     1      18.423   2.843   8.525  0.00  0.00    -0.082 HD
ATOM     26  C   UNL     1      17.089   1.647   7.351  0.00  0.00    -0.064 C 
ATOM     27  C   UNL     1      17.869   0.322   7.580  0.00  0.00    +0.066 C 
ENDBRANCH  19  20
ENDBRANCH  18  19
ENDBRANCH  14  15
ENDBRANCH  12  13
TORSDOF 6
ENDMDL
