MODEL 1
REMARK VINA RESULT:      -9.2      0.000      0.000
REMARK  Name = C:\Users\Docking\Desktop\test protocol\1iep_ligandH.pdb
REMARK  8 active torsions:
REMARK  status: ('A' for Active; 'I' for Inactive)
REMARK    1  A    between atoms: _5  and  _11
REMARK    2  A    between atoms: _19  and  _21
REMARK    3  A    between atoms: _22  and  _66
REMARK    4  A    between atoms: _27  and  _30
REMARK    5  A    between atoms: _32  and  _33
REMARK    6  A    between atoms: _38  and  _43
REMARK    7  A    between atoms: _43  and  _46
REMARK    8  A    between atoms: _53  and  _55
REMARK                            x       y       z     vdW  Elec       q    Type
REMARK                         _______ _______ _______ _____ _____    ______ ____
ROOT
ATOM     10  C   UNL     1     -35.816  16.433   3.020  0.00  0.00    +0.038 A 
ATOM     11  C   UNL     1     -36.808  17.447   3.033  0.00  0.00    +0.047 A 
ATOM     12  C   UNL     1     -36.702  18.614   2.172  0.00  0.00    +0.035 A 
ATOM     32  C   UNL     1     -35.573  18.716   1.308  0.00  0.00    +0.024 A 
ATOM     33  C   UNL     1     -34.554  17.696   1.283  0.00  0.00    +0.007 A 
ATOM     34  C   UNL     1     -34.652  16.543   2.132  0.00  0.00    -0.029 A 
ATOM     35  C   UNL     1     -33.528  15.483   2.068  0.00  0.00    +0.045 C 
ENDROOT
BRANCH  10   9
ATOM      4  C   UNL     1     -37.169  11.910   3.883  0.00  0.00    +0.077 A 
ATOM      5  C   UNL     1     -37.637  11.731   2.539  0.00  0.00    +0.048 A 
ATOM      6  C   UNL     1     -37.518  12.830   1.658  0.00  0.00    +0.116 A 
ATOM      7  N   UNL     1     -36.970  14.014   2.100  0.00  0.00    -0.223 NA
ATOM      8  C   UNL     1     -36.530  14.154   3.404  0.00  0.00    +0.220 A 
ATOM      9  N   UNL     1     -35.968  15.333   3.868  0.00  0.00    -0.283 N 
ATOM     36  H   UNL     1     -35.663  15.399   4.839  0.00  0.00    +0.155 HD
ATOM     37  N   UNL     1     -36.634  13.120   4.264  0.00  0.00    -0.214 NA
BRANCH   4   3
ATOM      1  C   UNL     1     -36.788   8.498   5.759  0.00  0.00    +0.020 A 
ATOM      2  C   UNL     1     -36.711   9.494   4.714  0.00  0.00    +0.013 A 
ATOM      3  C   UNL     1     -37.224  10.841   4.930  0.00  0.00    +0.019 A 
ATOM     38  C   UNL     1     -37.813  11.151   6.224  0.00  0.00    +0.120 A 
ATOM     39  N   UNL     1     -37.875  10.171   7.210  0.00  0.00    -0.263 NA
ATOM     40  C   UNL     1     -37.386   8.871   7.014  0.00  0.00    +0.111 A 
ENDBRANCH   4   3
ENDBRANCH  10   9
BRANCH  12  13
ATOM     13  N   UNL     1     -37.674  19.679   2.147  0.00  0.00    -0.281 N 
ATOM     14  C   UNL     1     -38.349  20.190   1.051  0.00  0.00    +0.248 C 
ATOM     30  O   UNL     1     -38.061  19.950  -0.112  0.00  0.00    -0.270 OA
ATOM     31  H   UNL     1     -37.890  20.108   3.047  0.00  0.00    +0.155 HD
BRANCH  14  15
ATOM     15  C   UNL     1     -39.504  21.112   1.280  0.00  0.00    +0.037 A 
ATOM     16  C   UNL     1     -39.452  22.153   2.309  0.00  0.00    +0.013 A 
ATOM     17  C   UNL     1     -40.586  23.018   2.520  0.00  0.00    +0.005 A 
ATOM     18  C   UNL     1     -41.781  22.845   1.698  0.00  0.00    -0.033 A 
ATOM     28  C   UNL     1     -41.803  21.807   0.681  0.00  0.00    +0.005 A 
ATOM     29  C   UNL     1     -40.694  20.957   0.472  0.00  0.00    +0.013 A 
BRANCH  18  19
ATOM     19  C   UNL     1     -43.045  23.708   1.869  0.00  0.00    +0.119 C 
BRANCH  19  20
ATOM     20  N   UNL     1     -44.007  23.746   0.727  0.00  0.00    -0.302 NA
ATOM     21  C   UNL     1     -44.272  25.175   0.246  0.00  0.00    +0.066 C 
ATOM     22  C   UNL     1     -45.263  25.194  -0.964  0.00  0.00    -0.064 C 
ATOM     23  N   UNL     1     -46.569  24.507  -0.561  0.00  0.00    +0.379 N 
ATOM     24  C   UNL     1     -47.523  24.574  -1.677  0.00  0.00    -0.096 C 
ATOM     25  H   UNL     1     -47.003  25.080   0.291  0.00  0.00    -0.082 HD
ATOM     26  C   UNL     1     -46.314  23.086  -0.078  0.00  0.00    -0.064 C 
ATOM     27  C   UNL     1     -45.306  23.076   1.104  0.00  0.00    +0.066 C 
ENDBRANCH  19  20
ENDBRANCH  18  19
ENDBRANCH  14  15
ENDBRANCH  12  13
TORSDOF 6
ENDMDL
MODEL 2
REMARK VINA RESULT:      -9.2      3.258     14.996
REMARK  Name = C:\Users\Docking\Desktop\test protocol\1iep_ligandH.pdb
REMARK  8 active torsions:
REMARK  status: ('A' for Active; 'I' for Inactive)
REMARK    1  A    between atoms: _5  and  _11
REMARK    2  A    between atoms: _19  and  _21
REMARK    3  A    between atoms: _22  and  _66
REMARK    4  A    between atoms: _27  and  _30
REMARK    5  A    between atoms: _32  and  _33
REMARK    6  A    between atoms: _38  and  _43
REMARK    7  A    between atoms: _43  and  _46
REMARK    8  A    between atoms: _53  and  _55
REMARK                            x       y       z     vdW  Elec       q    Type
REMARK                         _______ _______ _______ _____ _____    ______ ____
ROOT
ATOM     10  C   UNL     1     -45.620  23.989  -0.864  0.00  0.00    +0.038 A 
ATOM     11  C   UNL     1     -44.252  23.624  -0.781  0.00  0.00    +0.047 A 
ATOM     12  C   UNL     1     -43.836  22.417  -0.084  0.00  0.00    +0.035 A 
ATOM     32  C   UNL     1     -44.841  21.603   0.515  0.00  0.00    +0.024 A 
ATOM     33  C   UNL     1     -46.236  21.960   0.441  0.00  0.00    +0.007 A 
ATOM     34  C   UNL     1     -46.652  23.151  -0.243  0.00  0.00    -0.029 A 
ATOM     35  C   UNL     1     -48.160  23.487  -0.285  0.00  0.00    +0.045 C 
ENDROOT
BRANCH  10   9
ATOM      4  C   UNL     1     -46.457  28.713  -1.008  0.00  0.00    +0.077 A 
ATOM      5  C   UNL     1     -46.217  28.859   0.398  0.00  0.00    +0.048 A 
ATOM      6  C   UNL     1     -45.887  27.692   1.124  0.00  0.00    +0.116 A 
ATOM      7  N   UNL     1     -45.807  26.476   0.481  0.00  0.00    -0.223 NA
ATOM      8  C   UNL     1     -46.046  26.371  -0.877  0.00  0.00    +0.220 A 
ATOM      9  N   UNL     1     -45.962  25.159  -1.546  0.00  0.00    -0.283 N 
ATOM     36  H   UNL     1     -46.153  25.122  -2.547  0.00  0.00    +0.155 HD
ATOM     37  N   UNL     1     -46.363  27.470  -1.592  0.00  0.00    -0.214 NA
BRANCH   4   3
ATOM      1  C   UNL     1     -46.909  32.310  -2.479  0.00  0.00    +0.020 A 
ATOM      2  C   UNL     1     -46.547  31.246  -1.571  0.00  0.00    +0.013 A 
ATOM      3  C   UNL     1     -46.811  29.854  -1.912  0.00  0.00    +0.019 A 
ATOM     38  C   UNL     1     -47.447  29.569  -3.189  0.00  0.00    +0.120 A 
ATOM     39  N   UNL     1     -47.786  30.614  -4.043  0.00  0.00    -0.263 NA
ATOM     40  C   UNL     1     -47.538  31.958  -3.725  0.00  0.00    +0.111 A 
ENDBRANCH   4   3
ENDBRANCH  10   9
BRANCH  12  13
ATOM     13  N   UNL     1     -42.461  22.000   0.040  0.00  0.00    -0.281 N 
ATOM     14  C   UNL     1     -41.567  22.305   1.052  0.00  0.00    +0.248 C 
ATOM     30  O   UNL     1     -41.751  23.163   1.902  0.00  0.00    -0.270 OA
ATOM     31  H   UNL     1     -42.104  21.408  -0.711  0.00  0.00    +0.155 HD
BRANCH  14  15
ATOM     15  C   UNL     1     -40.274  21.559   1.123  0.00  0.00    +0.037 A 
ATOM     16  C   UNL     1     -39.400  21.661   2.294  0.00  0.00    +0.013 A 
ATOM     17  C   UNL     1     -38.150  20.944   2.329  0.00  0.00    +0.005 A 
ATOM     18  C   UNL     1     -37.767  20.116   1.188  0.00  0.00    -0.033 A 
ATOM     28  C   UNL     1     -38.655  20.028   0.041  0.00  0.00    +0.005 A 
ATOM     29  C   UNL     1     -39.881  20.731   0.002  0.00  0.00    +0.013 A 
BRANCH  18  19
ATOM     19  C   UNL     1     -36.442  19.333   1.130  0.00  0.00    +0.119 C 
BRANCH  19  20
ATOM     20  N   UNL     1     -36.401  18.007   1.816  0.00  0.00    -0.302 NA
ATOM     21  C   UNL     1     -34.974  17.596   2.187  0.00  0.00    +0.066 C 
ATOM     22  C   UNL     1     -34.951  16.217   2.923  0.00  0.00    -0.064 C 
ATOM     23  N   UNL     1     -35.607  15.157   2.036  0.00  0.00    +0.379 N 
ATOM     24  C   UNL     1     -35.535  13.848   2.701  0.00  0.00    -0.096 C 
ATOM     25  H   UNL     1     -35.013  15.091   1.094  0.00  0.00    -0.082 HD
ATOM     26  C   UNL     1     -37.026  15.559   1.660  0.00  0.00    -0.064 C 
ATOM     27  C   UNL     1     -37.039  16.944   0.955  0.00  0.00    +0.066 C 
ENDBRANCH  19  20
ENDBRANCH  18  19
ENDBRANCH  14  15
ENDBRANCH  12  13
TORSDOF 6
ENDMDL
MODEL 3
REMARK VINA RESULT:      -9.1      6.301     15.907
REMARK  Name = C:\Users\Docking\Desktop\test protocol\1iep_ligandH.pdb
REMARK  8 active torsions:
REMARK  status: ('A' for Active; 'I' for Inactive)
REMARK    1  A    between atoms: _5  and  _11
REMARK    2  A    between atoms: _19  and  _21
REMARK    3  A    between atoms: _22  and  _66
REMARK    4  A    between atoms: _27  and  _30
REMARK    5  A    between atoms: _32  and  _33
REMARK    6  A    between atoms: _38  and  _43
REMARK    7  A    between atoms: _43  and  _46
REMARK    8  A    between atoms: _53  and  _55
REMARK                            x       y       z     vdW  Elec       q    Type
REMARK                         _______ _______ _______ _____ _____    ______ ____
ROOT
ATOM     10  C   UNL     1     -45.879  26.995   1.408  0.00  0.00    +0.038 A 
ATOM     11  C   UNL     1     -44.637  26.338   1.218  0.00  0.00    +0.047 A 
ATOM     12  C   UNL     1     -44.517  24.897   1.374  0.00  0.00    +0.035 A 
ATOM     32  C   UNL     1     -45.683  24.155   1.722  0.00  0.00    +0.024 A 
ATOM     33  C   UNL     1     -46.954  24.807   1.920  0.00  0.00    +0.007 A 
ATOM     34  C   UNL     1     -47.078  26.229   1.770  0.00  0.00    -0.029 A 
ATOM     35  C   UNL     1     -48.464  26.876   2.001  0.00  0.00    +0.045 C 
ENDROOT
BRANCH  10   9
ATOM      4  C   UNL     1     -46.639  30.916  -1.255  0.00  0.00    +0.077 A 
ATOM      5  C   UNL     1     -46.916  30.138  -2.427  0.00  0.00    +0.048 A 
ATOM      6  C   UNL     1     -46.846  28.732  -2.305  0.00  0.00    +0.116 A 
ATOM      7  N   UNL     1     -46.522  28.158  -1.095  0.00  0.00    -0.223 NA
ATOM      8  C   UNL     1     -46.258  28.937   0.016  0.00  0.00    +0.220 A 
ATOM      9  N   UNL     1     -45.938  28.381   1.245  0.00  0.00    -0.283 N 
ATOM     36  H   UNL     1     -45.743  28.991   2.039  0.00  0.00    +0.155 HD
ATOM     37  N   UNL     1     -46.317  30.282  -0.075  0.00  0.00    -0.214 NA
BRANCH   4   3
ATOM      1  C   UNL     1     -47.753  34.633  -1.744  0.00  0.00    +0.020 A 
ATOM      2  C   UNL     1     -47.765  33.190  -1.801  0.00  0.00    +0.013 A 
ATOM      3  C   UNL     1     -46.676  32.412  -1.224  0.00  0.00    +0.019 A 
ATOM     38  C   UNL     1     -45.581  33.132  -0.591  0.00  0.00    +0.120 A 
ATOM     39  N   UNL     1     -45.595  34.522  -0.552  0.00  0.00    -0.263 NA
ATOM     40  C   UNL     1     -46.637  35.281  -1.106  0.00  0.00    +0.111 A 
ENDBRANCH   4   3
ENDBRANCH  10   9
BRANCH  12  13
ATOM     13  N   UNL     1     -43.280  24.175   1.202  0.00  0.00    -0.281 N 
ATOM     14  C   UNL     1     -42.612  23.396   2.132  0.00  0.00    +0.248 C 
ATOM     30  O   UNL     1     -42.868  23.373   3.326  0.00  0.00    -0.270 OA
ATOM     31  H   UNL     1     -42.844  24.248   0.282  0.00  0.00    +0.155 HD
BRANCH  14  15
ATOM     15  C   UNL     1     -41.487  22.526   1.670  0.00  0.00    +0.037 A 
ATOM     16  C   UNL     1     -41.650  21.610   0.538  0.00  0.00    +0.013 A 
ATOM     17  C   UNL     1     -40.554  20.770   0.125  0.00  0.00    +0.005 A 
ATOM     18  C   UNL     1     -39.284  20.843   0.844  0.00  0.00    -0.033 A 
ATOM     28  C   UNL     1     -39.149  21.764   1.960  0.00  0.00    +0.005 A 
ATOM     29  C   UNL     1     -40.221  22.589   2.369  0.00  0.00    +0.013 A 
BRANCH  18  19
ATOM     19  C   UNL     1     -38.068  19.969   0.485  0.00  0.00    +0.119 C 
BRANCH  19  20
ATOM     20  N   UNL     1     -37.183  20.448  -0.618  0.00  0.00    -0.302 NA
ATOM     21  C   UNL     1     -37.686  20.003  -1.994  0.00  0.00    +0.066 C 
ATOM     22  C   UNL     1     -36.760  20.533  -3.137  0.00  0.00    -0.064 C 
ATOM     23  N   UNL     1     -35.331  20.044  -2.899  0.00  0.00    +0.379 N 
ATOM     24  C   UNL     1     -34.469  20.491  -4.003  0.00  0.00    -0.096 C 
ATOM     25  H   UNL     1     -35.348  18.929  -2.914  0.00  0.00    -0.082 HD
ATOM     26  C   UNL     1     -34.823  20.480  -1.532  0.00  0.00    -0.064 C 
ATOM     27  C   UNL     1     -35.766  19.974  -0.405  0.00  0.00    +0.066 C 
ENDBRANCH  19  20
ENDBRANCH  18  19
ENDBRANCH  14  15
ENDBRANCH  12  13
TORSDOF 6
ENDMDL
MODEL 4
REMARK VINA RESULT:      -9.1      3.855     14.571
REMARK  Name = C:\Users\Docking\Desktop\test protocol\1iep_ligandH.pdb
REMARK  8 active torsions:
REMARK  status: ('A' for Active; 'I' for Inactive)
REMARK    1  A    between atoms: _5  and  _11
REMARK    2  A    between atoms: _19  and  _21
REMARK    3  A    between atoms: _22  and  _66
REMARK    4  A    between atoms: _27  and  _30
REMARK    5  A    between atoms: _32  and  _33
REMARK    6  A    between atoms: _38  and  _43
REMARK    7  A    between atoms: _43  and  _46
REMARK    8  A    between atoms: _53  and  _55
REMARK                            x       y       z     vdW  Elec       q    Type
REMARK                         _______ _______ _______ _____ _____    ______ ____
ROOT
ATOM     10  C   UNL     1     -45.975  24.635   2.607  0.00  0.00    +0.038 A 
ATOM     11  C   UNL     1     -44.860  23.903   2.126  0.00  0.00    +0.047 A 
ATOM     12  C   UNL     1     -43.794  23.480   3.022  0.00  0.00    +0.035 A 
ATOM     32  C   UNL     1     -43.898  23.819   4.403  0.00  0.00    +0.024 A 
ATOM     33  C   UNL     1     -45.024  24.564   4.908  0.00  0.00    +0.007 A 
ATOM     34  C   UNL     1     -46.077  24.986   4.029  0.00  0.00    -0.029 A 
ATOM     35  C   UNL     1     -47.258  25.788   4.625  0.00  0.00    +0.045 C 
ENDROOT
BRANCH  10   9
ATOM      4  C   UNL     1     -47.630  27.404  -0.948  0.00  0.00    +0.077 A 
ATOM      5  C   UNL     1     -46.421  28.176  -0.989  0.00  0.00    +0.048 A 
ATOM      6  C   UNL     1     -45.401  27.833  -0.073  0.00  0.00    +0.116 A 
ATOM      7  N   UNL     1     -45.586  26.793   0.812  0.00  0.00    -0.223 NA
ATOM      8  C   UNL     1     -46.765  26.070   0.826  0.00  0.00    +0.220 A 
ATOM      9  N   UNL     1     -46.970  25.015   1.703  0.00  0.00    -0.283 N 
ATOM     36  H   UNL     1     -47.856  24.511   1.687  0.00  0.00    +0.155 HD
ATOM     37  N   UNL     1     -47.755  26.379  -0.036  0.00  0.00    -0.214 NA
BRANCH   4   3
ATOM      1  C   UNL     1     -51.088  27.074  -2.746  0.00  0.00    +0.020 A 
ATOM      2  C   UNL     1     -49.987  26.800  -1.851  0.00  0.00    +0.013 A 
ATOM      3  C   UNL     1     -48.798  27.642  -1.853  0.00  0.00    +0.019 A 
ATOM     38  C   UNL     1     -48.754  28.764  -2.779  0.00  0.00    +0.120 A 
ATOM     39  N   UNL     1     -49.829  29.003  -3.630  0.00  0.00    -0.263 NA
ATOM     40  C   UNL     1     -50.978  28.198  -3.639  0.00  0.00    +0.111 A 
ENDBRANCH   4   3
ENDBRANCH  10   9
BRANCH  12  13
ATOM     13  N   UNL     1     -42.634  22.741   2.590  0.00  0.00    -0.281 N 
ATOM     14  C   UNL     1     -42.215  22.497   1.293  0.00  0.00    +0.248 C 
ATOM     30  O   UNL     1     -42.895  22.697   0.297  0.00  0.00    -0.270 OA
ATOM     31  H   UNL     1     -42.051  22.351   3.331  0.00  0.00    +0.155 HD
BRANCH  14  15
ATOM     15  C   UNL     1     -40.848  21.935   1.069  0.00  0.00    +0.037 A 
ATOM     16  C   UNL     1     -39.806  22.041   2.094  0.00  0.00    +0.013 A 
ATOM     17  C   UNL     1     -38.491  21.506   1.847  0.00  0.00    +0.005 A 
ATOM     18  C   UNL     1     -38.210  20.859   0.567  0.00  0.00    -0.033 A 
ATOM     28  C   UNL     1     -39.263  20.763  -0.430  0.00  0.00    +0.005 A 
ATOM     29  C   UNL     1     -40.554  21.287  -0.191  0.00  0.00    +0.013 A 
BRANCH  18  19
ATOM     19  C   UNL     1     -36.829  20.278   0.209  0.00  0.00    +0.119 C 
BRANCH  19  20
ATOM     20  N   UNL     1     -36.374  19.076   0.969  0.00  0.00    -0.302 NA
ATOM     21  C   UNL     1     -34.855  18.895   0.902  0.00  0.00    +0.066 C 
ATOM     22  C   UNL     1     -34.394  17.646   1.722  0.00  0.00    -0.064 C 
ATOM     23  N   UNL     1     -35.112  16.401   1.196  0.00  0.00    +0.379 N 
ATOM     24  C   UNL     1     -34.637  15.217   1.926  0.00  0.00    -0.096 C 
ATOM     25  H   UNL     1     -34.829  16.275   0.125  0.00  0.00    -0.082 HD
ATOM     26  C   UNL     1     -36.623  16.574   1.256  0.00  0.00    -0.064 C 
ATOM     27  C   UNL     1     -37.067  17.835   0.464  0.00  0.00    +0.066 C 
ENDBRANCH  19  20
ENDBRANCH  18  19
ENDBRANCH  14  15
ENDBRANCH  12  13
TORSDOF 6
ENDMDL
MODEL 5
REMARK VINA RESULT:      -9.1      6.951     10.589
REMARK  Name = C:\Users\Docking\Desktop\test protocol\1iep_ligandH.pdb
REMARK  8 active torsions:
REMARK  status: ('A' for Active; 'I' for Inactive)
REMARK    1  A    between atoms: _5  and  _11
REMARK    2  A    between atoms: _19  and  _21
REMARK    3  A    between atoms: _22  and  _66
REMARK    4  A    between atoms: _27  and  _30
REMARK    5  A    between atoms: _32  and  _33
REMARK    6  A    between atoms: _38  and  _43
REMARK    7  A    between atoms: _43  and  _46
REMARK    8  A    between atoms: _53  and  _55
REMARK                            x       y       z     vdW  Elec       q    Type
REMARK                         _______ _______ _______ _____ _____    ______ ____
ROOT
ATOM     10  C   UNL     1     -44.231  21.812   0.110  0.00  0.00    +0.038 A 
ATOM     11  C   UNL     1     -44.457  23.158   0.498  0.00  0.00    +0.047 A 
ATOM     12  C   UNL     1     -45.732  23.574   1.063  0.00  0.00    +0.035 A 
ATOM     32  C   UNL     1     -46.753  22.593   1.221  0.00  0.00    +0.024 A 
ATOM     33  C   UNL     1     -46.541  21.221   0.831  0.00  0.00    +0.007 A 
ATOM     34  C   UNL     1     -45.287  20.805   0.271  0.00  0.00    -0.029 A 
ATOM     35  C   UNL     1     -45.118  19.323  -0.136  0.00  0.00    +0.045 C 
ENDROOT
BRANCH  10   9
ATOM      4  C   UNL     1     -39.460  21.391   0.412  0.00  0.00    +0.077 A 
ATOM      5  C   UNL     1     -39.437  21.928   1.742  0.00  0.00    +0.048 A 
ATOM      6  C   UNL     1     -40.674  22.307   2.310  0.00  0.00    +0.116 A 
ATOM      7  N   UNL     1     -41.841  22.156   1.592  0.00  0.00    -0.223 NA
ATOM      8  C   UNL     1     -41.827  21.636   0.310  0.00  0.00    +0.220 A 
ATOM      9  N   UNL     1     -42.989  21.468  -0.427  0.00  0.00    -0.283 N 
ATOM     36  H   UNL     1     -42.936  21.088  -1.372  0.00  0.00    +0.155 HD
ATOM     37  N   UNL     1     -40.658  21.268  -0.255  0.00  0.00    -0.214 NA
BRANCH   4   3
ATOM      1  C   UNL     1     -37.076  19.822  -2.263  0.00  0.00    +0.020 A 
ATOM      2  C   UNL     1     -38.289  20.233  -1.595  0.00  0.00    +0.013 A 
ATOM      3  C   UNL     1     -38.235  20.942  -0.323  0.00  0.00    +0.019 A 
ATOM     38  C   UNL     1     -36.927  21.224   0.250  0.00  0.00    +0.120 A 
ATOM     39  N   UNL     1     -35.776  20.814  -0.416  0.00  0.00    -0.263 NA
ATOM     40  C   UNL     1     -35.816  20.129  -1.640  0.00  0.00    +0.111 A 
ENDBRANCH   4   3
ENDBRANCH  10   9
BRANCH  12  13
ATOM     13  N   UNL     1     -46.022  24.927   1.468  0.00  0.00    -0.281 N 
ATOM     14  C   UNL     1     -45.464  25.640   2.517  0.00  0.00    +0.248 C 
ATOM     30  O   UNL     1     -44.782  25.147   3.403  0.00  0.00    -0.270 OA
ATOM     31  H   UNL     1     -46.723  25.419   0.914  0.00  0.00    +0.155 HD
BRANCH  14  15
ATOM     15  C   UNL     1     -45.713  27.112   2.602  0.00  0.00    +0.037 A 
ATOM     16  C   UNL     1     -45.224  27.900   3.736  0.00  0.00    +0.013 A 
ATOM     17  C   UNL     1     -45.492  29.315   3.802  0.00  0.00    +0.005 A 
ATOM     18  C   UNL     1     -46.252  29.951   2.728  0.00  0.00    -0.033 A 
ATOM     28  C   UNL     1     -46.720  29.146   1.612  0.00  0.00    +0.005 A 
ATOM     29  C   UNL     1     -46.460  27.758   1.545  0.00  0.00    +0.013 A 
BRANCH  18  19
ATOM     19  C   UNL     1     -46.603  31.450   2.726  0.00  0.00    +0.119 C 
BRANCH  19  20
ATOM     20  N   UNL     1     -45.579  32.391   2.180  0.00  0.00    -0.302 NA
ATOM     21  C   UNL     1     -44.584  32.843   3.253  0.00  0.00    +0.066 C 
ATOM     22  C   UNL     1     -43.507  33.808   2.660  0.00  0.00    -0.064 C 
ATOM     23  N   UNL     1     -44.202  35.014   2.024  0.00  0.00    +0.379 N 
ATOM     24  C   UNL     1     -43.190  35.952   1.517  0.00  0.00    -0.096 C 
ATOM     25  H   UNL     1     -44.775  35.535   2.826  0.00  0.00    -0.082 HD
ATOM     26  C   UNL     1     -45.195  34.574   0.958  0.00  0.00    -0.064 C 
ATOM     27  C   UNL     1     -46.243  33.591   1.552  0.00  0.00    +0.066 C 
ENDBRANCH  19  20
ENDBRANCH  18  19
ENDBRANCH  14  15
ENDBRANCH  12  13
TORSDOF 6
ENDMDL
