MODEL 1
REMARK VINA RESULT:      -9.8      0.000      0.000
REMARK  Name = C:\Users\Docking\Desktop\test protocol\1iep_ligandH.pdb
REMARK  8 active torsions:
REMARK  status: ('A' for Active; 'I' for Inactive)
REMARK    1  A    between atoms: _5  and  _11
REMARK    2  A    between atoms: _19  and  _21
REMARK    3  A    between atoms: _22  and  _66
REMARK    4  A    between atoms: _27  and  _30
REMARK    5  A    between atoms: _32  and  _33
REMARK    6  A    between atoms: _38  and  _43
REMARK    7  A    between atoms: _43  and  _46
REMARK    8  A    between atoms: _53  and  _55
REMARK                            x       y       z     vdW  Elec       q    Type
REMARK                         _______ _______ _______ _____ _____    ______ ____
ROOT
ATOM     10  C   UNL     1      40.955  12.631 111.170  0.00  0.00    +0.038 A 
ATOM     11  C   UNL     1      40.436  13.952 111.176  0.00  0.00    +0.047 A 
ATOM     12  C   UNL     1      40.543  14.807 110.005  0.00  0.00    +0.035 A 
ATOM     32  C   UNL     1      41.181  14.285 108.842  0.00  0.00    +0.024 A 
ATOM     33  C   UNL     1      41.714  12.946 108.819  0.00  0.00    +0.007 A 
ATOM     34  C   UNL     1      41.615  12.098 109.972  0.00  0.00    -0.029 A 
ATOM     35  C   UNL     1      42.210  10.673 109.892  0.00  0.00    +0.045 C 
ENDROOT
BRANCH  10   9
ATOM      4  C   UNL     1      38.338  10.085 114.286  0.00  0.00    +0.077 A 
ATOM      5  C   UNL     1      37.123  10.350 113.572  0.00  0.00    +0.048 A 
ATOM      6  C   UNL     1      37.213  11.151 112.412  0.00  0.00    +0.116 A 
ATOM      7  N   UNL     1      38.433  11.646 112.005  0.00  0.00    -0.223 NA
ATOM      8  C   UNL     1      39.586  11.373 112.718  0.00  0.00    +0.220 A 
ATOM      9  N   UNL     1      40.825  11.853 112.323  0.00  0.00    -0.283 N 
ATOM     36  H   UNL     1      41.651  11.636 112.880  0.00  0.00    +0.155 HD
ATOM     37  N   UNL     1      39.526  10.611 113.830  0.00  0.00    -0.214 NA
BRANCH   4   3
ATOM      1  C   UNL     1      37.370   7.768 117.285  0.00  0.00    +0.020 A 
ATOM      2  C   UNL     1      37.250   8.560 116.082  0.00  0.00    +0.013 A 
ATOM      3  C   UNL     1      38.407   9.252 115.528  0.00  0.00    +0.019 A 
ATOM     38  C   UNL     1      39.680   9.121 116.220  0.00  0.00    +0.120 A 
ATOM     39  N   UNL     1      39.765   8.352 117.376  0.00  0.00    -0.263 NA
ATOM     40  C   UNL     1      38.658   7.683 117.920  0.00  0.00    +0.111 A 
ENDBRANCH   4   3
ENDBRANCH  10   9
BRANCH  12  13
ATOM     13  N   UNL     1      40.042  16.159 109.955  0.00  0.00    -0.281 N 
ATOM     14  C   UNL     1      40.608  17.254 109.323  0.00  0.00    +0.248 C 
ATOM     30  O   UNL     1      41.747  17.284 108.880  0.00  0.00    -0.270 OA
ATOM     31  H   UNL     1      39.165  16.329 110.447  0.00  0.00    +0.155 HD
BRANCH  14  15
ATOM     15  C   UNL     1      39.797  18.500 109.173  0.00  0.00    +0.037 A 
ATOM     16  C   UNL     1      40.319  19.665 108.455  0.00  0.00    +0.013 A 
ATOM     17  C   UNL     1      39.523  20.861 108.340  0.00  0.00    +0.005 A 
ATOM     18  C   UNL     1      38.193  20.896 108.944  0.00  0.00    -0.033 A 
ATOM     28  C   UNL     1      37.697  19.724 109.646  0.00  0.00    +0.005 A 
ATOM     29  C   UNL     1      38.475  18.551 109.761  0.00  0.00    +0.013 A 
BRANCH  18  19
ATOM     19  C   UNL     1      37.282  22.137 108.888  0.00  0.00    +0.119 C 
BRANCH  19  20
ATOM     20  N   UNL     1      37.946  23.468 108.758  0.00  0.00    -0.302 NA
ATOM     21  C   UNL     1      37.358  24.501 109.724  0.00  0.00    +0.066 C 
ATOM     22  C   UNL     1      38.080  25.881 109.590  0.00  0.00    -0.064 C 
ATOM     23  N   UNL     1      37.976  26.370 108.144  0.00  0.00    +0.379 N 
ATOM     24  C   UNL     1      38.603  27.695 108.028  0.00  0.00    -0.096 C 
ATOM     25  H   UNL     1      36.893  26.486 107.904  0.00  0.00    -0.082 HD
ATOM     26  C   UNL     1      38.556  25.348 107.177  0.00  0.00    -0.064 C 
ATOM     27  C   UNL     1      37.851  23.972 107.339  0.00  0.00    +0.066 C 
ENDBRANCH  19  20
ENDBRANCH  18  19
ENDBRANCH  14  15
ENDBRANCH  12  13
TORSDOF 6
ENDMDL
MODEL 2
REMARK VINA RESULT:      -9.7      1.806      2.431
REMARK  Name = C:\Users\Docking\Desktop\test protocol\1iep_ligandH.pdb
REMARK  8 active torsions:
REMARK  status: ('A' for Active; 'I' for Inactive)
REMARK    1  A    between atoms: _5  and  _11
REMARK    2  A    between atoms: _19  and  _21
REMARK    3  A    between atoms: _22  and  _66
REMARK    4  A    between atoms: _27  and  _30
REMARK    5  A    between atoms: _32  and  _33
REMARK    6  A    between atoms: _38  and  _43
REMARK    7  A    between atoms: _43  and  _46
REMARK    8  A    between atoms: _53  and  _55
REMARK                            x       y       z     vdW  Elec       q    Type
REMARK                         _______ _______ _______ _____ _____    ______ ____
ROOT
ATOM     10  C   UNL     1      41.965  11.324 111.183  0.00  0.00    +0.038 A 
ATOM     11  C   UNL     1      41.509  12.615 110.816  0.00  0.00    +0.047 A 
ATOM     12  C   UNL     1      41.840  13.190 109.521  0.00  0.00    +0.035 A 
ATOM     32  C   UNL     1      42.635  12.419 108.623  0.00  0.00    +0.024 A 
ATOM     33  C   UNL     1      43.108  11.105 108.981  0.00  0.00    +0.007 A 
ATOM     34  C   UNL     1      42.787  10.534 110.258  0.00  0.00    -0.029 A 
ATOM     35  C   UNL     1      43.326   9.123 110.590  0.00  0.00    +0.045 C 
ENDROOT
BRANCH  10   9
ATOM      4  C   UNL     1      38.723   9.895 114.422  0.00  0.00    +0.077 A 
ATOM      5  C   UNL     1      37.628  10.201 113.548  0.00  0.00    +0.048 A 
ATOM      6  C   UNL     1      37.941  10.731 112.276  0.00  0.00    +0.116 A 
ATOM      7  N   UNL     1      39.256  10.936 111.916  0.00  0.00    -0.223 NA
ATOM      8  C   UNL     1      40.288  10.631 112.783  0.00  0.00    +0.220 A 
ATOM      9  N   UNL     1      41.618  10.821 112.439  0.00  0.00    -0.283 N 
ATOM     36  H   UNL     1      42.350  10.591 113.110  0.00  0.00    +0.155 HD
ATOM     37  N   UNL     1      40.015  10.125 114.004  0.00  0.00    -0.214 NA
BRANCH   4   3
ATOM      1  C   UNL     1      39.452   8.284 117.911  0.00  0.00    +0.020 A 
ATOM      2  C   UNL     1      39.669   8.823 116.588  0.00  0.00    +0.013 A 
ATOM      3  C   UNL     1      38.554   9.326 115.796  0.00  0.00    +0.019 A 
ATOM     38  C   UNL     1      37.221   9.269 116.376  0.00  0.00    +0.120 A 
ATOM     39  N   UNL     1      37.041   8.743 117.652  0.00  0.00    -0.263 NA
ATOM     40  C   UNL     1      38.107   8.255 118.423  0.00  0.00    +0.111 A 
ENDBRANCH   4   3
ENDBRANCH  10   9
BRANCH  12  13
ATOM     13  N   UNL     1      41.413  14.500 109.096  0.00  0.00    -0.281 N 
ATOM     14  C   UNL     1      40.522  15.352 109.728  0.00  0.00    +0.248 C 
ATOM     30  O   UNL     1      39.791  15.026 110.652  0.00  0.00    -0.270 OA
ATOM     31  H   UNL     1      41.815  14.840 108.222  0.00  0.00    +0.155 HD
BRANCH  14  15
ATOM     15  C   UNL     1      40.419  16.767 109.257  0.00  0.00    +0.037 A 
ATOM     16  C   UNL     1      41.445  17.358 108.395  0.00  0.00    +0.013 A 
ATOM     17  C   UNL     1      41.330  18.730 107.969  0.00  0.00    +0.005 A 
ATOM     18  C   UNL     1      40.181  19.521 108.405  0.00  0.00    -0.033 A 
ATOM     28  C   UNL     1      39.175  18.908 109.256  0.00  0.00    +0.005 A 
ATOM     29  C   UNL     1      39.285  17.563 109.676  0.00  0.00    +0.013 A 
BRANCH  18  19
ATOM     19  C   UNL     1      39.987  20.998 108.016  0.00  0.00    +0.119 C 
BRANCH  19  20
ATOM     20  N   UNL     1      38.585  21.478 107.831  0.00  0.00    -0.302 NA
ATOM     21  C   UNL     1      38.375  22.124 106.458  0.00  0.00    +0.066 C 
ATOM     22  C   UNL     1      36.898  22.600 106.273  0.00  0.00    -0.064 C 
ATOM     23  N   UNL     1      36.536  23.578 107.392  0.00  0.00    +0.379 N 
ATOM     24  C   UNL     1      35.166  24.072 107.187  0.00  0.00    -0.096 C 
ATOM     25  H   UNL     1      37.225  24.450 107.314  0.00  0.00    -0.082 HD
ATOM     26  C   UNL     1      36.744  22.945 108.760  0.00  0.00    -0.064 C 
ATOM     27  C   UNL     1      38.208  22.449 108.923  0.00  0.00    +0.066 C 
ENDBRANCH  19  20
ENDBRANCH  18  19
ENDBRANCH  14  15
ENDBRANCH  12  13
TORSDOF 6
ENDMDL
MODEL 3
REMARK VINA RESULT:      -9.0      3.053      3.800
REMARK  Name = C:\Users\Docking\Desktop\test protocol\1iep_ligandH.pdb
REMARK  8 active torsions:
REMARK  status: ('A' for Active; 'I' for Inactive)
REMARK    1  A    between atoms: _5  and  _11
REMARK    2  A    between atoms: _19  and  _21
REMARK    3  A    between atoms: _22  and  _66
REMARK    4  A    between atoms: _27  and  _30
REMARK    5  A    between atoms: _32  and  _33
REMARK    6  A    between atoms: _38  and  _43
REMARK    7  A    between atoms: _43  and  _46
REMARK    8  A    between atoms: _53  and  _55
REMARK                            x       y       z     vdW  Elec       q    Type
REMARK                         _______ _______ _______ _____ _____    ______ ____
ROOT
ATOM     10  C   UNL     1      42.189  11.232 111.148  0.00  0.00    +0.038 A 
ATOM     11  C   UNL     1      41.861  12.544 110.722  0.00  0.00    +0.047 A 
ATOM     12  C   UNL     1      42.238  13.023 109.402  0.00  0.00    +0.035 A 
ATOM     32  C   UNL     1      42.947  12.138 108.539  0.00  0.00    +0.024 A 
ATOM     33  C   UNL     1      43.289  10.801 108.955  0.00  0.00    +0.007 A 
ATOM     34  C   UNL     1      42.922  10.323 110.258  0.00  0.00    -0.029 A 
ATOM     35  C   UNL     1      43.321   8.883 110.654  0.00  0.00    +0.045 C 
ENDROOT
BRANCH  10   9
ATOM      4  C   UNL     1      38.867   9.855 114.327  0.00  0.00    +0.077 A 
ATOM      5  C   UNL     1      37.809   9.985 113.367  0.00  0.00    +0.048 A 
ATOM      6  C   UNL     1      38.161  10.416 112.068  0.00  0.00    +0.116 A 
ATOM      7  N   UNL     1      39.476  10.692 111.763  0.00  0.00    -0.223 NA
ATOM      8  C   UNL     1      40.472  10.558 112.713  0.00  0.00    +0.220 A 
ATOM      9  N   UNL     1      41.802  10.824 112.426  0.00  0.00    -0.283 N 
ATOM     36  H   UNL     1      42.506  10.720 113.157  0.00  0.00    +0.155 HD
ATOM     37  N   UNL     1      40.161  10.150 113.961  0.00  0.00    -0.214 NA
BRANCH   4   3
ATOM      1  C   UNL     1      37.207   9.019 117.769  0.00  0.00    +0.020 A 
ATOM      2  C   UNL     1      37.358   9.464 116.403  0.00  0.00    +0.013 A 
ATOM      3  C   UNL     1      38.655   9.407 115.740  0.00  0.00    +0.019 A 
ATOM     38  C   UNL     1      39.787   8.888 116.492  0.00  0.00    +0.120 A 
ATOM     39  N   UNL     1      39.612   8.468 117.807  0.00  0.00    -0.263 NA
ATOM     40  C   UNL     1      38.369   8.520 118.456  0.00  0.00    +0.111 A 
ENDBRANCH   4   3
ENDBRANCH  10   9
BRANCH  12  13
ATOM     13  N   UNL     1      41.940  14.348 108.918  0.00  0.00    -0.281 N 
ATOM     14  C   UNL     1      41.048  15.267 109.447  0.00  0.00    +0.248 C 
ATOM     30  O   UNL     1      40.210  15.007 110.297  0.00  0.00    -0.270 OA
ATOM     31  H   UNL     1      42.447  14.645 108.084  0.00  0.00    +0.155 HD
BRANCH  14  15
ATOM     15  C   UNL     1      41.082  16.676 108.948  0.00  0.00    +0.037 A 
ATOM     16  C   UNL     1      40.251  17.718 109.556  0.00  0.00    +0.013 A 
ATOM     17  C   UNL     1      40.291  19.065 109.045  0.00  0.00    +0.005 A 
ATOM     18  C   UNL     1      41.167  19.378 107.918  0.00  0.00    -0.033 A 
ATOM     28  C   UNL     1      41.984  18.326 107.337  0.00  0.00    +0.005 A 
ATOM     29  C   UNL     1      41.947  17.005 107.835  0.00  0.00    +0.013 A 
BRANCH  18  19
ATOM     19  C   UNL     1      41.257  20.783 107.294  0.00  0.00    +0.119 C 
BRANCH  19  20
ATOM     20  N   UNL     1      42.355  21.026 106.311  0.00  0.00    -0.302 NA
ATOM     21  C   UNL     1      43.553  21.733 106.951  0.00  0.00    +0.066 C 
ATOM     22  C   UNL     1      44.701  21.958 105.914  0.00  0.00    -0.064 C 
ATOM     23  N   UNL     1      44.164  22.765 104.730  0.00  0.00    +0.379 N 
ATOM     24  C   UNL     1      45.255  23.028 103.781  0.00  0.00    -0.096 C 
ATOM     25  H   UNL     1      43.812  23.747 105.123  0.00  0.00    -0.082 HD
ATOM     26  C   UNL     1      42.971  22.070 104.090  0.00  0.00    -0.064 C 
ATOM     27  C   UNL     1      41.848  21.825 105.136  0.00  0.00    +0.066 C 
ENDBRANCH  19  20
ENDBRANCH  18  19
ENDBRANCH  14  15
ENDBRANCH  12  13
TORSDOF 6
ENDMDL
MODEL 4
REMARK VINA RESULT:      -8.4     30.315     32.649
REMARK  Name = C:\Users\Docking\Desktop\test protocol\1iep_ligandH.pdb
REMARK  8 active torsions:
REMARK  status: ('A' for Active; 'I' for Inactive)
REMARK    1  A    between atoms: _5  and  _11
REMARK    2  A    between atoms: _19  and  _21
REMARK    3  A    between atoms: _22  and  _66
REMARK    4  A    between atoms: _27  and  _30
REMARK    5  A    between atoms: _32  and  _33
REMARK    6  A    between atoms: _38  and  _43
REMARK    7  A    between atoms: _43  and  _46
REMARK    8  A    between atoms: _53  and  _55
REMARK                            x       y       z     vdW  Elec       q    Type
REMARK                         _______ _______ _______ _____ _____    ______ ____
ROOT
ATOM     10  C   UNL     1      50.373  31.913 131.748  0.00  0.00    +0.038 A 
ATOM     11  C   UNL     1      51.502  32.617 132.239  0.00  0.00    +0.047 A 
ATOM     12  C   UNL     1      51.417  33.429 133.443  0.00  0.00    +0.035 A 
ATOM     32  C   UNL     1      50.167  33.499 134.124  0.00  0.00    +0.024 A 
ATOM     33  C   UNL     1      49.009  32.790 133.639  0.00  0.00    +0.007 A 
ATOM     34  C   UNL     1      49.086  31.990 132.450  0.00  0.00    -0.029 A 
ATOM     35  C   UNL     1      47.811  31.257 131.972  0.00  0.00    +0.045 C 
ENDROOT
BRANCH  10   9
ATOM      4  C   UNL     1      51.401  27.810 129.479  0.00  0.00    +0.077 A 
ATOM      5  C   UNL     1      51.717  27.141 130.708  0.00  0.00    +0.048 A 
ATOM      6  C   UNL     1      51.609  27.890 131.901  0.00  0.00    +0.116 A 
ATOM      7  N   UNL     1      51.213  29.209 131.857  0.00  0.00    -0.223 NA
ATOM      8  C   UNL     1      50.918  29.825 130.655  0.00  0.00    +0.220 A 
ATOM      9  N   UNL     1      50.510  31.148 130.587  0.00  0.00    -0.283 N 
ATOM     36  H   UNL     1      50.309  31.568 129.680  0.00  0.00    +0.155 HD
ATOM     37  N   UNL     1      51.015  29.132 129.501  0.00  0.00    -0.214 NA
BRANCH   4   3
ATOM      1  C   UNL     1      52.246  27.030 125.741  0.00  0.00    +0.020 A 
ATOM      2  C   UNL     1      52.217  27.705 127.017  0.00  0.00    +0.013 A 
ATOM      3  C   UNL     1      51.465  27.152 128.136  0.00  0.00    +0.019 A 
ATOM     38  C   UNL     1      50.747  25.903 127.928  0.00  0.00    +0.120 A 
ATOM     39  N   UNL     1      50.792  25.276 126.687  0.00  0.00    -0.263 NA
ATOM     40  C   UNL     1      51.512  25.800 125.603  0.00  0.00    +0.111 A 
ENDBRANCH   4   3
ENDBRANCH  10   9
BRANCH  12  13
ATOM     13  N   UNL     1      52.528  34.173 133.984  0.00  0.00    -0.281 N 
ATOM     14  C   UNL     1      52.541  35.488 134.419  0.00  0.00    +0.248 C 
ATOM     30  O   UNL     1      51.647  36.294 134.209  0.00  0.00    -0.270 OA
ATOM     31  H   UNL     1      53.412  33.669 134.055  0.00  0.00    +0.155 HD
BRANCH  14  15
ATOM     15  C   UNL     1      53.725  35.983 135.185  0.00  0.00    +0.037 A 
ATOM     16  C   UNL     1      54.016  37.415 135.291  0.00  0.00    +0.013 A 
ATOM     17  C   UNL     1      55.174  37.865 136.023  0.00  0.00    +0.005 A 
ATOM     18  C   UNL     1      56.049  36.880 136.655  0.00  0.00    -0.033 A 
ATOM     28  C   UNL     1      55.733  35.467 136.539  0.00  0.00    +0.005 A 
ATOM     29  C   UNL     1      54.599  35.022 135.822  0.00  0.00    +0.013 A 
BRANCH  18  19
ATOM     19  C   UNL     1      57.317  37.269 137.438  0.00  0.00    +0.119 C 
BRANCH  19  20
ATOM     20  N   UNL     1      57.137  37.735 138.845  0.00  0.00    -0.302 NA
ATOM     21  C   UNL     1      57.483  39.218 139.008  0.00  0.00    +0.066 C 
ATOM     22  C   UNL     1      57.267  39.694 140.482  0.00  0.00    -0.064 C 
ATOM     23  N   UNL     1      58.114  38.834 141.421  0.00  0.00    +0.379 N 
ATOM     24  C   UNL     1      57.958  39.316 142.801  0.00  0.00    -0.096 C 
ATOM     25  H   UNL     1      59.182  38.970 141.134  0.00  0.00    -0.082 HD
ATOM     26  C   UNL     1      57.779  37.357 141.264  0.00  0.00    -0.064 C 
ATOM     27  C   UNL     1      57.968  36.902 139.790  0.00  0.00    +0.066 C 
ENDBRANCH  19  20
ENDBRANCH  18  19
ENDBRANCH  14  15
ENDBRANCH  12  13
TORSDOF 6
ENDMDL
MODEL 5
REMARK VINA RESULT:      -8.3     19.873     23.096
REMARK  Name = C:\Users\Docking\Desktop\test protocol\1iep_ligandH.pdb
REMARK  8 active torsions:
REMARK  status: ('A' for Active; 'I' for Inactive)
REMARK    1  A    between atoms: _5  and  _11
REMARK    2  A    between atoms: _19  and  _21
REMARK    3  A    between atoms: _22  and  _66
REMARK    4  A    between atoms: _27  and  _30
REMARK    5  A    between atoms: _32  and  _33
REMARK    6  A    between atoms: _38  and  _43
REMARK    7  A    between atoms: _43  and  _46
REMARK    8  A    between atoms: _53  and  _55
REMARK                            x       y       z     vdW  Elec       q    Type
REMARK                         _______ _______ _______ _____ _____    ______ ____
ROOT
ATOM     10  C   UNL     1      33.132   4.357 131.045  0.00  0.00    +0.038 A 
ATOM     11  C   UNL     1      32.716   3.850 129.787  0.00  0.00    +0.047 A 
ATOM     12  C   UNL     1      31.307   3.781 129.432  0.00  0.00    +0.035 A 
ATOM     32  C   UNL     1      30.348   4.240 130.381  0.00  0.00    +0.024 A 
ATOM     33  C   UNL     1      30.753   4.758 131.665  0.00  0.00    +0.007 A 
ATOM     34  C   UNL     1      32.141   4.826 132.022  0.00  0.00    -0.029 A 
ATOM     35  C   UNL     1      32.517   5.384 133.414  0.00  0.00    +0.045 C 
ENDROOT
BRANCH  10   9
ATOM      4  C   UNL     1      37.644   5.605 129.986  0.00  0.00    +0.077 A 
ATOM      5  C   UNL     1      37.251   6.196 128.740  0.00  0.00    +0.048 A 
ATOM      6  C   UNL     1      35.879   6.152 128.405  0.00  0.00    +0.116 A 
ATOM      7  N   UNL     1      34.976   5.559 129.261  0.00  0.00    -0.223 NA
ATOM      8  C   UNL     1      35.389   4.996 130.455  0.00  0.00    +0.220 A 
ATOM      9  N   UNL     1      34.498   4.401 131.334  0.00  0.00    -0.283 N 
ATOM     36  H   UNL     1      34.843   3.990 132.201  0.00  0.00    +0.155 HD
ATOM     37  N   UNL     1      36.694   5.024 130.796  0.00  0.00    -0.214 NA
BRANCH   4   3
ATOM      1  C   UNL     1      40.781   5.571 132.323  0.00  0.00    +0.020 A 
ATOM      2  C   UNL     1      39.401   5.602 131.898  0.00  0.00    +0.013 A 
ATOM      3  C   UNL     1      39.057   5.575 130.482  0.00  0.00    +0.019 A 
ATOM     38  C   UNL     1      40.142   5.514 129.514  0.00  0.00    +0.120 A 
ATOM     39  N   UNL     1      41.462   5.487 129.953  0.00  0.00    -0.263 NA
ATOM     40  C   UNL     1      41.805   5.515 131.313  0.00  0.00    +0.111 A 
ENDBRANCH   4   3
ENDBRANCH  10   9
BRANCH  12  13
ATOM     13  N   UNL     1      30.825   3.269 128.174  0.00  0.00    -0.281 N 
ATOM     14  C   UNL     1      31.125   3.721 126.899  0.00  0.00    +0.248 C 
ATOM     30  O   UNL     1      31.691   4.776 126.655  0.00  0.00    -0.270 OA
ATOM     31  H   UNL     1      30.185   2.476 128.229  0.00  0.00    +0.155 HD
BRANCH  14  15
ATOM     15  C   UNL     1      30.728   2.886 125.725  0.00  0.00    +0.037 A 
ATOM     16  C   UNL     1      31.697   2.025 125.041  0.00  0.00    +0.013 A 
ATOM     17  C   UNL     1      31.291   1.244 123.900  0.00  0.00    +0.005 A 
ATOM     18  C   UNL     1      29.907   1.318 123.436  0.00  0.00    -0.033 A 
ATOM     28  C   UNL     1      28.966   2.176 124.137  0.00  0.00    +0.005 A 
ATOM     29  C   UNL     1      29.360   2.944 125.255  0.00  0.00    +0.013 A 
BRANCH  18  19
ATOM     19  C   UNL     1      29.391   0.535 122.215  0.00  0.00    +0.119 C 
BRANCH  19  20
ATOM     20  N   UNL     1      30.140   0.697 120.933  0.00  0.00    -0.302 NA
ATOM     21  C   UNL     1      29.227   1.143 119.787  0.00  0.00    +0.066 C 
ATOM     22  C   UNL     1      30.030   1.330 118.459  0.00  0.00    -0.064 C 
ATOM     23  N   UNL     1      30.740   0.022 118.107  0.00  0.00    +0.379 N 
ATOM     24  C   UNL     1      31.449   0.176 116.829  0.00  0.00    -0.096 C 
ATOM     25  H   UNL     1      29.958  -0.760 117.968  0.00  0.00    -0.082 HD
ATOM     26  C   UNL     1      31.648  -0.431 119.242  0.00  0.00    -0.064 C 
ATOM     27  C   UNL     1      30.845  -0.585 120.564  0.00  0.00    +0.066 C 
ENDBRANCH  19  20
ENDBRANCH  18  19
ENDBRANCH  14  15
ENDBRANCH  12  13
TORSDOF 6
ENDMDL
