MODEL 1
REMARK VINA RESULT:     -10.3      0.000      0.000
REMARK  Name = C:\Users\Docking\Desktop\test protocol\1iep_ligandH.pdb
REMARK  8 active torsions:
REMARK  status: ('A' for Active; 'I' for Inactive)
REMARK    1  A    between atoms: _5  and  _11
REMARK    2  A    between atoms: _19  and  _21
REMARK    3  A    between atoms: _22  and  _66
REMARK    4  A    between atoms: _27  and  _30
REMARK    5  A    between atoms: _32  and  _33
REMARK    6  A    between atoms: _38  and  _43
REMARK    7  A    between atoms: _43  and  _46
REMARK    8  A    between atoms: _53  and  _55
REMARK                            x       y       z     vdW  Elec       q    Type
REMARK                         _______ _______ _______ _____ _____    ______ ____
ROOT
ATOM     10  C   UNL     1     -37.688  57.014  31.758  0.00  0.00    +0.038 A 
ATOM     11  C   UNL     1     -37.957  57.272  33.126  0.00  0.00    +0.047 A 
ATOM     12  C   UNL     1     -39.322  57.410  33.612  0.00  0.00    +0.035 A 
ATOM     32  C   UNL     1     -40.388  57.277  32.675  0.00  0.00    +0.024 A 
ATOM     33  C   UNL     1     -40.133  57.016  31.281  0.00  0.00    +0.007 A 
ATOM     34  C   UNL     1     -38.789  56.881  30.796  0.00  0.00    -0.029 A 
ATOM     35  C   UNL     1     -38.573  56.608  29.289  0.00  0.00    +0.045 C 
ENDROOT
BRANCH  10   9
ATOM      4  C   UNL     1     -33.319  58.833  30.958  0.00  0.00    +0.077 A 
ATOM      5  C   UNL     1     -33.726  60.146  31.368  0.00  0.00    +0.048 A 
ATOM      6  C   UNL     1     -35.070  60.313  31.771  0.00  0.00    +0.116 A 
ATOM      7  N   UNL     1     -35.934  59.239  31.761  0.00  0.00    -0.223 NA
ATOM      8  C   UNL     1     -35.509  57.987  31.357  0.00  0.00    +0.220 A 
ATOM      9  N   UNL     1     -36.359  56.891  31.347  0.00  0.00    -0.283 N 
ATOM     36  H   UNL     1     -36.009  55.985  31.035  0.00  0.00    +0.155 HD
ATOM     37  N   UNL     1     -34.231  57.802  30.967  0.00  0.00    -0.214 NA
BRANCH   4   3
ATOM      1  C   UNL     1     -30.283  57.598  28.823  0.00  0.00    +0.020 A 
ATOM      2  C   UNL     1     -31.642  57.902  29.209  0.00  0.00    +0.013 A 
ATOM      3  C   UNL     1     -31.931  58.498  30.508  0.00  0.00    +0.019 A 
ATOM     38  C   UNL     1     -30.814  58.775  31.398  0.00  0.00    +0.120 A 
ATOM     39  N   UNL     1     -29.517  58.470  31.000  0.00  0.00    -0.263 NA
ATOM     40  C   UNL     1     -29.226  57.895  29.753  0.00  0.00    +0.111 A 
ENDBRANCH   4   3
ENDBRANCH  10   9
BRANCH  12  13
ATOM     13  N   UNL     1     -39.656  57.680  34.988  0.00  0.00    -0.281 N 
ATOM     14  C   UNL     1     -39.934  56.766  35.992  0.00  0.00    +0.248 C 
ATOM     30  O   UNL     1     -40.147  55.578  35.805  0.00  0.00    -0.270 OA
ATOM     31  H   UNL     1     -39.693  58.664  35.255  0.00  0.00    +0.155 HD
BRANCH  14  15
ATOM     15  C   UNL     1     -39.999  57.245  37.406  0.00  0.00    +0.037 A 
ATOM     16  C   UNL     1     -41.210  57.072  38.212  0.00  0.00    +0.013 A 
ATOM     17  C   UNL     1     -41.251  57.558  39.569  0.00  0.00    +0.005 A 
ATOM     18  C   UNL     1     -40.076  58.222  40.128  0.00  0.00    -0.033 A 
ATOM     28  C   UNL     1     -38.886  58.376  39.307  0.00  0.00    +0.005 A 
ATOM     29  C   UNL     1     -38.842  57.902  37.977  0.00  0.00    +0.013 A 
BRANCH  18  19
ATOM     19  C   UNL     1     -40.038  58.791  41.558  0.00  0.00    +0.119 C 
BRANCH  19  20
ATOM     20  N   UNL     1     -39.932  57.812  42.681  0.00  0.00    -0.302 NA
ATOM     21  C   UNL     1     -40.625  58.316  43.950  0.00  0.00    +0.066 C 
ATOM     22  C   UNL     1     -40.524  57.269  45.108  0.00  0.00    -0.064 C 
ATOM     23  N   UNL     1     -39.051  56.957  45.382  0.00  0.00    +0.379 N 
ATOM     24  C   UNL     1     -38.951  56.018  46.508  0.00  0.00    -0.096 C 
ATOM     25  H   UNL     1     -38.556  57.908  45.688  0.00  0.00    -0.082 HD
ATOM     26  C   UNL     1     -38.354  56.458  44.124  0.00  0.00    -0.064 C 
ATOM     27  C   UNL     1     -38.486  57.492  42.971  0.00  0.00    +0.066 C 
ENDBRANCH  19  20
ENDBRANCH  18  19
ENDBRANCH  14  15
ENDBRANCH  12  13
TORSDOF 6
ENDMDL
MODEL 2
REMARK VINA RESULT:      -9.7      9.420     16.345
REMARK  Name = C:\Users\Docking\Desktop\test protocol\1iep_ligandH.pdb
REMARK  8 active torsions:
REMARK  status: ('A' for Active; 'I' for Inactive)
REMARK    1  A    between atoms: _5  and  _11
REMARK    2  A    between atoms: _19  and  _21
REMARK    3  A    between atoms: _22  and  _66
REMARK    4  A    between atoms: _27  and  _30
REMARK    5  A    between atoms: _32  and  _33
REMARK    6  A    between atoms: _38  and  _43
REMARK    7  A    between atoms: _43  and  _46
REMARK    8  A    between atoms: _53  and  _55
REMARK                            x       y       z     vdW  Elec       q    Type
REMARK                         _______ _______ _______ _____ _____    ______ ____
ROOT
ATOM     10  C   UNL     1     -21.130  61.724  27.200  0.00  0.00    +0.038 A 
ATOM     11  C   UNL     1     -22.273  61.118  27.782  0.00  0.00    +0.047 A 
ATOM     12  C   UNL     1     -23.616  61.532  27.409  0.00  0.00    +0.035 A 
ATOM     32  C   UNL     1     -23.760  62.564  26.437  0.00  0.00    +0.024 A 
ATOM     33  C   UNL     1     -22.609  63.192  25.836  0.00  0.00    +0.007 A 
ATOM     34  C   UNL     1     -21.281  62.790  26.203  0.00  0.00    -0.029 A 
ATOM     35  C   UNL     1     -20.084  63.503  25.531  0.00  0.00    +0.045 C 
ENDROOT
BRANCH  10   9
ATOM      4  C   UNL     1     -17.339  61.846  30.141  0.00  0.00    +0.077 A 
ATOM      5  C   UNL     1     -17.919  62.885  30.943  0.00  0.00    +0.048 A 
ATOM      6  C   UNL     1     -19.192  63.365  30.560  0.00  0.00    +0.116 A 
ATOM      7  N   UNL     1     -19.827  62.838  29.456  0.00  0.00    -0.223 NA
ATOM      8  C   UNL     1     -19.239  61.838  28.705  0.00  0.00    +0.220 A 
ATOM      9  N   UNL     1     -19.863  61.288  27.596  0.00  0.00    -0.283 N 
ATOM     36  H   UNL     1     -19.393  60.557  27.063  0.00  0.00    +0.155 HD
ATOM     37  N   UNL     1     -18.024  61.363  29.049  0.00  0.00    -0.214 NA
BRANCH   4   3
ATOM      1  C   UNL     1     -14.442  59.258  30.600  0.00  0.00    +0.020 A 
ATOM      2  C   UNL     1     -15.752  59.800  30.321  0.00  0.00    +0.013 A 
ATOM      3  C   UNL     1     -16.002  61.232  30.420  0.00  0.00    +0.019 A 
ATOM     38  C   UNL     1     -14.896  62.096  30.806  0.00  0.00    +0.120 A 
ATOM     39  N   UNL     1     -13.646  61.545  31.071  0.00  0.00    -0.263 NA
ATOM     40  C   UNL     1     -13.394  60.168  30.980  0.00  0.00    +0.111 A 
ENDBRANCH   4   3
ENDBRANCH  10   9
BRANCH  12  13
ATOM     13  N   UNL     1     -24.814  60.958  27.972  0.00  0.00    -0.281 N 
ATOM     14  C   UNL     1     -26.113  61.424  27.863  0.00  0.00    +0.248 C 
ATOM     30  O   UNL     1     -26.418  62.530  27.442  0.00  0.00    -0.270 OA
ATOM     31  H   UNL     1     -24.687  60.104  28.516  0.00  0.00    +0.155 HD
BRANCH  14  15
ATOM     15  C   UNL     1     -27.237  60.540  28.300  0.00  0.00    +0.037 A 
ATOM     16  C   UNL     1     -28.614  60.793  27.870  0.00  0.00    +0.013 A 
ATOM     17  C   UNL     1     -29.681  59.935  28.320  0.00  0.00    +0.005 A 
ATOM     18  C   UNL     1     -29.374  58.813  29.204  0.00  0.00    -0.033 A 
ATOM     28  C   UNL     1     -27.998  58.582  29.611  0.00  0.00    +0.005 A 
ATOM     29  C   UNL     1     -26.949  59.422  29.173  0.00  0.00    +0.013 A 
BRANCH  18  19
ATOM     19  C   UNL     1     -30.452  57.859  29.750  0.00  0.00    +0.119 C 
BRANCH  19  20
ATOM     20  N   UNL     1     -31.442  58.425  30.714  0.00  0.00    -0.302 NA
ATOM     21  C   UNL     1     -31.298  57.813  32.111  0.00  0.00    +0.066 C 
ATOM     22  C   UNL     1     -32.326  58.433  33.112  0.00  0.00    -0.064 C 
ATOM     23  N   UNL     1     -33.744  58.229  32.575  0.00  0.00    +0.379 N 
ATOM     24  C   UNL     1     -34.716  58.759  33.543  0.00  0.00    -0.096 C 
ATOM     25  H   UNL     1     -33.917  57.131  32.488  0.00  0.00    -0.082 HD
ATOM     26  C   UNL     1     -33.895  58.832  31.186  0.00  0.00    -0.064 C 
ATOM     27  C   UNL     1     -32.849  58.230  30.206  0.00  0.00    +0.066 C 
ENDBRANCH  19  20
ENDBRANCH  18  19
ENDBRANCH  14  15
ENDBRANCH  12  13
TORSDOF 6
ENDMDL
MODEL 3
REMARK VINA RESULT:      -9.5     10.494     15.835
REMARK  Name = C:\Users\Docking\Desktop\test protocol\1iep_ligandH.pdb
REMARK  8 active torsions:
REMARK  status: ('A' for Active; 'I' for Inactive)
REMARK    1  A    between atoms: _5  and  _11
REMARK    2  A    between atoms: _19  and  _21
REMARK    3  A    between atoms: _22  and  _66
REMARK    4  A    between atoms: _27  and  _30
REMARK    5  A    between atoms: _32  and  _33
REMARK    6  A    between atoms: _38  and  _43
REMARK    7  A    between atoms: _43  and  _46
REMARK    8  A    between atoms: _53  and  _55
REMARK                            x       y       z     vdW  Elec       q    Type
REMARK                         _______ _______ _______ _____ _____    ______ ____
ROOT
ATOM     10  C   UNL     1     -23.851  57.201  40.037  0.00  0.00    +0.038 A 
ATOM     11  C   UNL     1     -24.583  57.123  38.824  0.00  0.00    +0.047 A 
ATOM     12  C   UNL     1     -25.970  57.555  38.754  0.00  0.00    +0.035 A 
ATOM     32  C   UNL     1     -26.580  58.064  39.938  0.00  0.00    +0.024 A 
ATOM     33  C   UNL     1     -25.851  58.149  41.179  0.00  0.00    +0.007 A 
ATOM     34  C   UNL     1     -24.483  57.722  41.255  0.00  0.00    -0.029 A 
ATOM     35  C   UNL     1     -23.752  57.830  42.613  0.00  0.00    +0.045 C 
ENDROOT
BRANCH  10   9
ATOM      4  C   UNL     1     -20.504  53.803  40.575  0.00  0.00    +0.077 A 
ATOM      5  C   UNL     1     -21.484  52.804  40.888  0.00  0.00    +0.048 A 
ATOM      6  C   UNL     1     -22.838  53.207  40.907  0.00  0.00    +0.116 A 
ATOM      7  N   UNL     1     -23.175  54.514  40.632  0.00  0.00    -0.223 NA
ATOM      8  C   UNL     1     -22.205  55.453  40.335  0.00  0.00    +0.220 A 
ATOM      9  N   UNL     1     -22.522  56.772  40.047  0.00  0.00    -0.283 N 
ATOM     36  H   UNL     1     -21.776  57.436  39.841  0.00  0.00    +0.155 HD
ATOM     37  N   UNL     1     -20.904  55.094  40.312  0.00  0.00    -0.214 NA
BRANCH   4   3
ATOM      1  C   UNL     1     -16.621  54.193  40.845  0.00  0.00    +0.020 A 
ATOM      2  C   UNL     1     -18.029  54.505  40.925  0.00  0.00    +0.013 A 
ATOM      3  C   UNL     1     -19.033  53.532  40.513  0.00  0.00    +0.019 A 
ATOM     38  C   UNL     1     -18.574  52.241  40.022  0.00  0.00    +0.120 A 
ATOM     39  N   UNL     1     -17.211  51.969  39.954  0.00  0.00    -0.263 NA
ATOM     40  C   UNL     1     -16.236  52.898  40.347  0.00  0.00    +0.111 A 
ENDBRANCH   4   3
ENDBRANCH  10   9
BRANCH  12  13
ATOM     13  N   UNL     1     -26.766  57.492  37.553  0.00  0.00    -0.281 N 
ATOM     14  C   UNL     1     -27.774  56.594  37.246  0.00  0.00    +0.248 C 
ATOM     30  O   UNL     1     -28.001  55.569  37.872  0.00  0.00    -0.270 OA
ATOM     31  H   UNL     1     -26.561  58.196  36.844  0.00  0.00    +0.155 HD
BRANCH  14  15
ATOM     15  C   UNL     1     -28.648  56.865  36.064  0.00  0.00    +0.037 A 
ATOM     16  C   UNL     1     -29.928  57.562  36.209  0.00  0.00    +0.013 A 
ATOM     17  C   UNL     1     -30.759  57.796  35.055  0.00  0.00    +0.005 A 
ATOM     18  C   UNL     1     -30.311  57.333  33.744  0.00  0.00    -0.033 A 
ATOM     28  C   UNL     1     -29.034  56.648  33.628  0.00  0.00    +0.005 A 
ATOM     29  C   UNL     1     -28.217  56.416  34.757  0.00  0.00    +0.013 A 
BRANCH  18  19
ATOM     19  C   UNL     1     -31.143  57.520  32.461  0.00  0.00    +0.119 C 
BRANCH  19  20
ATOM     20  N   UNL     1     -30.446  58.094  31.272  0.00  0.00    -0.302 NA
ATOM     21  C   UNL     1     -29.802  59.448  31.582  0.00  0.00    +0.066 C 
ATOM     22  C   UNL     1     -29.058  60.024  30.333  0.00  0.00    -0.064 C 
ATOM     23  N   UNL     1     -30.041  60.146  29.168  0.00  0.00    +0.379 N 
ATOM     24  C   UNL     1     -29.359  60.741  28.010  0.00  0.00    -0.096 C 
ATOM     25  H   UNL     1     -30.850  60.847  29.481  0.00  0.00    -0.082 HD
ATOM     26  C   UNL     1     -30.689  58.804  28.855  0.00  0.00    -0.064 C 
ATOM     27  C   UNL     1     -31.400  58.228  30.111  0.00  0.00    +0.066 C 
ENDBRANCH  19  20
ENDBRANCH  18  19
ENDBRANCH  14  15
ENDBRANCH  12  13
TORSDOF 6
ENDMDL
MODEL 4
REMARK VINA RESULT:      -9.5      6.712      9.892
REMARK  Name = C:\Users\Docking\Desktop\test protocol\1iep_ligandH.pdb
REMARK  8 active torsions:
REMARK  status: ('A' for Active; 'I' for Inactive)
REMARK    1  A    between atoms: _5  and  _11
REMARK    2  A    between atoms: _19  and  _21
REMARK    3  A    between atoms: _22  and  _66
REMARK    4  A    between atoms: _27  and  _30
REMARK    5  A    between atoms: _32  and  _33
REMARK    6  A    between atoms: _38  and  _43
REMARK    7  A    between atoms: _43  and  _46
REMARK    8  A    between atoms: _53  and  _55
REMARK                            x       y       z     vdW  Elec       q    Type
REMARK                         _______ _______ _______ _____ _____    ______ ____
ROOT
ATOM     10  C   UNL     1     -39.833  56.659  36.104  0.00  0.00    +0.038 A 
ATOM     11  C   UNL     1     -40.255  55.331  35.839  0.00  0.00    +0.047 A 
ATOM     12  C   UNL     1     -41.568  54.862  36.253  0.00  0.00    +0.035 A 
ATOM     32  C   UNL     1     -42.427  55.773  36.934  0.00  0.00    +0.024 A 
ATOM     33  C   UNL     1     -42.014  57.126  37.212  0.00  0.00    +0.007 A 
ATOM     34  C   UNL     1     -40.719  57.594  36.808  0.00  0.00    -0.029 A 
ATOM     35  C   UNL     1     -40.327  59.053  37.139  0.00  0.00    +0.045 C 
ENDROOT
BRANCH  10   9
ATOM      4  C   UNL     1     -36.614  57.609  32.673  0.00  0.00    +0.077 A 
ATOM      5  C   UNL     1     -37.535  57.259  31.630  0.00  0.00    +0.048 A 
ATOM      6  C   UNL     1     -38.824  56.832  32.019  0.00  0.00    +0.116 A 
ATOM      7  N   UNL     1     -39.158  56.765  33.354  0.00  0.00    -0.223 NA
ATOM      8  C   UNL     1     -38.245  57.109  34.335  0.00  0.00    +0.220 A 
ATOM      9  N   UNL     1     -38.562  57.056  35.684  0.00  0.00    -0.283 N 
ATOM     36  H   UNL     1     -37.858  57.311  36.377  0.00  0.00    +0.155 HD
ATOM     37  N   UNL     1     -37.007  57.518  33.989  0.00  0.00    -0.214 NA
BRANCH   4   3
ATOM      1  C   UNL     1     -33.098  58.171  31.053  0.00  0.00    +0.020 A 
ATOM      2  C   UNL     1     -34.445  57.686  31.249  0.00  0.00    +0.013 A 
ATOM      3  C   UNL     1     -35.216  58.082  32.421  0.00  0.00    +0.019 A 
ATOM     38  C   UNL     1     -34.590  58.977  33.383  0.00  0.00    +0.120 A 
ATOM     39  N   UNL     1     -33.291  59.427  33.168  0.00  0.00    -0.263 NA
ATOM     40  C   UNL     1     -32.539  59.051  32.045  0.00  0.00    +0.111 A 
ENDBRANCH   4   3
ENDBRANCH  10   9
BRANCH  12  13
ATOM     13  N   UNL     1     -42.047  53.522  36.019  0.00  0.00    -0.281 N 
ATOM     14  C   UNL     1     -43.078  53.121  35.186  0.00  0.00    +0.248 C 
ATOM     30  O   UNL     1     -43.889  53.879  34.674  0.00  0.00    -0.270 OA
ATOM     31  H   UNL     1     -41.569  52.780  36.530  0.00  0.00    +0.155 HD
BRANCH  14  15
ATOM     15  C   UNL     1     -43.241  51.665  34.889  0.00  0.00    +0.037 A 
ATOM     16  C   UNL     1     -44.198  50.840  35.631  0.00  0.00    +0.013 A 
ATOM     17  C   UNL     1     -44.323  49.435  35.336  0.00  0.00    +0.005 A 
ATOM     18  C   UNL     1     -43.489  48.845  34.291  0.00  0.00    -0.033 A 
ATOM     28  C   UNL     1     -42.552  49.688  33.567  0.00  0.00    +0.005 A 
ATOM     29  C   UNL     1     -42.426  51.065  33.854  0.00  0.00    +0.013 A 
BRANCH  18  19
ATOM     19  C   UNL     1     -43.540  47.351  33.924  0.00  0.00    +0.119 C 
BRANCH  19  20
ATOM     20  N   UNL     1     -44.070  46.996  32.574  0.00  0.00    -0.302 NA
ATOM     21  C   UNL     1     -45.254  46.028  32.657  0.00  0.00    +0.066 C 
ATOM     22  C   UNL     1     -45.810  45.685  31.237  0.00  0.00    -0.064 C 
ATOM     23  N   UNL     1     -44.687  45.096  30.381  0.00  0.00    +0.379 N 
ATOM     24  C   UNL     1     -45.220  44.719  29.064  0.00  0.00    -0.096 C 
ATOM     25  H   UNL     1     -44.334  44.165  30.882  0.00  0.00    -0.082 HD
ATOM     26  C   UNL     1     -43.505  46.051  30.295  0.00  0.00    -0.064 C 
ATOM     27  C   UNL     1     -42.979  46.408  31.713  0.00  0.00    +0.066 C 
ENDBRANCH  19  20
ENDBRANCH  18  19
ENDBRANCH  14  15
ENDBRANCH  12  13
TORSDOF 6
ENDMDL
MODEL 5
REMARK VINA RESULT:      -9.3     16.027     20.757
REMARK  Name = C:\Users\Docking\Desktop\test protocol\1iep_ligandH.pdb
REMARK  8 active torsions:
REMARK  status: ('A' for Active; 'I' for Inactive)
REMARK    1  A    between atoms: _5  and  _11
REMARK    2  A    between atoms: _19  and  _21
REMARK    3  A    between atoms: _22  and  _66
REMARK    4  A    between atoms: _27  and  _30
REMARK    5  A    between atoms: _32  and  _33
REMARK    6  A    between atoms: _38  and  _43
REMARK    7  A    between atoms: _43  and  _46
REMARK    8  A    between atoms: _53  and  _55
REMARK                            x       y       z     vdW  Elec       q    Type
REMARK                         _______ _______ _______ _____ _____    ______ ____
ROOT
ATOM     10  C   UNL     1     -21.467  56.665  38.868  0.00  0.00    +0.038 A 
ATOM     11  C   UNL     1     -21.455  57.252  37.577  0.00  0.00    +0.047 A 
ATOM     12  C   UNL     1     -22.003  58.580  37.349  0.00  0.00    +0.035 A 
ATOM     32  C   UNL     1     -22.552  59.284  38.460  0.00  0.00    +0.024 A 
ATOM     33  C   UNL     1     -22.573  58.703  39.779  0.00  0.00    +0.007 A 
ATOM     34  C   UNL     1     -22.036  57.392  40.009  0.00  0.00    -0.029 A 
ATOM     35  C   UNL     1     -22.091  56.815  41.443  0.00  0.00    +0.045 C 
ENDROOT
BRANCH  10   9
ATOM      4  C   UNL     1     -17.847  53.704  39.946  0.00  0.00    +0.077 A 
ATOM      5  C   UNL     1     -16.946  54.795  40.181  0.00  0.00    +0.048 A 
ATOM      6  C   UNL     1     -17.451  56.103  40.006  0.00  0.00    +0.116 A 
ATOM      7  N   UNL     1     -18.762  56.293  39.626  0.00  0.00    -0.223 NA
ATOM      8  C   UNL     1     -19.604  55.219  39.406  0.00  0.00    +0.220 A 
ATOM      9  N   UNL     1     -20.927  55.387  39.030  0.00  0.00    -0.283 N 
ATOM     36  H   UNL     1     -21.514  54.568  38.870  0.00  0.00    +0.155 HD
ATOM     37  N   UNL     1     -19.144  53.960  39.564  0.00  0.00    -0.214 NA
BRANCH   4   3
ATOM      1  C   UNL     1     -15.780  50.385  40.057  0.00  0.00    +0.020 A 
ATOM      2  C   UNL     1     -16.098  51.785  39.903  0.00  0.00    +0.013 A 
ATOM      3  C   UNL     1     -17.462  52.264  40.093  0.00  0.00    +0.019 A 
ATOM     38  C   UNL     1     -18.488  51.292  40.441  0.00  0.00    +0.120 A 
ATOM     39  N   UNL     1     -18.151  49.950  40.580  0.00  0.00    -0.263 NA
ATOM     40  C   UNL     1     -16.843  49.477  40.399  0.00  0.00    +0.111 A 
ENDBRANCH   4   3
ENDBRANCH  10   9
BRANCH  12  13
ATOM     13  N   UNL     1     -22.026  59.223  36.058  0.00  0.00    -0.281 N 
ATOM     14  C   UNL     1     -20.961  59.759  35.354  0.00  0.00    +0.248 C 
ATOM     30  O   UNL     1     -19.851  59.957  35.826  0.00  0.00    -0.270 OA
ATOM     31  H   UNL     1     -22.940  59.292  35.610  0.00  0.00    +0.155 HD
BRANCH  14  15
ATOM     15  C   UNL     1     -21.160  60.143  33.924  0.00  0.00    +0.037 A 
ATOM     16  C   UNL     1     -21.452  61.527  33.542  0.00  0.00    +0.013 A 
ATOM     17  C   UNL     1     -21.657  61.867  32.156  0.00  0.00    +0.005 A 
ATOM     18  C   UNL     1     -21.569  60.820  31.141  0.00  0.00    -0.033 A 
ATOM     28  C   UNL     1     -21.273  59.456  31.547  0.00  0.00    +0.005 A 
ATOM     29  C   UNL     1     -21.073  59.118  32.905  0.00  0.00    +0.013 A 
BRANCH  18  19
ATOM     19  C   UNL     1     -21.794  61.088  29.641  0.00  0.00    +0.119 C 
BRANCH  19  20
ATOM     20  N   UNL     1     -20.621  60.920  28.733  0.00  0.00    -0.302 NA
ATOM     21  C   UNL     1     -19.337  61.492  29.342  0.00  0.00    +0.066 C 
ATOM     22  C   UNL     1     -18.115  61.288  28.388  0.00  0.00    -0.064 C 
ATOM     23  N   UNL     1     -18.412  61.941  27.037  0.00  0.00    +0.379 N 
ATOM     24  C   UNL     1     -17.242  61.802  26.157  0.00  0.00    -0.096 C 
ATOM     25  H   UNL     1     -18.573  63.030  27.216  0.00  0.00    -0.082 HD
ATOM     26  C   UNL     1     -19.688  61.381  26.426  0.00  0.00    -0.064 C 
ATOM     27  C   UNL     1     -20.891  61.562  27.394  0.00  0.00    +0.066 C 
ENDBRANCH  19  20
ENDBRANCH  18  19
ENDBRANCH  14  15
ENDBRANCH  12  13
TORSDOF 6
ENDMDL
