MODEL 1
REMARK VINA RESULT:      -7.4      0.000      0.000
REMARK  Name = C:\Users\Docking\Desktop\test protocol\1iep_ligandH.pdb
REMARK  8 active torsions:
REMARK  status: ('A' for Active; 'I' for Inactive)
REMARK    1  A    between atoms: _5  and  _11
REMARK    2  A    between atoms: _19  and  _21
REMARK    3  A    between atoms: _22  and  _66
REMARK    4  A    between atoms: _27  and  _30
REMARK    5  A    between atoms: _32  and  _33
REMARK    6  A    between atoms: _38  and  _43
REMARK    7  A    between atoms: _43  and  _46
REMARK    8  A    between atoms: _53  and  _55
REMARK                            x       y       z     vdW  Elec       q    Type
REMARK                         _______ _______ _______ _____ _____    ______ ____
ROOT
ATOM     10  C   UNL     1      15.060  -3.004  17.491  0.00  0.00    +0.038 A 
ATOM     11  C   UNL     1      14.051  -3.988  17.650  0.00  0.00    +0.047 A 
ATOM     12  C   UNL     1      14.365  -5.311  18.169  0.00  0.00    +0.035 A 
ATOM     32  C   UNL     1      15.718  -5.596  18.518  0.00  0.00    +0.024 A 
ATOM     33  C   UNL     1      16.756  -4.607  18.361  0.00  0.00    +0.007 A 
ATOM     34  C   UNL     1      16.452  -3.302  17.848  0.00  0.00    -0.029 A 
ATOM     35  C   UNL     1      17.606  -2.284  17.695  0.00  0.00    +0.045 C 
ENDROOT
BRANCH  10   9
ATOM      4  C   UNL     1      14.408   0.075  13.867  0.00  0.00    +0.077 A 
ATOM      5  C   UNL     1      14.843  -0.886  12.895  0.00  0.00    +0.048 A 
ATOM      6  C   UNL     1      15.232  -2.158  13.369  0.00  0.00    +0.116 A 
ATOM      7  N   UNL     1      15.186  -2.438  14.717  0.00  0.00    -0.223 NA
ATOM      8  C   UNL     1      14.764  -1.488  15.629  0.00  0.00    +0.220 A 
ATOM      9  N   UNL     1      14.702  -1.751  16.989  0.00  0.00    -0.283 N 
ATOM     36  H   UNL     1      14.391  -1.021  17.630  0.00  0.00    +0.155 HD
ATOM     37  N   UNL     1      14.388  -0.265  15.201  0.00  0.00    -0.214 NA
BRANCH   4   3
ATOM      1  C   UNL     1      12.530   3.506  13.888  0.00  0.00    +0.020 A 
ATOM      2  C   UNL     1      12.924   2.168  14.262  0.00  0.00    +0.013 A 
ATOM      3  C   UNL     1      13.962   1.462  13.522  0.00  0.00    +0.019 A 
ATOM     38  C   UNL     1      14.587   2.144  12.399  0.00  0.00    +0.120 A 
ATOM     39  N   UNL     1      14.186   3.433  12.060  0.00  0.00    -0.263 NA
ATOM     40  C   UNL     1      13.187   4.122  12.765  0.00  0.00    +0.111 A 
ENDBRANCH   4   3
ENDBRANCH  10   9
BRANCH  12  13
ATOM     13  N   UNL     1      13.385  -6.353  18.344  0.00  0.00    -0.281 N 
ATOM     14  C   UNL     1      13.554  -7.718  18.179  0.00  0.00    +0.248 C 
ATOM     30  O   UNL     1      14.524  -8.235  17.645  0.00  0.00    -0.270 OA
ATOM     31  H   UNL     1      12.453  -6.048  18.624  0.00  0.00    +0.155 HD
BRANCH  14  15
ATOM     15  C   UNL     1      12.484  -8.642  18.665  0.00  0.00    +0.037 A 
ATOM     16  C   UNL     1      12.240  -9.931  18.013  0.00  0.00    +0.013 A 
ATOM     17  C   UNL     1      11.191 -10.796  18.491  0.00  0.00    +0.005 A 
ATOM     18  C   UNL     1      10.378 -10.375  19.630  0.00  0.00    -0.033 A 
ATOM     28  C   UNL     1      10.645  -9.093  20.261  0.00  0.00    +0.005 A 
ATOM     29  C   UNL     1      11.672  -8.242  19.794  0.00  0.00    +0.013 A 
BRANCH  18  19
ATOM     19  C   UNL     1       9.223 -11.224  20.193  0.00  0.00    +0.119 C 
BRANCH  19  20
ATOM     20  N   UNL     1       8.634 -12.259  19.293  0.00  0.00    -0.302 NA
ATOM     21  C   UNL     1       8.023 -11.643  18.031  0.00  0.00    +0.066 C 
ATOM     22  C   UNL     1       7.430 -12.742  17.090  0.00  0.00    -0.064 C 
ATOM     23  N   UNL     1       6.386 -13.556  17.856  0.00  0.00    +0.379 N 
ATOM     24  C   UNL     1       5.785 -14.552  16.957  0.00  0.00    -0.096 C 
ATOM     25  H   UNL     1       5.578 -12.856  18.173  0.00  0.00    -0.082 HD
ATOM     26  C   UNL     1       6.984 -14.170  19.114  0.00  0.00    -0.064 C 
ATOM     27  C   UNL     1       7.596 -13.072  20.028  0.00  0.00    +0.066 C 
ENDBRANCH  19  20
ENDBRANCH  18  19
ENDBRANCH  14  15
ENDBRANCH  12  13
TORSDOF 6
ENDMDL
MODEL 2
REMARK VINA RESULT:      -7.4     20.639     22.933
REMARK  Name = C:\Users\Docking\Desktop\test protocol\1iep_ligandH.pdb
REMARK  8 active torsions:
REMARK  status: ('A' for Active; 'I' for Inactive)
REMARK    1  A    between atoms: _5  and  _11
REMARK    2  A    between atoms: _19  and  _21
REMARK    3  A    between atoms: _22  and  _66
REMARK    4  A    between atoms: _27  and  _30
REMARK    5  A    between atoms: _32  and  _33
REMARK    6  A    between atoms: _38  and  _43
REMARK    7  A    between atoms: _43  and  _46
REMARK    8  A    between atoms: _53  and  _55
REMARK                            x       y       z     vdW  Elec       q    Type
REMARK                         _______ _______ _______ _____ _____    ______ ____
ROOT
ATOM     10  C   UNL     1      -9.583   1.028  25.395  0.00  0.00    +0.038 A 
ATOM     11  C   UNL     1      -8.498   0.149  25.643  0.00  0.00    +0.047 A 
ATOM     12  C   UNL     1      -8.704  -1.134  26.297  0.00  0.00    +0.035 A 
ATOM     32  C   UNL     1     -10.029  -1.491  26.683  0.00  0.00    +0.024 A 
ATOM     33  C   UNL     1     -11.143  -0.608  26.440  0.00  0.00    +0.007 A 
ATOM     34  C   UNL     1     -10.945   0.660  25.797  0.00  0.00    -0.029 A 
ATOM     35  C   UNL     1     -12.175   1.569  25.568  0.00  0.00    +0.045 C 
ENDROOT
BRANCH  10   9
ATOM      4  C   UNL     1      -8.236   5.635  25.472  0.00  0.00    +0.077 A 
ATOM      5  C   UNL     1      -8.051   5.618  26.894  0.00  0.00    +0.048 A 
ATOM      6  C   UNL     1      -8.320   4.407  27.570  0.00  0.00    +0.116 A 
ATOM      7  N   UNL     1      -8.741   3.300  26.865  0.00  0.00    -0.223 NA
ATOM      8  C   UNL     1      -8.912   3.351  25.493  0.00  0.00    +0.220 A 
ATOM      9  N   UNL     1      -9.328   2.248  24.763  0.00  0.00    -0.283 N 
ATOM     36  H   UNL     1      -9.449   2.328  23.754  0.00  0.00    +0.155 HD
ATOM     37  N   UNL     1      -8.663   4.496  24.826  0.00  0.00    -0.214 NA
BRANCH   4   3
ATOM      1  C   UNL     1      -7.271   7.946  22.468  0.00  0.00    +0.020 A 
ATOM      2  C   UNL     1      -7.491   6.752  23.251  0.00  0.00    +0.013 A 
ATOM      3  C   UNL     1      -7.990   6.839  24.617  0.00  0.00    +0.019 A 
ATOM     38  C   UNL     1      -8.260   8.160  25.165  0.00  0.00    +0.120 A 
ATOM     39  N   UNL     1      -8.037   9.292  24.388  0.00  0.00    -0.263 NA
ATOM     40  C   UNL     1      -7.555   9.221  23.072  0.00  0.00    +0.111 A 
ENDBRANCH   4   3
ENDBRANCH  10   9
BRANCH  12  13
ATOM     13  N   UNL     1      -7.640  -2.065  26.582  0.00  0.00    -0.281 N 
ATOM     14  C   UNL     1      -6.742  -2.035  27.636  0.00  0.00    +0.248 C 
ATOM     30  O   UNL     1      -6.582  -1.079  28.380  0.00  0.00    -0.270 OA
ATOM     31  H   UNL     1      -7.537  -2.840  25.927  0.00  0.00    +0.155 HD
BRANCH  14  15
ATOM     15  C   UNL     1      -5.889  -3.236  27.892  0.00  0.00    +0.037 A 
ATOM     16  C   UNL     1      -4.746  -3.553  27.033  0.00  0.00    +0.013 A 
ATOM     17  C   UNL     1      -3.950  -4.727  27.292  0.00  0.00    +0.005 A 
ATOM     18  C   UNL     1      -4.295  -5.591  28.418  0.00  0.00    -0.033 A 
ATOM     28  C   UNL     1      -5.431  -5.249  29.258  0.00  0.00    +0.005 A 
ATOM     29  C   UNL     1      -6.214  -4.101  29.007  0.00  0.00    +0.013 A 
BRANCH  18  19
ATOM     19  C   UNL     1      -3.514  -6.875  28.757  0.00  0.00    +0.119 C 
BRANCH  19  20
ATOM     20  N   UNL     1      -3.519  -7.967  27.738  0.00  0.00    -0.302 NA
ATOM     21  C   UNL     1      -3.787  -9.337  28.366  0.00  0.00    +0.066 C 
ATOM     22  C   UNL     1      -3.811 -10.465  27.283  0.00  0.00    -0.064 C 
ATOM     23  N   UNL     1      -2.483 -10.467  26.524  0.00  0.00    +0.379 N 
ATOM     24  C   UNL     1      -2.481 -11.564  25.544  0.00  0.00    -0.096 C 
ATOM     25  H   UNL     1      -1.673 -10.671  27.262  0.00  0.00    -0.082 HD
ATOM     26  C   UNL     1      -2.208  -9.107  25.898  0.00  0.00    -0.064 C 
ATOM     27  C   UNL     1      -2.215  -7.990  26.979  0.00  0.00    +0.066 C 
ENDBRANCH  19  20
ENDBRANCH  18  19
ENDBRANCH  14  15
ENDBRANCH  12  13
TORSDOF 6
ENDMDL
MODEL 3
REMARK VINA RESULT:      -7.4     15.780     21.151
REMARK  Name = C:\Users\Docking\Desktop\test protocol\1iep_ligandH.pdb
REMARK  8 active torsions:
REMARK  status: ('A' for Active; 'I' for Inactive)
REMARK    1  A    between atoms: _5  and  _11
REMARK    2  A    between atoms: _19  and  _21
REMARK    3  A    between atoms: _22  and  _66
REMARK    4  A    between atoms: _27  and  _30
REMARK    5  A    between atoms: _32  and  _33
REMARK    6  A    between atoms: _38  and  _43
REMARK    7  A    between atoms: _43  and  _46
REMARK    8  A    between atoms: _53  and  _55
REMARK                            x       y       z     vdW  Elec       q    Type
REMARK                         _______ _______ _______ _____ _____    ______ ____
ROOT
ATOM     10  C   UNL     1      -2.816  -2.233  27.889  0.00  0.00    +0.038 A 
ATOM     11  C   UNL     1      -1.548  -1.724  28.268  0.00  0.00    +0.047 A 
ATOM     12  C   UNL     1      -1.417  -0.415  28.888  0.00  0.00    +0.035 A 
ATOM     32  C   UNL     1      -2.600   0.349  29.110  0.00  0.00    +0.024 A 
ATOM     33  C   UNL     1      -3.897  -0.152  28.730  0.00  0.00    +0.007 A 
ATOM     34  C   UNL     1      -4.032  -1.442  28.116  0.00  0.00    -0.029 A 
ATOM     35  C   UNL     1      -5.447  -1.927  27.723  0.00  0.00    +0.045 C 
ENDROOT
BRANCH  10   9
ATOM      4  C   UNL     1      -3.141  -7.015  28.147  0.00  0.00    +0.077 A 
ATOM      5  C   UNL     1      -3.150  -6.996  29.581  0.00  0.00    +0.048 A 
ATOM      6  C   UNL     1      -3.062  -5.736  30.214  0.00  0.00    +0.116 A 
ATOM      7  N   UNL     1      -2.973  -4.587  29.459  0.00  0.00    -0.223 NA
ATOM      8  C   UNL     1      -2.965  -4.640  28.077  0.00  0.00    +0.220 A 
ATOM      9  N   UNL     1      -2.884  -3.496  27.298  0.00  0.00    -0.283 N 
ATOM     36  H   UNL     1      -2.874  -3.579  26.282  0.00  0.00    +0.155 HD
ATOM     37  N   UNL     1      -3.047  -5.831  27.449  0.00  0.00    -0.214 NA
BRANCH   4   3
ATOM      1  C   UNL     1      -2.468  -9.778  25.461  0.00  0.00    +0.020 A 
ATOM      2  C   UNL     1      -2.340  -8.552  26.215  0.00  0.00    +0.013 A 
ATOM      3  C   UNL     1      -3.231  -8.268  27.333  0.00  0.00    +0.019 A 
ATOM     38  C   UNL     1      -4.249  -9.253  27.665  0.00  0.00    +0.120 A 
ATOM     39  N   UNL     1      -4.350 -10.425  26.920  0.00  0.00    -0.263 NA
ATOM     40  C   UNL     1      -3.499 -10.708  25.842  0.00  0.00    +0.111 A 
ENDBRANCH   4   3
ENDBRANCH  10   9
BRANCH  12  13
ATOM     13  N   UNL     1      -0.155   0.157  29.287  0.00  0.00    -0.281 N 
ATOM     14  C   UNL     1       0.760  -0.348  30.196  0.00  0.00    +0.248 C 
ATOM     30  O   UNL     1       0.532  -1.267  30.968  0.00  0.00    -0.270 OA
ATOM     31  H   UNL     1       0.094   1.042  28.845  0.00  0.00    +0.155 HD
BRANCH  14  15
ATOM     15  C   UNL     1       2.121   0.266  30.268  0.00  0.00    +0.037 A 
ATOM     16  C   UNL     1       3.284  -0.512  30.701  0.00  0.00    +0.013 A 
ATOM     17  C   UNL     1       4.582   0.109  30.778  0.00  0.00    +0.005 A 
ATOM     18  C   UNL     1       4.724   1.519  30.419  0.00  0.00    -0.033 A 
ATOM     28  C   UNL     1       3.554   2.266  29.989  0.00  0.00    +0.005 A 
ATOM     29  C   UNL     1       2.280   1.661  29.913  0.00  0.00    +0.013 A 
BRANCH  18  19
ATOM     19  C   UNL     1       6.067   2.269  30.492  0.00  0.00    +0.119 C 
BRANCH  19  20
ATOM     20  N   UNL     1       6.979   2.155  29.315  0.00  0.00    -0.302 NA
ATOM     21  C   UNL     1       7.972   0.999  29.467  0.00  0.00    +0.066 C 
ATOM     22  C   UNL     1       8.903   0.880  28.217  0.00  0.00    -0.064 C 
ATOM     23  N   UNL     1       9.640   2.203  28.006  0.00  0.00    +0.379 N 
ATOM     24  C   UNL     1      10.560   2.076  26.866  0.00  0.00    -0.096 C 
ATOM     25  H   UNL     1      10.254   2.397  28.916  0.00  0.00    -0.082 HD
ATOM     26  C   UNL     1       8.660   3.359  27.856  0.00  0.00    -0.064 C 
ATOM     27  C   UNL     1       7.721   3.450  29.091  0.00  0.00    +0.066 C 
ENDBRANCH  19  20
ENDBRANCH  18  19
ENDBRANCH  14  15
ENDBRANCH  12  13
TORSDOF 6
ENDMDL
MODEL 4
REMARK VINA RESULT:      -7.4     18.099     22.517
REMARK  Name = C:\Users\Docking\Desktop\test protocol\1iep_ligandH.pdb
REMARK  8 active torsions:
REMARK  status: ('A' for Active; 'I' for Inactive)
REMARK    1  A    between atoms: _5  and  _11
REMARK    2  A    between atoms: _19  and  _21
REMARK    3  A    between atoms: _22  and  _66
REMARK    4  A    between atoms: _27  and  _30
REMARK    5  A    between atoms: _32  and  _33
REMARK    6  A    between atoms: _38  and  _43
REMARK    7  A    between atoms: _43  and  _46
REMARK    8  A    between atoms: _53  and  _55
REMARK                            x       y       z     vdW  Elec       q    Type
REMARK                         _______ _______ _______ _____ _____    ______ ____
ROOT
ATOM     10  C   UNL     1      -1.397  -5.883  28.116  0.00  0.00    +0.038 A 
ATOM     11  C   UNL     1      -2.190  -4.716  27.974  0.00  0.00    +0.047 A 
ATOM     12  C   UNL     1      -2.291  -3.740  29.048  0.00  0.00    +0.035 A 
ATOM     32  C   UNL     1      -1.569  -3.984  30.253  0.00  0.00    +0.024 A 
ATOM     33  C   UNL     1      -0.760  -5.166  30.415  0.00  0.00    +0.007 A 
ATOM     34  C   UNL     1      -0.658  -6.134  29.359  0.00  0.00    -0.029 A 
ATOM     35  C   UNL     1       0.219  -7.386  29.590  0.00  0.00    +0.045 C 
ENDROOT
BRANCH  10   9
ATOM      4  C   UNL     1      -3.036  -9.691  25.696  0.00  0.00    +0.077 A 
ATOM      5  C   UNL     1      -4.088  -9.916  26.646  0.00  0.00    +0.048 A 
ATOM      6  C   UNL     1      -4.168  -9.033  27.746  0.00  0.00    +0.116 A 
ATOM      7  N   UNL     1      -3.259  -8.006  27.877  0.00  0.00    -0.223 NA
ATOM      8  C   UNL     1      -2.256  -7.818  26.945  0.00  0.00    +0.220 A 
ATOM      9  N   UNL     1      -1.336  -6.787  27.052  0.00  0.00    -0.283 N 
ATOM     36  H   UNL     1      -0.606  -6.686  26.347  0.00  0.00    +0.155 HD
ATOM     37  N   UNL     1      -2.157  -8.648  25.885  0.00  0.00    -0.214 NA
BRANCH   4   3
ATOM      1  C   UNL     1      -3.337 -11.201  22.101  0.00  0.00    +0.020 A 
ATOM      2  C   UNL     1      -3.583 -10.358  23.248  0.00  0.00    +0.013 A 
ATOM      3  C   UNL     1      -2.823 -10.536  24.479  0.00  0.00    +0.019 A 
ATOM     38  C   UNL     1      -1.813 -11.583  24.516  0.00  0.00    +0.120 A 
ATOM     39  N   UNL     1      -1.600 -12.380  23.396  0.00  0.00    -0.263 NA
ATOM     40  C   UNL     1      -2.326 -12.220  22.206  0.00  0.00    +0.111 A 
ENDBRANCH   4   3
ENDBRANCH  10   9
BRANCH  12  13
ATOM     13  N   UNL     1      -3.086  -2.540  28.965  0.00  0.00    -0.281 N 
ATOM     14  C   UNL     1      -2.995  -1.521  28.031  0.00  0.00    +0.248 C 
ATOM     30  O   UNL     1      -2.068  -1.384  27.246  0.00  0.00    -0.270 OA
ATOM     31  H   UNL     1      -3.804  -2.429  29.681  0.00  0.00    +0.155 HD
BRANCH  14  15
ATOM     15  C   UNL     1      -4.084  -0.499  27.968  0.00  0.00    +0.037 A 
ATOM     16  C   UNL     1      -3.820   0.864  27.502  0.00  0.00    +0.013 A 
ATOM     17  C   UNL     1      -4.884   1.836  27.468  0.00  0.00    +0.005 A 
ATOM     18  C   UNL     1      -6.224   1.446  27.901  0.00  0.00    -0.033 A 
ATOM     28  C   UNL     1      -6.459   0.085  28.355  0.00  0.00    +0.005 A 
ATOM     29  C   UNL     1      -5.418  -0.870  28.390  0.00  0.00    +0.013 A 
BRANCH  18  19
ATOM     19  C   UNL     1      -7.415   2.422  27.919  0.00  0.00    +0.119 C 
BRANCH  19  20
ATOM     20  N   UNL     1      -7.954   2.866  26.599  0.00  0.00    -0.302 NA
ATOM     21  C   UNL     1      -7.725   4.361  26.358  0.00  0.00    +0.066 C 
ATOM     22  C   UNL     1      -8.275   4.804  24.963  0.00  0.00    -0.064 C 
ATOM     23  N   UNL     1      -9.764   4.463  24.874  0.00  0.00    +0.379 N 
ATOM     24  C   UNL     1     -10.298   4.931  23.586  0.00  0.00    -0.096 C 
ATOM     25  H   UNL     1     -10.288   5.025  25.682  0.00  0.00    -0.082 HD
ATOM     26  C   UNL     1     -10.002   2.979  25.115  0.00  0.00    -0.064 C 
ATOM     27  C   UNL     1      -9.425   2.544  26.491  0.00  0.00    +0.066 C 
ENDBRANCH  19  20
ENDBRANCH  18  19
ENDBRANCH  14  15
ENDBRANCH  12  13
TORSDOF 6
ENDMDL
MODEL 5
REMARK VINA RESULT:      -7.3     15.817     17.357
REMARK  Name = C:\Users\Docking\Desktop\test protocol\1iep_ligandH.pdb
REMARK  8 active torsions:
REMARK  status: ('A' for Active; 'I' for Inactive)
REMARK    1  A    between atoms: _5  and  _11
REMARK    2  A    between atoms: _19  and  _21
REMARK    3  A    between atoms: _22  and  _66
REMARK    4  A    between atoms: _27  and  _30
REMARK    5  A    between atoms: _32  and  _33
REMARK    6  A    between atoms: _38  and  _43
REMARK    7  A    between atoms: _43  and  _46
REMARK    8  A    between atoms: _53  and  _55
REMARK                            x       y       z     vdW  Elec       q    Type
REMARK                         _______ _______ _______ _____ _____    ______ ____
ROOT
ATOM     10  C   UNL     1       1.818   4.199  29.421  0.00  0.00    +0.038 A 
ATOM     11  C   UNL     1       2.593   3.013  29.351  0.00  0.00    +0.047 A 
ATOM     12  C   UNL     1       2.244   1.838  30.135  0.00  0.00    +0.035 A 
ATOM     32  C   UNL     1       1.097   1.906  30.979  0.00  0.00    +0.024 A 
ATOM     33  C   UNL     1       0.299   3.104  31.063  0.00  0.00    +0.007 A 
ATOM     34  C   UNL     1       0.640   4.266  30.293  0.00  0.00    -0.029 A 
ATOM     35  C   UNL     1      -0.248   5.525  30.428  0.00  0.00    +0.045 C 
ENDROOT
BRANCH  10   9
ATOM      4  C   UNL     1       4.600   8.015  28.566  0.00  0.00    +0.077 A 
ATOM      5  C   UNL     1       5.340   7.822  29.780  0.00  0.00    +0.048 A 
ATOM      6  C   UNL     1       4.969   6.733  30.600  0.00  0.00    +0.116 A 
ATOM      7  N   UNL     1       3.933   5.905  30.224  0.00  0.00    -0.223 NA
ATOM      8  C   UNL     1       3.239   6.121  29.047  0.00  0.00    +0.220 A 
ATOM      9  N   UNL     1       2.199   5.296  28.646  0.00  0.00    -0.283 N 
ATOM     36  H   UNL     1       1.707   5.494  27.775  0.00  0.00    +0.155 HD
ATOM     37  N   UNL     1       3.573   7.155  28.248  0.00  0.00    -0.214 NA
BRANCH   4   3
ATOM      1  C   UNL     1       4.170  10.746  25.799  0.00  0.00    +0.020 A 
ATOM      2  C   UNL     1       3.852   9.679  26.720  0.00  0.00    +0.013 A 
ATOM      3  C   UNL     1       4.876   9.120  27.594  0.00  0.00    +0.019 A 
ATOM     38  C   UNL     1       6.221   9.667  27.511  0.00  0.00    +0.120 A 
ATOM     39  N   UNL     1       6.499  10.693  26.613  0.00  0.00    -0.263 NA
ATOM     40  C   UNL     1       5.522  11.238  25.766  0.00  0.00    +0.111 A 
ENDBRANCH   4   3
ENDBRANCH  10   9
BRANCH  12  13
ATOM     13  N   UNL     1       2.998   0.609  30.111  0.00  0.00    -0.281 N 
ATOM     14  C   UNL     1       3.670   0.002  31.159  0.00  0.00    +0.248 C 
ATOM     30  O   UNL     1       3.905   0.538  32.232  0.00  0.00    -0.270 OA
ATOM     31  H   UNL     1       3.041   0.128  29.213  0.00  0.00    +0.155 HD
BRANCH  14  15
ATOM     15  C   UNL     1       4.166  -1.397  30.985  0.00  0.00    +0.037 A 
ATOM     16  C   UNL     1       3.237  -2.519  30.831  0.00  0.00    +0.013 A 
ATOM     17  C   UNL     1       3.742  -3.861  30.682  0.00  0.00    +0.005 A 
ATOM     18  C   UNL     1       5.185  -4.087  30.684  0.00  0.00    -0.033 A 
ATOM     28  C   UNL     1       6.085  -2.956  30.833  0.00  0.00    +0.005 A 
ATOM     29  C   UNL     1       5.593  -1.639  30.981  0.00  0.00    +0.013 A 
BRANCH  18  19
ATOM     19  C   UNL     1       5.812  -5.488  30.551  0.00  0.00    +0.119 C 
BRANCH  19  20
ATOM     20  N   UNL     1       6.294  -5.896  29.198  0.00  0.00    -0.302 NA
ATOM     21  C   UNL     1       7.318  -4.909  28.631  0.00  0.00    +0.066 C 
ATOM     22  C   UNL     1       7.829  -5.363  27.225  0.00  0.00    -0.064 C 
ATOM     23  N   UNL     1       6.637  -5.512  26.277  0.00  0.00    +0.379 N 
ATOM     24  C   UNL     1       7.119  -5.883  24.938  0.00  0.00    -0.096 C 
ATOM     25  H   UNL     1       6.144  -4.516  26.195  0.00  0.00    -0.082 HD
ATOM     26  C   UNL     1       5.613  -6.490  26.834  0.00  0.00    -0.064 C 
ATOM     27  C   UNL     1       5.134  -6.045  28.244  0.00  0.00    +0.066 C 
ENDBRANCH  19  20
ENDBRANCH  18  19
ENDBRANCH  14  15
ENDBRANCH  12  13
TORSDOF 6
ENDMDL
