MODEL 1
REMARK VINA RESULT:      -9.9      0.000      0.000
REMARK  Name = C:\Users\Docking\Desktop\test protocol\1iep_ligandH.pdb
REMARK  8 active torsions:
REMARK  status: ('A' for Active; 'I' for Inactive)
REMARK    1  A    between atoms: _5  and  _11
REMARK    2  A    between atoms: _19  and  _21
REMARK    3  A    between atoms: _22  and  _66
REMARK    4  A    between atoms: _27  and  _30
REMARK    5  A    between atoms: _32  and  _33
REMARK    6  A    between atoms: _38  and  _43
REMARK    7  A    between atoms: _43  and  _46
REMARK    8  A    between atoms: _53  and  _55
REMARK                            x       y       z     vdW  Elec       q    Type
REMARK                         _______ _______ _______ _____ _____    ______ ____
ROOT
ATOM     10  C   UNL     1      17.713   5.924  30.412  0.00  0.00    +0.038 A 
ATOM     11  C   UNL     1      18.267   6.597  31.530  0.00  0.00    +0.047 A 
ATOM     12  C   UNL     1      19.596   6.272  32.022  0.00  0.00    +0.035 A 
ATOM     32  C   UNL     1      20.335   5.255  31.349  0.00  0.00    +0.024 A 
ATOM     33  C   UNL     1      19.787   4.559  30.212  0.00  0.00    +0.007 A 
ATOM     34  C   UNL     1      18.475   4.875  29.724  0.00  0.00    -0.029 A 
ATOM     35  C   UNL     1      17.935   4.092  28.504  0.00  0.00    +0.045 C 
ENDROOT
BRANCH  10   9
ATOM      4  C   UNL     1      12.934   5.501  30.555  0.00  0.00    +0.077 A 
ATOM      5  C   UNL     1      12.996   4.471  31.552  0.00  0.00    +0.048 A 
ATOM      6  C   UNL     1      14.277   4.073  31.995  0.00  0.00    +0.116 A 
ATOM      7  N   UNL     1      15.405   4.669  31.475  0.00  0.00    -0.223 NA
ATOM      8  C   UNL     1      15.310   5.658  30.514  0.00  0.00    +0.220 A 
ATOM      9  N   UNL     1      16.432   6.277  29.982  0.00  0.00    -0.283 N 
ATOM     36  H   UNL     1      16.320   6.997  29.270  0.00  0.00    +0.155 HD
ATOM     37  N   UNL     1      14.098   6.055  30.073  0.00  0.00    -0.214 NA
BRANCH   4   3
ATOM      1  C   UNL     1       9.305   5.740  29.115  0.00  0.00    +0.020 A 
ATOM      2  C   UNL     1      10.519   5.177  29.660  0.00  0.00    +0.013 A 
ATOM      3  C   UNL     1      11.654   6.031  29.988  0.00  0.00    +0.019 A 
ATOM     38  C   UNL     1      11.526   7.461  29.753  0.00  0.00    +0.120 A 
ATOM     39  N   UNL     1      10.345   7.975  29.225  0.00  0.00    -0.263 NA
ATOM     40  C   UNL     1       9.247   7.163  28.904  0.00  0.00    +0.111 A 
ENDBRANCH   4   3
ENDBRANCH  10   9
BRANCH  12  13
ATOM     13  N   UNL     1      20.208   6.916  33.158  0.00  0.00    -0.281 N 
ATOM     14  C   UNL     1      19.997   6.655  34.502  0.00  0.00    +0.248 C 
ATOM     30  O   UNL     1      19.085   5.967  34.937  0.00  0.00    -0.270 OA
ATOM     31  H   UNL     1      20.878   7.656  32.945  0.00  0.00    +0.155 HD
BRANCH  14  15
ATOM     15  C   UNL     1      20.924   7.255  35.509  0.00  0.00    +0.037 A 
ATOM     16  C   UNL     1      20.605   8.520  36.175  0.00  0.00    +0.013 A 
ATOM     17  C   UNL     1      21.525   9.087  37.130  0.00  0.00    +0.005 A 
ATOM     18  C   UNL     1      22.772   8.386  37.425  0.00  0.00    -0.033 A 
ATOM     28  C   UNL     1      23.061   7.129  36.754  0.00  0.00    +0.005 A 
ATOM     29  C   UNL     1      22.162   6.572  35.816  0.00  0.00    +0.013 A 
BRANCH  18  19
ATOM     19  C   UNL     1      23.821   8.927  38.414  0.00  0.00    +0.119 C 
BRANCH  19  20
ATOM     20  N   UNL     1      24.514   7.933  39.288  0.00  0.00    -0.302 NA
ATOM     21  C   UNL     1      25.140   8.590  40.521  0.00  0.00    +0.066 C 
ATOM     22  C   UNL     1      25.841   7.533  41.435  0.00  0.00    -0.064 C 
ATOM     23  N   UNL     1      26.900   6.784  40.624  0.00  0.00    +0.379 N 
ATOM     24  C   UNL     1      27.601   5.829  41.496  0.00  0.00    -0.096 C 
ATOM     25  H   UNL     1      27.647   7.532  40.272  0.00  0.00    -0.082 HD
ATOM     26  C   UNL     1      26.286   6.129  39.395  0.00  0.00    -0.064 C 
ATOM     27  C   UNL     1      25.567   7.184  38.508  0.00  0.00    +0.066 C 
ENDBRANCH  19  20
ENDBRANCH  18  19
ENDBRANCH  14  15
ENDBRANCH  12  13
TORSDOF 6
ENDMDL
MODEL 2
REMARK VINA RESULT:      -9.8      4.399     11.573
REMARK  Name = C:\Users\Docking\Desktop\test protocol\1iep_ligandH.pdb
REMARK  8 active torsions:
REMARK  status: ('A' for Active; 'I' for Inactive)
REMARK    1  A    between atoms: _5  and  _11
REMARK    2  A    between atoms: _19  and  _21
REMARK    3  A    between atoms: _22  and  _66
REMARK    4  A    between atoms: _27  and  _30
REMARK    5  A    between atoms: _32  and  _33
REMARK    6  A    between atoms: _38  and  _43
REMARK    7  A    between atoms: _43  and  _46
REMARK    8  A    between atoms: _53  and  _55
REMARK                            x       y       z     vdW  Elec       q    Type
REMARK                         _______ _______ _______ _____ _____    ______ ____
ROOT
ATOM     10  C   UNL     1      21.298   9.155  37.355  0.00  0.00    +0.038 A 
ATOM     11  C   UNL     1      20.811   8.532  36.178  0.00  0.00    +0.047 A 
ATOM     12  C   UNL     1      21.385   7.285  35.694  0.00  0.00    +0.035 A 
ATOM     32  C   UNL     1      22.451   6.699  36.437  0.00  0.00    +0.024 A 
ATOM     33  C   UNL     1      22.958   7.319  37.635  0.00  0.00    +0.007 A 
ATOM     34  C   UNL     1      22.398   8.550  38.116  0.00  0.00    -0.029 A 
ATOM     35  C   UNL     1      22.986   9.174  39.403  0.00  0.00    +0.045 C 
ENDROOT
BRANCH  10   9
ATOM      4  C   UNL     1      18.287  11.642  40.146  0.00  0.00    +0.077 A 
ATOM      5  C   UNL     1      17.825  10.456  40.807  0.00  0.00    +0.048 A 
ATOM      6  C   UNL     1      18.383   9.224  40.394  0.00  0.00    +0.116 A 
ATOM      7  N   UNL     1      19.331   9.194  39.394  0.00  0.00    -0.223 NA
ATOM      8  C   UNL     1      19.753  10.357  38.776  0.00  0.00    +0.220 A 
ATOM      9  N   UNL     1      20.710  10.351  37.774  0.00  0.00    -0.283 N 
ATOM     36  H   UNL     1      20.990  11.229  37.338  0.00  0.00    +0.155 HD
ATOM     37  N   UNL     1      19.235  11.545  39.151  0.00  0.00    -0.214 NA
BRANCH   4   3
ATOM      1  C   UNL     1      15.979  14.656  41.089  0.00  0.00    +0.020 A 
ATOM      2  C   UNL     1      16.401  13.309  40.780  0.00  0.00    +0.013 A 
ATOM      3  C   UNL     1      17.796  13.018  40.472  0.00  0.00    +0.019 A 
ATOM     38  C   UNL     1      18.745  14.121  40.487  0.00  0.00    +0.120 A 
ATOM     39  N   UNL     1      18.309  15.408  40.787  0.00  0.00    -0.263 NA
ATOM     40  C   UNL     1      16.969  15.700  41.083  0.00  0.00    +0.111 A 
ENDBRANCH   4   3
ENDBRANCH  10   9
BRANCH  12  13
ATOM     13  N   UNL     1      20.938   6.611  34.501  0.00  0.00    -0.281 N 
ATOM     14  C   UNL     1      19.693   6.055  34.252  0.00  0.00    +0.248 C 
ATOM     30  O   UNL     1      18.839   5.865  35.104  0.00  0.00    -0.270 OA
ATOM     31  H   UNL     1      21.621   6.534  33.748  0.00  0.00    +0.155 HD
BRANCH  14  15
ATOM     15  C   UNL     1      19.355   5.637  32.857  0.00  0.00    +0.037 A 
ATOM     16  C   UNL     1      20.393   5.192  31.924  0.00  0.00    +0.013 A 
ATOM     17  C   UNL     1      20.042   4.811  30.579  0.00  0.00    +0.005 A 
ATOM     18  C   UNL     1      18.644   4.872  30.160  0.00  0.00    -0.033 A 
ATOM     28  C   UNL     1      17.633   5.312  31.107  0.00  0.00    +0.005 A 
ATOM     29  C   UNL     1      17.974   5.688  32.426  0.00  0.00    +0.013 A 
BRANCH  18  19
ATOM     19  C   UNL     1      18.181   4.504  28.738  0.00  0.00    +0.119 C 
BRANCH  19  20
ATOM     20  N   UNL     1      19.182   4.634  27.637  0.00  0.00    -0.302 NA
ATOM     21  C   UNL     1      19.638   6.083  27.444  0.00  0.00    +0.066 C 
ATOM     22  C   UNL     1      20.702   6.197  26.304  0.00  0.00    -0.064 C 
ATOM     23  N   UNL     1      20.118   5.635  25.007  0.00  0.00    +0.379 N 
ATOM     24  C   UNL     1      21.095   5.794  23.920  0.00  0.00    -0.096 C 
ATOM     25  H   UNL     1      19.221   6.245  24.748  0.00  0.00    -0.082 HD
ATOM     26  C   UNL     1      19.659   4.196  25.191  0.00  0.00    -0.064 C 
ATOM     27  C   UNL     1      18.624   4.089  26.346  0.00  0.00    +0.066 C 
ENDBRANCH  19  20
ENDBRANCH  18  19
ENDBRANCH  14  15
ENDBRANCH  12  13
TORSDOF 6
ENDMDL
MODEL 3
REMARK VINA RESULT:      -9.6      3.884      6.082
REMARK  Name = C:\Users\Docking\Desktop\test protocol\1iep_ligandH.pdb
REMARK  8 active torsions:
REMARK  status: ('A' for Active; 'I' for Inactive)
REMARK    1  A    between atoms: _5  and  _11
REMARK    2  A    between atoms: _19  and  _21
REMARK    3  A    between atoms: _22  and  _66
REMARK    4  A    between atoms: _27  and  _30
REMARK    5  A    between atoms: _32  and  _33
REMARK    6  A    between atoms: _38  and  _43
REMARK    7  A    between atoms: _43  and  _46
REMARK    8  A    between atoms: _53  and  _55
REMARK                            x       y       z     vdW  Elec       q    Type
REMARK                         _______ _______ _______ _____ _____    ______ ____
ROOT
ATOM     10  C   UNL     1      17.625   4.797  32.169  0.00  0.00    +0.038 A 
ATOM     11  C   UNL     1      18.493   5.570  32.981  0.00  0.00    +0.047 A 
ATOM     12  C   UNL     1      18.402   5.530  34.432  0.00  0.00    +0.035 A 
ATOM     32  C   UNL     1      17.415   4.688  35.024  0.00  0.00    +0.024 A 
ATOM     33  C   UNL     1      16.524   3.896  34.214  0.00  0.00    +0.007 A 
ATOM     34  C   UNL     1      16.607   3.934  32.782  0.00  0.00    -0.029 A 
ATOM     35  C   UNL     1      15.621   3.069  31.963  0.00  0.00    +0.045 C 
ENDROOT
BRANCH  10   9
ATOM      4  C   UNL     1      20.022   6.065  28.209  0.00  0.00    +0.077 A 
ATOM      5  C   UNL     1      21.090   6.646  28.971  0.00  0.00    +0.048 A 
ATOM      6  C   UNL     1      20.980   6.605  30.379  0.00  0.00    +0.116 A 
ATOM      7  N   UNL     1      19.881   6.022  30.971  0.00  0.00    -0.223 NA
ATOM      8  C   UNL     1      18.868   5.472  30.207  0.00  0.00    +0.220 A 
ATOM      9  N   UNL     1      17.756   4.874  30.781  0.00  0.00    -0.283 N 
ATOM     36  H   UNL     1      17.027   4.486  30.183  0.00  0.00    +0.155 HD
ATOM     37  N   UNL     1      18.948   5.500  28.861  0.00  0.00    -0.214 NA
BRANCH   4   3
ATOM      1  C   UNL     1      21.103   6.180  24.452  0.00  0.00    +0.020 A 
ATOM      2  C   UNL     1      21.183   6.226  25.894  0.00  0.00    +0.013 A 
ATOM      3  C   UNL     1      19.995   6.028  26.713  0.00  0.00    +0.019 A 
ATOM     38  C   UNL     1      18.729   5.783  26.037  0.00  0.00    +0.120 A 
ATOM     39  N   UNL     1      18.682   5.746  24.647  0.00  0.00    -0.263 NA
ATOM     40  C   UNL     1      19.819   5.936  23.848  0.00  0.00    +0.111 A 
ENDBRANCH   4   3
ENDBRANCH  10   9
BRANCH  12  13
ATOM     13  N   UNL     1      19.251   6.299  35.308  0.00  0.00    -0.281 N 
ATOM     14  C   UNL     1      20.583   6.633  35.124  0.00  0.00    +0.248 C 
ATOM     30  O   UNL     1      21.310   6.138  34.276  0.00  0.00    -0.270 OA
ATOM     31  H   UNL     1      18.818   6.638  36.167  0.00  0.00    +0.155 HD
BRANCH  14  15
ATOM     15  C   UNL     1      21.201   7.655  36.023  0.00  0.00    +0.037 A 
ATOM     16  C   UNL     1      20.393   8.703  36.652  0.00  0.00    +0.013 A 
ATOM     17  C   UNL     1      21.017   9.686  37.501  0.00  0.00    +0.005 A 
ATOM     18  C   UNL     1      22.459   9.625  37.727  0.00  0.00    -0.033 A 
ATOM     28  C   UNL     1      23.236   8.572  37.095  0.00  0.00    +0.005 A 
ATOM     29  C   UNL     1      22.628   7.607  36.262  0.00  0.00    +0.013 A 
BRANCH  18  19
ATOM     19  C   UNL     1      23.212  10.646  38.601  0.00  0.00    +0.119 C 
BRANCH  19  20
ATOM     20  N   UNL     1      22.433  11.336  39.671  0.00  0.00    -0.302 NA
ATOM     21  C   UNL     1      23.013  12.713  40.006  0.00  0.00    +0.066 C 
ATOM     22  C   UNL     1      22.172  13.432  41.112  0.00  0.00    -0.064 C 
ATOM     23  N   UNL     1      22.117  12.549  42.360  0.00  0.00    +0.379 N 
ATOM     24  C   UNL     1      21.376  13.247  43.421  0.00  0.00    -0.096 C 
ATOM     25  H   UNL     1      23.162  12.403  42.717  0.00  0.00    -0.082 HD
ATOM     26  C   UNL     1      21.544  11.177  42.035  0.00  0.00    -0.064 C 
ATOM     27  C   UNL     1      22.369  10.484  40.915  0.00  0.00    +0.066 C 
ENDBRANCH  19  20
ENDBRANCH  18  19
ENDBRANCH  14  15
ENDBRANCH  12  13
TORSDOF 6
ENDMDL
MODEL 4
REMARK VINA RESULT:      -9.4      1.807      2.529
REMARK  Name = C:\Users\Docking\Desktop\test protocol\1iep_ligandH.pdb
REMARK  8 active torsions:
REMARK  status: ('A' for Active; 'I' for Inactive)
REMARK    1  A    between atoms: _5  and  _11
REMARK    2  A    between atoms: _19  and  _21
REMARK    3  A    between atoms: _22  and  _66
REMARK    4  A    between atoms: _27  and  _30
REMARK    5  A    between atoms: _32  and  _33
REMARK    6  A    between atoms: _38  and  _43
REMARK    7  A    between atoms: _43  and  _46
REMARK    8  A    between atoms: _53  and  _55
REMARK                            x       y       z     vdW  Elec       q    Type
REMARK                         _______ _______ _______ _____ _____    ______ ____
ROOT
ATOM     10  C   UNL     1      17.693   5.717  30.728  0.00  0.00    +0.038 A 
ATOM     11  C   UNL     1      18.233   6.400  31.848  0.00  0.00    +0.047 A 
ATOM     12  C   UNL     1      19.644   6.294  32.185  0.00  0.00    +0.035 A 
ATOM     32  C   UNL     1      20.478   5.486  31.358  0.00  0.00    +0.024 A 
ATOM     33  C   UNL     1      19.945   4.784  30.216  0.00  0.00    +0.007 A 
ATOM     34  C   UNL     1      18.554   4.883  29.881  0.00  0.00    -0.029 A 
ATOM     35  C   UNL     1      18.036   4.103  28.649  0.00  0.00    +0.045 C 
ENDROOT
BRANCH  10   9
ATOM      4  C   UNL     1      13.076   4.733  31.597  0.00  0.00    +0.077 A 
ATOM      5  C   UNL     1      13.407   3.850  32.678  0.00  0.00    +0.048 A 
ATOM      6  C   UNL     1      14.777   3.670  32.974  0.00  0.00    +0.116 A 
ATOM      7  N   UNL     1      15.736   4.331  32.237  0.00  0.00    -0.223 NA
ATOM      8  C   UNL     1      15.383   5.174  31.200  0.00  0.00    +0.220 A 
ATOM      9  N   UNL     1      16.331   5.854  30.451  0.00  0.00    -0.283 N 
ATOM     36  H   UNL     1      16.031   6.462  29.689  0.00  0.00    +0.155 HD
ATOM     37  N   UNL     1      14.082   5.361  30.896  0.00  0.00    -0.214 NA
BRANCH   4   3
ATOM      1  C   UNL     1       9.929   5.508  29.408  0.00  0.00    +0.020 A 
ATOM      2  C   UNL     1      11.299   5.227  29.771  0.00  0.00    +0.013 A 
ATOM      3  C   UNL     1      11.673   5.028  31.165  0.00  0.00    +0.019 A 
ATOM     38  C   UNL     1      10.630   5.120  32.175  0.00  0.00    +0.120 A 
ATOM     39  N   UNL     1       9.320   5.394  31.796  0.00  0.00    -0.263 NA
ATOM     40  C   UNL     1       8.948   5.589  30.457  0.00  0.00    +0.111 A 
ENDBRANCH   4   3
ENDBRANCH  10   9
BRANCH  12  13
ATOM     13  N   UNL     1      20.247   6.957  33.314  0.00  0.00    -0.281 N 
ATOM     14  C   UNL     1      20.076   6.675  34.659  0.00  0.00    +0.248 C 
ATOM     30  O   UNL     1      19.207   5.941  35.106  0.00  0.00    -0.270 OA
ATOM     31  H   UNL     1      20.877   7.729  33.095  0.00  0.00    +0.155 HD
BRANCH  14  15
ATOM     15  C   UNL     1      20.994   7.310  35.654  0.00  0.00    +0.037 A 
ATOM     16  C   UNL     1      20.663   8.592  36.282  0.00  0.00    +0.013 A 
ATOM     17  C   UNL     1      21.574   9.191  37.225  0.00  0.00    +0.005 A 
ATOM     18  C   UNL     1      22.825   8.507  37.546  0.00  0.00    -0.033 A 
ATOM     28  C   UNL     1      23.125   7.234  36.912  0.00  0.00    +0.005 A 
ATOM     29  C   UNL     1      22.235   6.644  35.987  0.00  0.00    +0.013 A 
BRANCH  18  19
ATOM     19  C   UNL     1      23.865   9.083  38.525  0.00  0.00    +0.119 C 
BRANCH  19  20
ATOM     20  N   UNL     1      23.354   9.915  39.655  0.00  0.00    -0.302 NA
ATOM     21  C   UNL     1      23.863  11.358  39.581  0.00  0.00    +0.066 C 
ATOM     22  C   UNL     1      23.301  12.220  40.758  0.00  0.00    -0.064 C 
ATOM     23  N   UNL     1      23.689  11.576  42.090  0.00  0.00    +0.379 N 
ATOM     24  C   UNL     1      23.211  12.415  43.199  0.00  0.00    -0.096 C 
ATOM     25  H   UNL     1      24.802  11.549  42.141  0.00  0.00    -0.082 HD
ATOM     26  C   UNL     1      23.189  10.140  42.170  0.00  0.00    -0.064 C 
ATOM     27  C   UNL     1      23.730   9.299  40.980  0.00  0.00    +0.066 C 
ENDBRANCH  19  20
ENDBRANCH  18  19
ENDBRANCH  14  15
ENDBRANCH  12  13
TORSDOF 6
ENDMDL
MODEL 5
REMARK VINA RESULT:      -9.4     10.249     13.620
REMARK  Name = C:\Users\Docking\Desktop\test protocol\1iep_ligandH.pdb
REMARK  8 active torsions:
REMARK  status: ('A' for Active; 'I' for Inactive)
REMARK    1  A    between atoms: _5  and  _11
REMARK    2  A    between atoms: _19  and  _21
REMARK    3  A    between atoms: _22  and  _66
REMARK    4  A    between atoms: _27  and  _30
REMARK    5  A    between atoms: _32  and  _33
REMARK    6  A    between atoms: _38  and  _43
REMARK    7  A    between atoms: _43  and  _46
REMARK    8  A    between atoms: _53  and  _55
REMARK                            x       y       z     vdW  Elec       q    Type
REMARK                         _______ _______ _______ _____ _____    ______ ____
ROOT
ATOM     10  C   UNL     1      23.059  13.058  40.383  0.00  0.00    +0.038 A 
ATOM     11  C   UNL     1      24.036  13.823  41.071  0.00  0.00    +0.047 A 
ATOM     12  C   UNL     1      25.261  13.212  41.564  0.00  0.00    +0.035 A 
ATOM     32  C   UNL     1      25.460  11.819  41.335  0.00  0.00    +0.024 A 
ATOM     33  C   UNL     1      24.477  11.026  40.639  0.00  0.00    +0.007 A 
ATOM     34  C   UNL     1      23.266  11.623  40.153  0.00  0.00    -0.029 A 
ATOM     35  C   UNL     1      22.245  10.724  39.419  0.00  0.00    +0.045 C 
ENDROOT
BRANCH  10   9
ATOM      4  C   UNL     1      18.541  14.558  40.995  0.00  0.00    +0.077 A 
ATOM      5  C   UNL     1      18.472  14.000  42.315  0.00  0.00    +0.048 A 
ATOM      6  C   UNL     1      19.618  13.329  42.796  0.00  0.00    +0.116 A 
ATOM      7  N   UNL     1      20.744  13.229  42.008  0.00  0.00    -0.223 NA
ATOM      8  C   UNL     1      20.777  13.777  40.739  0.00  0.00    +0.220 A 
ATOM      9  N   UNL     1      21.902  13.696  39.932  0.00  0.00    -0.283 N 
ATOM     36  H   UNL     1      21.883  14.107  38.999  0.00  0.00    +0.155 HD
ATOM     37  N   UNL     1      19.695  14.422  40.256  0.00  0.00    -0.214 NA
BRANCH   4   3
ATOM      1  C   UNL     1      16.128  17.408  39.831  0.00  0.00    +0.020 A 
ATOM      2  C   UNL     1      17.234  16.740  40.477  0.00  0.00    +0.013 A 
ATOM      3  C   UNL     1      17.413  15.299  40.347  0.00  0.00    +0.019 A 
ATOM     38  C   UNL     1      16.448  14.558  39.550  0.00  0.00    +0.120 A 
ATOM     39  N   UNL     1      15.392  15.228  38.940  0.00  0.00    -0.263 NA
ATOM     40  C   UNL     1      15.208  16.614  39.060  0.00  0.00    +0.111 A 
ENDBRANCH   4   3
ENDBRANCH  10   9
BRANCH  12  13
ATOM     13  N   UNL     1      26.284  13.936  42.276  0.00  0.00    -0.281 N 
ATOM     14  C   UNL     1      26.255  14.383  43.587  0.00  0.00    +0.248 C 
ATOM     30  O   UNL     1      25.253  14.413  44.285  0.00  0.00    -0.270 OA
ATOM     31  H   UNL     1      27.132  14.145  41.749  0.00  0.00    +0.155 HD
BRANCH  14  15
ATOM     15  C   UNL     1      27.521  14.881  44.208  0.00  0.00    +0.037 A 
ATOM     16  C   UNL     1      28.781  14.890  43.461  0.00  0.00    +0.013 A 
ATOM     17  C   UNL     1      29.990  15.360  44.089  0.00  0.00    +0.005 A 
ATOM     18  C   UNL     1      29.944  15.826  45.473  0.00  0.00    -0.033 A 
ATOM     28  C   UNL     1      28.679  15.811  46.189  0.00  0.00    +0.005 A 
ATOM     29  C   UNL     1      27.492  15.350  45.576  0.00  0.00    +0.013 A 
BRANCH  18  19
ATOM     19  C   UNL     1      31.189  16.325  46.229  0.00  0.00    +0.119 C 
BRANCH  19  20
ATOM     20  N   UNL     1      32.133  15.291  46.749  0.00  0.00    -0.302 NA
ATOM     21  C   UNL     1      32.708  14.422  45.627  0.00  0.00    +0.066 C 
ATOM     22  C   UNL     1      33.710  13.360  46.186  0.00  0.00    -0.064 C 
ATOM     23  N   UNL     1      33.004  12.497  47.232  0.00  0.00    +0.379 N 
ATOM     24  C   UNL     1      33.927  11.460  47.718  0.00  0.00    -0.096 C 
ATOM     25  H   UNL     1      32.153  11.983  46.727  0.00  0.00    -0.082 HD
ATOM     26  C   UNL     1      32.427  13.353  48.350  0.00  0.00    -0.064 C 
ATOM     27  C   UNL     1      31.455  14.424  47.781  0.00  0.00    +0.066 C 
ENDBRANCH  19  20
ENDBRANCH  18  19
ENDBRANCH  14  15
ENDBRANCH  12  13
TORSDOF 6
ENDMDL
