MODEL 1
REMARK VINA RESULT:      -9.2      0.000      0.000
REMARK  Name = C:\Users\Docking\Desktop\test protocol\1iep_ligandH.pdb
REMARK  8 active torsions:
REMARK  status: ('A' for Active; 'I' for Inactive)
REMARK    1  A    between atoms: _5  and  _11
REMARK    2  A    between atoms: _19  and  _21
REMARK    3  A    between atoms: _22  and  _66
REMARK    4  A    between atoms: _27  and  _30
REMARK    5  A    between atoms: _32  and  _33
REMARK    6  A    between atoms: _38  and  _43
REMARK    7  A    between atoms: _43  and  _46
REMARK    8  A    between atoms: _53  and  _55
REMARK                            x       y       z     vdW  Elec       q    Type
REMARK                         _______ _______ _______ _____ _____    ______ ____
ROOT
ATOM     10  C   UNL     1      13.011  -1.460  18.220  0.00  0.00    +0.038 A 
ATOM     11  C   UNL     1      13.858  -2.375  17.543  0.00  0.00    +0.047 A 
ATOM     12  C   UNL     1      14.166  -2.211  16.131  0.00  0.00    +0.035 A 
ATOM     32  C   UNL     1      13.596  -1.103  15.439  0.00  0.00    +0.024 A 
ATOM     33  C   UNL     1      12.732  -0.165  16.111  0.00  0.00    +0.007 A 
ATOM     34  C   UNL     1      12.422  -0.322  17.504  0.00  0.00    -0.029 A 
ATOM     35  C   UNL     1      11.485   0.711  18.172  0.00  0.00    +0.045 C 
ENDROOT
BRANCH  10   9
ATOM      4  C   UNL     1      14.051  -0.870  22.868  0.00  0.00    +0.077 A 
ATOM      5  C   UNL     1      15.232  -0.112  22.569  0.00  0.00    +0.048 A 
ATOM      6  C   UNL     1      15.540   0.097  21.206  0.00  0.00    +0.116 A 
ATOM      7  N   UNL     1      14.721  -0.417  20.224  0.00  0.00    -0.223 NA
ATOM      8  C   UNL     1      13.591  -1.145  20.547  0.00  0.00    +0.220 A 
ATOM      9  N   UNL     1      12.749  -1.665  19.577  0.00  0.00    -0.283 N 
ATOM     36  H   UNL     1      11.929  -2.203  19.856  0.00  0.00    +0.155 HD
ATOM     37  N   UNL     1      13.276  -1.361  21.842  0.00  0.00    -0.214 NA
BRANCH   4   3
ATOM      1  C   UNL     1      12.108  -2.369  25.915  0.00  0.00    +0.020 A 
ATOM      2  C   UNL     1      12.514  -2.111  24.552  0.00  0.00    +0.013 A 
ATOM      3  C   UNL     1      13.591  -1.174  24.260  0.00  0.00    +0.019 A 
ATOM     38  C   UNL     1      14.243  -0.509  25.379  0.00  0.00    +0.120 A 
ATOM     39  N   UNL     1      13.830  -0.776  26.680  0.00  0.00    -0.263 NA
ATOM     40  C   UNL     1      12.794  -1.675  26.973  0.00  0.00    +0.111 A 
ENDBRANCH   4   3
ENDBRANCH  10   9
BRANCH  12  13
ATOM     13  N   UNL     1      15.012  -3.112  15.389  0.00  0.00    -0.281 N 
ATOM     14  C   UNL     1      16.370  -3.331  15.551  0.00  0.00    +0.248 C 
ATOM     30  O   UNL     1      17.110  -2.626  16.220  0.00  0.00    -0.270 OA
ATOM     31  H   UNL     1      14.555  -3.653  14.655  0.00  0.00    +0.155 HD
BRANCH  14  15
ATOM     15  C   UNL     1      17.001  -4.495  14.856  0.00  0.00    +0.037 A 
ATOM     16  C   UNL     1      17.124  -4.534  13.397  0.00  0.00    +0.013 A 
ATOM     17  C   UNL     1      17.721  -5.676  12.751  0.00  0.00    +0.005 A 
ATOM     18  C   UNL     1      18.202  -6.789  13.566  0.00  0.00    -0.033 A 
ATOM     28  C   UNL     1      18.073  -6.722  15.013  0.00  0.00    +0.005 A 
ATOM     29  C   UNL     1      17.487  -5.605  15.649  0.00  0.00    +0.013 A 
BRANCH  18  19
ATOM     19  C   UNL     1      18.834  -8.057  12.962  0.00  0.00    +0.119 C 
BRANCH  19  20
ATOM     20  N   UNL     1      20.157  -7.906  12.285  0.00  0.00    -0.302 NA
ATOM     21  C   UNL     1      21.067  -6.917  13.019  0.00  0.00    +0.066 C 
ATOM     22  C   UNL     1      22.455  -6.788  12.311  0.00  0.00    -0.064 C 
ATOM     23  N   UNL     1      22.246  -6.356  10.858  0.00  0.00    +0.379 N 
ATOM     24  C   UNL     1      23.551  -6.178  10.206  0.00  0.00    -0.096 C 
ATOM     25  H   UNL     1      21.735  -5.365  10.871  0.00  0.00    -0.082 HD
ATOM     26  C   UNL     1      21.339  -7.333  10.122  0.00  0.00    -0.064 C 
ATOM     27  C   UNL     1      19.974  -7.476  10.851  0.00  0.00    +0.066 C 
ENDBRANCH  19  20
ENDBRANCH  18  19
ENDBRANCH  14  15
ENDBRANCH  12  13
TORSDOF 6
ENDMDL
MODEL 2
REMARK VINA RESULT:      -9.0      2.138      3.022
REMARK  Name = C:\Users\Docking\Desktop\test protocol\1iep_ligandH.pdb
REMARK  8 active torsions:
REMARK  status: ('A' for Active; 'I' for Inactive)
REMARK    1  A    between atoms: _5  and  _11
REMARK    2  A    between atoms: _19  and  _21
REMARK    3  A    between atoms: _22  and  _66
REMARK    4  A    between atoms: _27  and  _30
REMARK    5  A    between atoms: _32  and  _33
REMARK    6  A    between atoms: _38  and  _43
REMARK    7  A    between atoms: _43  and  _46
REMARK    8  A    between atoms: _53  and  _55
REMARK                            x       y       z     vdW  Elec       q    Type
REMARK                         _______ _______ _______ _____ _____    ______ ____
ROOT
ATOM     10  C   UNL     1      13.982  -0.118  18.463  0.00  0.00    +0.038 A 
ATOM     11  C   UNL     1      14.960  -1.023  17.976  0.00  0.00    +0.047 A 
ATOM     12  C   UNL     1      14.626  -2.026  16.978  0.00  0.00    +0.035 A 
ATOM     32  C   UNL     1      13.287  -2.078  16.494  0.00  0.00    +0.024 A 
ATOM     33  C   UNL     1      12.280  -1.167  16.979  0.00  0.00    +0.007 A 
ATOM     34  C   UNL     1      12.603  -0.177  17.966  0.00  0.00    -0.029 A 
ATOM     35  C   UNL     1      11.481   0.769  18.454  0.00  0.00    +0.045 C 
ENDROOT
BRANCH  10   9
ATOM      4  C   UNL     1      15.432   1.083  22.878  0.00  0.00    +0.077 A 
ATOM      5  C   UNL     1      15.414  -0.282  23.320  0.00  0.00    +0.048 A 
ATOM      6  C   UNL     1      15.019  -1.262  22.382  0.00  0.00    +0.116 A 
ATOM      7  N   UNL     1      14.670  -0.893  21.101  0.00  0.00    -0.223 NA
ATOM      8  C   UNL     1      14.697   0.432  20.708  0.00  0.00    +0.220 A 
ATOM      9  N   UNL     1      14.358   0.825  19.422  0.00  0.00    -0.283 N 
ATOM     36  H   UNL     1      14.384   1.814  19.174  0.00  0.00    +0.155 HD
ATOM     37  N   UNL     1      15.070   1.387  21.585  0.00  0.00    -0.214 NA
BRANCH   4   3
ATOM      1  C   UNL     1      15.670   3.590  25.872  0.00  0.00    +0.020 A 
ATOM      2  C   UNL     1      15.250   2.465  25.068  0.00  0.00    +0.013 A 
ATOM      3  C   UNL     1      15.831   2.232  23.752  0.00  0.00    +0.019 A 
ATOM     38  C   UNL     1      16.843   3.162  23.275  0.00  0.00    +0.120 A 
ATOM     39  N   UNL     1      17.226   4.237  24.070  0.00  0.00    -0.263 NA
ATOM     40  C   UNL     1      16.673   4.473  25.338  0.00  0.00    +0.111 A 
ENDBRANCH   4   3
ENDBRANCH  10   9
BRANCH  12  13
ATOM     13  N   UNL     1      15.575  -2.976  16.452  0.00  0.00    -0.281 N 
ATOM     14  C   UNL     1      15.966  -4.184  17.005  0.00  0.00    +0.248 C 
ATOM     30  O   UNL     1      15.716  -4.534  18.149  0.00  0.00    -0.270 OA
ATOM     31  H   UNL     1      16.012  -2.728  15.564  0.00  0.00    +0.155 HD
BRANCH  14  15
ATOM     15  C   UNL     1      16.762  -5.136  16.172  0.00  0.00    +0.037 A 
ATOM     16  C   UNL     1      17.011  -6.510  16.616  0.00  0.00    +0.013 A 
ATOM     17  C   UNL     1      17.796  -7.403  15.801  0.00  0.00    +0.005 A 
ATOM     18  C   UNL     1      18.338  -6.924  14.532  0.00  0.00    -0.033 A 
ATOM     28  C   UNL     1      18.071  -5.558  14.113  0.00  0.00    +0.005 A 
ATOM     29  C   UNL     1      17.303  -4.680  14.910  0.00  0.00    +0.013 A 
BRANCH  18  19
ATOM     19  C   UNL     1      19.204  -7.800  13.608  0.00  0.00    +0.119 C 
BRANCH  19  20
ATOM     20  N   UNL     1      20.100  -7.097  12.641  0.00  0.00    -0.302 NA
ATOM     21  C   UNL     1      20.156  -7.810  11.287  0.00  0.00    +0.066 C 
ATOM     22  C   UNL     1      21.080  -7.049  10.281  0.00  0.00    -0.064 C 
ATOM     23  N   UNL     1      22.480  -6.915  10.881  0.00  0.00    +0.379 N 
ATOM     24  C   UNL     1      23.367  -6.252   9.914  0.00  0.00    -0.096 C 
ATOM     25  H   UNL     1      22.875  -7.944  11.051  0.00  0.00    -0.082 HD
ATOM     26  C   UNL     1      22.434  -6.210  12.229  0.00  0.00    -0.064 C 
ATOM     27  C   UNL     1      21.490  -6.958  13.212  0.00  0.00    +0.066 C 
ENDBRANCH  19  20
ENDBRANCH  18  19
ENDBRANCH  14  15
ENDBRANCH  12  13
TORSDOF 6
ENDMDL
MODEL 3
REMARK VINA RESULT:      -8.6      5.970      9.138
REMARK  Name = C:\Users\Docking\Desktop\test protocol\1iep_ligandH.pdb
REMARK  8 active torsions:
REMARK  status: ('A' for Active; 'I' for Inactive)
REMARK    1  A    between atoms: _5  and  _11
REMARK    2  A    between atoms: _19  and  _21
REMARK    3  A    between atoms: _22  and  _66
REMARK    4  A    between atoms: _27  and  _30
REMARK    5  A    between atoms: _32  and  _33
REMARK    6  A    between atoms: _38  and  _43
REMARK    7  A    between atoms: _43  and  _46
REMARK    8  A    between atoms: _53  and  _55
REMARK                            x       y       z     vdW  Elec       q    Type
REMARK                         _______ _______ _______ _____ _____    ______ ____
ROOT
ATOM     10  C   UNL     1      17.981  -6.247  13.799  0.00  0.00    +0.038 A 
ATOM     11  C   UNL     1      17.755  -6.065  12.411  0.00  0.00    +0.047 A 
ATOM     12  C   UNL     1      18.697  -6.567  11.423  0.00  0.00    +0.035 A 
ATOM     32  C   UNL     1      19.858  -7.253  11.884  0.00  0.00    +0.024 A 
ATOM     33  C   UNL     1      20.104  -7.446  13.291  0.00  0.00    +0.007 A 
ATOM     34  C   UNL     1      19.179  -6.951  14.271  0.00  0.00    -0.029 A 
ATOM     35  C   UNL     1      19.497  -7.181  15.767  0.00  0.00    +0.045 C 
ENDROOT
BRANCH  10   9
ATOM      4  C   UNL     1      16.148  -2.699  16.461  0.00  0.00    +0.077 A 
ATOM      5  C   UNL     1      17.159  -1.776  16.034  0.00  0.00    +0.048 A 
ATOM      6  C   UNL     1      18.137  -2.256  15.134  0.00  0.00    +0.116 A 
ATOM      7  N   UNL     1      18.096  -3.563  14.700  0.00  0.00    -0.223 NA
ATOM      8  C   UNL     1      17.108  -4.427  15.133  0.00  0.00    +0.220 A 
ATOM      9  N   UNL     1      17.043  -5.744  14.704  0.00  0.00    -0.283 N 
ATOM     36  H   UNL     1      16.302  -6.352  15.053  0.00  0.00    +0.155 HD
ATOM     37  N   UNL     1      16.163  -3.994  15.994  0.00  0.00    -0.214 NA
BRANCH   4   3
ATOM      1  C   UNL     1      12.632  -1.823  17.936  0.00  0.00    +0.020 A 
ATOM      2  C   UNL     1      13.660  -2.169  16.982  0.00  0.00    +0.013 A 
ATOM      3  C   UNL     1      15.044  -2.340  17.407  0.00  0.00    +0.019 A 
ATOM     38  C   UNL     1      15.356  -2.154  18.816  0.00  0.00    +0.120 A 
ATOM     39  N   UNL     1      14.345  -1.820  19.712  0.00  0.00    -0.263 NA
ATOM     40  C   UNL     1      13.011  -1.651  19.314  0.00  0.00    +0.111 A 
ENDBRANCH   4   3
ENDBRANCH  10   9
BRANCH  12  13
ATOM     13  N   UNL     1      18.524  -6.405  10.000  0.00  0.00    -0.281 N 
ATOM     14  C   UNL     1      17.661  -7.092   9.163  0.00  0.00    +0.248 C 
ATOM     30  O   UNL     1      17.055  -8.106   9.478  0.00  0.00    -0.270 OA
ATOM     31  H   UNL     1      19.110  -5.697   9.557  0.00  0.00    +0.155 HD
BRANCH  14  15
ATOM     15  C   UNL     1      17.452  -6.590   7.771  0.00  0.00    +0.037 A 
ATOM     16  C   UNL     1      18.170  -5.415   7.272  0.00  0.00    +0.013 A 
ATOM     17  C   UNL     1      17.937  -4.941   5.930  0.00  0.00    +0.005 A 
ATOM     18  C   UNL     1      16.982  -5.645   5.078  0.00  0.00    -0.033 A 
ATOM     28  C   UNL     1      16.287  -6.811   5.597  0.00  0.00    +0.005 A 
ATOM     29  C   UNL     1      16.512  -7.278   6.912  0.00  0.00    +0.013 A 
BRANCH  18  19
ATOM     19  C   UNL     1      16.655  -5.197   3.641  0.00  0.00    +0.119 C 
BRANCH  19  20
ATOM     20  N   UNL     1      15.232  -4.863   3.336  0.00  0.00    -0.302 NA
ATOM     21  C   UNL     1      14.746  -5.539   2.050  0.00  0.00    +0.066 C 
ATOM     22  C   UNL     1      13.249  -5.197   1.758  0.00  0.00    -0.064 C 
ATOM     23  N   UNL     1      13.084  -3.679   1.668  0.00  0.00    +0.379 N 
ATOM     24  C   UNL     1      11.688  -3.356   1.336  0.00  0.00    -0.096 C 
ATOM     25  H   UNL     1      13.723  -3.319   0.828  0.00  0.00    -0.082 HD
ATOM     26  C   UNL     1      13.567  -2.999   2.941  0.00  0.00    -0.064 C 
ATOM     27  C   UNL     1      15.047  -3.369   3.238  0.00  0.00    +0.066 C 
ENDBRANCH  19  20
ENDBRANCH  18  19
ENDBRANCH  14  15
ENDBRANCH  12  13
TORSDOF 6
ENDMDL
MODEL 4
REMARK VINA RESULT:      -8.6      1.503      2.800
REMARK  Name = C:\Users\Docking\Desktop\test protocol\1iep_ligandH.pdb
REMARK  8 active torsions:
REMARK  status: ('A' for Active; 'I' for Inactive)
REMARK    1  A    between atoms: _5  and  _11
REMARK    2  A    between atoms: _19  and  _21
REMARK    3  A    between atoms: _22  and  _66
REMARK    4  A    between atoms: _27  and  _30
REMARK    5  A    between atoms: _32  and  _33
REMARK    6  A    between atoms: _38  and  _43
REMARK    7  A    between atoms: _43  and  _46
REMARK    8  A    between atoms: _53  and  _55
REMARK                            x       y       z     vdW  Elec       q    Type
REMARK                         _______ _______ _______ _____ _____    ______ ____
ROOT
ATOM     10  C   UNL     1      12.979  -1.279  18.168  0.00  0.00    +0.038 A 
ATOM     11  C   UNL     1      13.840  -2.177  17.487  0.00  0.00    +0.047 A 
ATOM     12  C   UNL     1      14.131  -2.014  16.071  0.00  0.00    +0.035 A 
ATOM     32  C   UNL     1      13.529  -0.922  15.380  0.00  0.00    +0.024 A 
ATOM     33  C   UNL     1      12.650  -0.000  16.057  0.00  0.00    +0.007 A 
ATOM     34  C   UNL     1      12.358  -0.158  17.453  0.00  0.00    -0.029 A 
ATOM     35  C   UNL     1      11.403   0.856  18.125  0.00  0.00    +0.045 C 
ENDROOT
BRANCH  10   9
ATOM      4  C   UNL     1      14.169  -0.832  22.796  0.00  0.00    +0.077 A 
ATOM      5  C   UNL     1      15.394  -0.158  22.477  0.00  0.00    +0.048 A 
ATOM      6  C   UNL     1      15.685   0.048  21.110  0.00  0.00    +0.116 A 
ATOM      7  N   UNL     1      14.807  -0.392  20.142  0.00  0.00    -0.223 NA
ATOM      8  C   UNL     1      13.635  -1.040  20.484  0.00  0.00    +0.220 A 
ATOM      9  N   UNL     1      12.735  -1.484  19.528  0.00  0.00    -0.283 N 
ATOM     36  H   UNL     1      11.884  -1.965  19.821  0.00  0.00    +0.155 HD
ATOM     37  N   UNL     1      13.336  -1.250  21.783  0.00  0.00    -0.214 NA
BRANCH   4   3
ATOM      1  C   UNL     1      12.322  -2.370  25.882  0.00  0.00    +0.020 A 
ATOM      2  C   UNL     1      12.719  -2.130  24.514  0.00  0.00    +0.013 A 
ATOM      3  C   UNL     1      13.721  -1.121  24.196  0.00  0.00    +0.019 A 
ATOM     38  C   UNL     1      14.307  -0.366  25.293  0.00  0.00    +0.120 A 
ATOM     39  N   UNL     1      13.904  -0.618  26.601  0.00  0.00    -0.263 NA
ATOM     40  C   UNL     1      12.940  -1.586  26.919  0.00  0.00    +0.111 A 
ENDBRANCH   4   3
ENDBRANCH  10   9
BRANCH  12  13
ATOM     13  N   UNL     1      14.991  -2.898  15.325  0.00  0.00    -0.281 N 
ATOM     14  C   UNL     1      16.356  -2.784  15.118  0.00  0.00    +0.248 C 
ATOM     30  O   UNL     1      17.011  -1.783  15.366  0.00  0.00    -0.270 OA
ATOM     31  H   UNL     1      14.538  -3.706  14.898  0.00  0.00    +0.155 HD
BRANCH  14  15
ATOM     15  C   UNL     1      17.097  -3.945  14.538  0.00  0.00    +0.037 A 
ATOM     16  C   UNL     1      17.793  -4.908  15.396  0.00  0.00    +0.013 A 
ATOM     17  C   UNL     1      18.515  -6.009  14.809  0.00  0.00    +0.005 A 
ATOM     18  C   UNL     1      18.543  -6.154  13.356  0.00  0.00    -0.033 A 
ATOM     28  C   UNL     1      17.840  -5.187  12.529  0.00  0.00    +0.005 A 
ATOM     29  C   UNL     1      17.133  -4.106  13.100  0.00  0.00    +0.013 A 
BRANCH  18  19
ATOM     19  C   UNL     1      19.306  -7.287  12.643  0.00  0.00    +0.119 C 
BRANCH  19  20
ATOM     20  N   UNL     1      18.562  -8.555  12.384  0.00  0.00    -0.302 NA
ATOM     21  C   UNL     1      18.042  -8.632  10.946  0.00  0.00    +0.066 C 
ATOM     22  C   UNL     1      17.285  -9.975  10.685  0.00  0.00    -0.064 C 
ATOM     23  N   UNL     1      16.135 -10.112  11.685  0.00  0.00    +0.379 N 
ATOM     24  C   UNL     1      15.386 -11.346  11.406  0.00  0.00    -0.096 C 
ATOM     25  H   UNL     1      15.444  -9.252  11.524  0.00  0.00    -0.082 HD
ATOM     26  C   UNL     1      16.643 -10.033  13.118  0.00  0.00    -0.064 C 
ATOM     27  C   UNL     1      17.419  -8.708  13.357  0.00  0.00    +0.066 C 
ENDBRANCH  19  20
ENDBRANCH  18  19
ENDBRANCH  14  15
ENDBRANCH  12  13
TORSDOF 6
ENDMDL
MODEL 5
REMARK VINA RESULT:      -8.4      2.290     12.074
REMARK  Name = C:\Users\Docking\Desktop\test protocol\1iep_ligandH.pdb
REMARK  8 active torsions:
REMARK  status: ('A' for Active; 'I' for Inactive)
REMARK    1  A    between atoms: _5  and  _11
REMARK    2  A    between atoms: _19  and  _21
REMARK    3  A    between atoms: _22  and  _66
REMARK    4  A    between atoms: _27  and  _30
REMARK    5  A    between atoms: _32  and  _33
REMARK    6  A    between atoms: _38  and  _43
REMARK    7  A    between atoms: _43  and  _46
REMARK    8  A    between atoms: _53  and  _55
REMARK                            x       y       z     vdW  Elec       q    Type
REMARK                         _______ _______ _______ _____ _____    ______ ____
ROOT
ATOM     10  C   UNL     1      15.443  -1.593  15.228  0.00  0.00    +0.038 A 
ATOM     11  C   UNL     1      15.358  -1.240  16.600  0.00  0.00    +0.047 A 
ATOM     12  C   UNL     1      14.131  -0.697  17.162  0.00  0.00    +0.035 A 
ATOM     32  C   UNL     1      13.009  -0.530  16.300  0.00  0.00    +0.024 A 
ATOM     33  C   UNL     1      13.078  -0.882  14.903  0.00  0.00    +0.007 A 
ATOM     34  C   UNL     1      14.286  -1.415  14.342  0.00  0.00    -0.029 A 
ATOM     35  C   UNL     1      14.306  -1.769  12.837  0.00  0.00    +0.045 C 
ENDROOT
BRANCH  10   9
ATOM      4  C   UNL     1      18.671  -5.119  14.802  0.00  0.00    +0.077 A 
ATOM      5  C   UNL     1      17.909  -5.998  15.642  0.00  0.00    +0.048 A 
ATOM      6  C   UNL     1      16.697  -5.501  16.170  0.00  0.00    +0.116 A 
ATOM      7  N   UNL     1      16.285  -4.220  15.873  0.00  0.00    -0.223 NA
ATOM      8  C   UNL     1      17.044  -3.398  15.060  0.00  0.00    +0.220 A 
ATOM      9  N   UNL     1      16.646  -2.109  14.741  0.00  0.00    -0.283 N 
ATOM     36  H   UNL     1      17.237  -1.532  14.144  0.00  0.00    +0.155 HD
ATOM     37  N   UNL     1      18.207  -3.848  14.544  0.00  0.00    -0.214 NA
BRANCH   4   3
ATOM      1  C   UNL     1      21.624  -7.197  13.297  0.00  0.00    +0.020 A 
ATOM      2  C   UNL     1      20.356  -6.883  13.915  0.00  0.00    +0.013 A 
ATOM      3  C   UNL     1      19.972  -5.500  14.166  0.00  0.00    +0.019 A 
ATOM     38  C   UNL     1      20.900  -4.449  13.777  0.00  0.00    +0.120 A 
ATOM     39  N   UNL     1      22.115  -4.782  13.186  0.00  0.00    -0.263 NA
ATOM     40  C   UNL     1      22.496  -6.109  12.940  0.00  0.00    +0.111 A 
ENDBRANCH   4   3
ENDBRANCH  10   9
BRANCH  12  13
ATOM     13  N   UNL     1      13.988  -0.314  18.545  0.00  0.00    -0.281 N 
ATOM     14  C   UNL     1      13.581  -1.102  19.609  0.00  0.00    +0.248 C 
ATOM     30  O   UNL     1      13.071  -2.206  19.496  0.00  0.00    -0.270 OA
ATOM     31  H   UNL     1      14.214   0.656  18.766  0.00  0.00    +0.155 HD
BRANCH  14  15
ATOM     15  C   UNL     1      13.753  -0.581  21.000  0.00  0.00    +0.037 A 
ATOM     16  C   UNL     1      13.374  -1.385  22.165  0.00  0.00    +0.013 A 
ATOM     17  C   UNL     1      13.534  -0.852  23.494  0.00  0.00    +0.005 A 
ATOM     18  C   UNL     1      14.078   0.493  23.666  0.00  0.00    -0.033 A 
ATOM     28  C   UNL     1      14.450   1.267  22.494  0.00  0.00    +0.005 A 
ATOM     29  C   UNL     1      14.294   0.748  21.189  0.00  0.00    +0.013 A 
BRANCH  18  19
ATOM     19  C   UNL     1      14.264   1.150  25.047  0.00  0.00    +0.119 C 
BRANCH  19  20
ATOM     20  N   UNL     1      15.427   0.699  25.868  0.00  0.00    -0.302 NA
ATOM     21  C   UNL     1      15.066  -0.478  26.778  0.00  0.00    +0.066 C 
ATOM     22  C   UNL     1      16.300  -0.951  27.613  0.00  0.00    -0.064 C 
ATOM     23  N   UNL     1      16.839   0.223  28.433  0.00  0.00    +0.379 N 
ATOM     24  C   UNL     1      17.963  -0.233  29.263  0.00  0.00    -0.096 C 
ATOM     25  H   UNL     1      16.026   0.557  29.118  0.00  0.00    -0.082 HD
ATOM     26  C   UNL     1      17.198   1.399  27.535  0.00  0.00    -0.064 C 
ATOM     27  C   UNL     1      15.972   1.842  26.688  0.00  0.00    +0.066 C 
ENDBRANCH  19  20
ENDBRANCH  18  19
ENDBRANCH  14  15
ENDBRANCH  12  13
TORSDOF 6
ENDMDL
