MODEL 1
REMARK VINA RESULT:      -7.9      0.000      0.000
REMARK  Name = C:\Users\Docking\Desktop\test protocol\1iep_ligandH.pdb
REMARK  8 active torsions:
REMARK  status: ('A' for Active; 'I' for Inactive)
REMARK    1  A    between atoms: _5  and  _11
REMARK    2  A    between atoms: _19  and  _21
REMARK    3  A    between atoms: _22  and  _66
REMARK    4  A    between atoms: _27  and  _30
REMARK    5  A    between atoms: _32  and  _33
REMARK    6  A    between atoms: _38  and  _43
REMARK    7  A    between atoms: _43  and  _46
REMARK    8  A    between atoms: _53  and  _55
REMARK                            x       y       z     vdW  Elec       q    Type
REMARK                         _______ _______ _______ _____ _____    ______ ____
ROOT
ATOM     10  C   UNL     1       9.641  53.019   7.472  0.00  0.00    +0.038 A 
ATOM     11  C   UNL     1       9.325  52.241   6.329  0.00  0.00    +0.047 A 
ATOM     12  C   UNL     1       9.666  50.829   6.262  0.00  0.00    +0.035 A 
ATOM     32  C   UNL     1      10.326  50.239   7.379  0.00  0.00    +0.024 A 
ATOM     33  C   UNL     1      10.657  51.015   8.548  0.00  0.00    +0.007 A 
ATOM     34  C   UNL     1      10.325  52.409   8.619  0.00  0.00    -0.029 A 
ATOM     35  C   UNL     1      10.709  53.194   9.896  0.00  0.00    +0.045 C 
ENDROOT
BRANCH  10   9
ATOM      4  C   UNL     1       6.388  56.547   7.503  0.00  0.00    +0.077 A 
ATOM      5  C   UNL     1       5.294  55.620   7.467  0.00  0.00    +0.048 A 
ATOM      6  C   UNL     1       5.612  54.243   7.434  0.00  0.00    +0.116 A 
ATOM      7  N   UNL     1       6.928  53.836   7.438  0.00  0.00    -0.223 NA
ATOM      8  C   UNL     1       7.959  54.757   7.471  0.00  0.00    +0.220 A 
ATOM      9  N   UNL     1       9.291  54.371   7.483  0.00  0.00    -0.283 N 
ATOM     36  H   UNL     1      10.022  55.081   7.501  0.00  0.00    +0.155 HD
ATOM     37  N   UNL     1       7.682  56.078   7.502  0.00  0.00    -0.214 NA
BRANCH   4   3
ATOM      1  C   UNL     1       4.796  60.116   7.684  0.00  0.00    +0.020 A 
ATOM      2  C   UNL     1       4.910  58.676   7.648  0.00  0.00    +0.013 A 
ATOM      3  C   UNL     1       6.214  58.034   7.544  0.00  0.00    +0.019 A 
ATOM     38  C   UNL     1       7.393  58.884   7.478  0.00  0.00    +0.120 A 
ATOM     39  N   UNL     1       7.253  60.268   7.513  0.00  0.00    -0.263 NA
ATOM     40  C   UNL     1       6.003  60.897   7.612  0.00  0.00    +0.111 A 
ENDBRANCH   4   3
ENDBRANCH  10   9
BRANCH  12  13
ATOM     13  N   UNL     1       9.377  49.991   5.124  0.00  0.00    -0.281 N 
ATOM     14  C   UNL     1       8.139  49.559   4.677  0.00  0.00    +0.248 C 
ATOM     30  O   UNL     1       7.101  49.654   5.317  0.00  0.00    -0.270 OA
ATOM     31  H   UNL     1      10.183  49.678   4.583  0.00  0.00    +0.155 HD
BRANCH  14  15
ATOM     15  C   UNL     1       8.041  48.916   3.332  0.00  0.00    +0.037 A 
ATOM     16  C   UNL     1       9.053  47.962   2.870  0.00  0.00    +0.013 A 
ATOM     17  C   UNL     1       8.944  47.370   1.560  0.00  0.00    +0.005 A 
ATOM     18  C   UNL     1       7.816  47.729   0.703  0.00  0.00    -0.033 A 
ATOM     28  C   UNL     1       6.824  48.674   1.189  0.00  0.00    +0.005 A 
ATOM     29  C   UNL     1       6.928  49.257   2.471  0.00  0.00    +0.013 A 
BRANCH  18  19
ATOM     19  C   UNL     1       7.631  47.161  -0.717  0.00  0.00    +0.119 C 
BRANCH  19  20
ATOM     20  N   UNL     1       7.920  45.710  -0.916  0.00  0.00    -0.302 NA
ATOM     21  C   UNL     1       9.331  45.475  -1.464  0.00  0.00    +0.066 C 
ATOM     22  C   UNL     1       9.625  43.950  -1.645  0.00  0.00    -0.064 C 
ATOM     23  N   UNL     1       8.574  43.338  -2.574  0.00  0.00    +0.379 N 
ATOM     24  C   UNL     1       8.881  41.917  -2.793  0.00  0.00    -0.096 C 
ATOM     25  H   UNL     1       8.650  43.857  -3.558  0.00  0.00    -0.082 HD
ATOM     26  C   UNL     1       7.168  43.570  -2.038  0.00  0.00    -0.064 C 
ATOM     27  C   UNL     1       6.897  45.087  -1.834  0.00  0.00    +0.066 C 
ENDBRANCH  19  20
ENDBRANCH  18  19
ENDBRANCH  14  15
ENDBRANCH  12  13
TORSDOF 6
ENDMDL
MODEL 2
REMARK VINA RESULT:      -7.7      2.646     13.424
REMARK  Name = C:\Users\Docking\Desktop\test protocol\1iep_ligandH.pdb
REMARK  8 active torsions:
REMARK  status: ('A' for Active; 'I' for Inactive)
REMARK    1  A    between atoms: _5  and  _11
REMARK    2  A    between atoms: _19  and  _21
REMARK    3  A    between atoms: _22  and  _66
REMARK    4  A    between atoms: _27  and  _30
REMARK    5  A    between atoms: _32  and  _33
REMARK    6  A    between atoms: _38  and  _43
REMARK    7  A    between atoms: _43  and  _46
REMARK    8  A    between atoms: _53  and  _55
REMARK                            x       y       z     vdW  Elec       q    Type
REMARK                         _______ _______ _______ _____ _____    ______ ____
ROOT
ATOM     10  C   UNL     1       9.637  52.054   6.500  0.00  0.00    +0.038 A 
ATOM     11  C   UNL     1       9.161  53.390   6.488  0.00  0.00    +0.047 A 
ATOM     12  C   UNL     1       9.177  54.206   7.692  0.00  0.00    +0.035 A 
ATOM     32  C   UNL     1       9.687  53.629   8.892  0.00  0.00    +0.024 A 
ATOM     33  C   UNL     1      10.173  52.272   8.923  0.00  0.00    +0.007 A 
ATOM     34  C   UNL     1      10.158  51.462   7.738  0.00  0.00    -0.029 A 
ATOM     35  C   UNL     1      10.685  50.011   7.832  0.00  0.00    +0.045 C 
ENDROOT
BRANCH  10   9
ATOM      4  C   UNL     1       7.346  49.316   3.291  0.00  0.00    +0.077 A 
ATOM      5  C   UNL     1       6.132  49.336   4.054  0.00  0.00    +0.048 A 
ATOM      6  C   UNL     1       6.140  50.055   5.270  0.00  0.00    +0.116 A 
ATOM      7  N   UNL     1       7.283  50.704   5.682  0.00  0.00    -0.223 NA
ATOM      8  C   UNL     1       8.439  50.664   4.923  0.00  0.00    +0.220 A 
ATOM      9  N   UNL     1       9.598  51.316   5.315  0.00  0.00    -0.283 N 
ATOM     36  H   UNL     1      10.432  51.256   4.731  0.00  0.00    +0.155 HD
ATOM     37  N   UNL     1       8.457  49.982   3.759  0.00  0.00    -0.214 NA
BRANCH   4   3
ATOM      1  C   UNL     1       6.924  48.248  -0.448  0.00  0.00    +0.020 A 
ATOM      2  C   UNL     1       6.744  48.971   0.790  0.00  0.00    +0.013 A 
ATOM      3  C   UNL     1       7.494  48.602   1.984  0.00  0.00    +0.019 A 
ATOM     38  C   UNL     1       8.427  47.489   1.890  0.00  0.00    +0.120 A 
ATOM     39  N   UNL     1       8.579  46.811   0.685  0.00  0.00    -0.263 NA
ATOM     40  C   UNL     1       7.861  47.156  -0.470  0.00  0.00    +0.111 A 
ENDBRANCH   4   3
ENDBRANCH  10   9
BRANCH  12  13
ATOM     13  N   UNL     1       8.700  55.566   7.741  0.00  0.00    -0.281 N 
ATOM     14  C   UNL     1       7.388  56.007   7.795  0.00  0.00    +0.248 C 
ATOM     30  O   UNL     1       6.413  55.299   7.591  0.00  0.00    -0.270 OA
ATOM     31  H   UNL     1       9.417  56.291   7.737  0.00  0.00    +0.155 HD
BRANCH  14  15
ATOM     15  C   UNL     1       7.122  57.444   8.104  0.00  0.00    +0.037 A 
ATOM     16  C   UNL     1       6.764  57.876   9.458  0.00  0.00    +0.013 A 
ATOM     17  C   UNL     1       6.495  59.267   9.726  0.00  0.00    +0.005 A 
ATOM     18  C   UNL     1       6.585  60.236   8.637  0.00  0.00    -0.033 A 
ATOM     28  C   UNL     1       6.946  59.781   7.305  0.00  0.00    +0.005 A 
ATOM     29  C   UNL     1       7.210  58.419   7.038  0.00  0.00    +0.013 A 
BRANCH  18  19
ATOM     19  C   UNL     1       6.294  61.737   8.827  0.00  0.00    +0.119 C 
BRANCH  19  20
ATOM     20  N   UNL     1       5.444  62.127   9.991  0.00  0.00    -0.302 NA
ATOM     21  C   UNL     1       3.951  61.956   9.695  0.00  0.00    +0.066 C 
ATOM     22  C   UNL     1       3.077  62.347  10.931  0.00  0.00    -0.064 C 
ATOM     23  N   UNL     1       3.387  63.789  11.336  0.00  0.00    +0.379 N 
ATOM     24  C   UNL     1       2.526  64.178  12.462  0.00  0.00    -0.096 C 
ATOM     25  H   UNL     1       3.132  64.445  10.471  0.00  0.00    -0.082 HD
ATOM     26  C   UNL     1       4.870  63.968  11.630  0.00  0.00    -0.064 C 
ATOM     27  C   UNL     1       5.731  63.549  10.405  0.00  0.00    +0.066 C 
ENDBRANCH  19  20
ENDBRANCH  18  19
ENDBRANCH  14  15
ENDBRANCH  12  13
TORSDOF 6
ENDMDL
MODEL 3
REMARK VINA RESULT:      -7.6      1.849      2.237
REMARK  Name = C:\Users\Docking\Desktop\test protocol\1iep_ligandH.pdb
REMARK  8 active torsions:
REMARK  status: ('A' for Active; 'I' for Inactive)
REMARK    1  A    between atoms: _5  and  _11
REMARK    2  A    between atoms: _19  and  _21
REMARK    3  A    between atoms: _22  and  _66
REMARK    4  A    between atoms: _27  and  _30
REMARK    5  A    between atoms: _32  and  _33
REMARK    6  A    between atoms: _38  and  _43
REMARK    7  A    between atoms: _43  and  _46
REMARK    8  A    between atoms: _53  and  _55
REMARK                            x       y       z     vdW  Elec       q    Type
REMARK                         _______ _______ _______ _____ _____    ______ ____
ROOT
ATOM     10  C   UNL     1       9.623  53.206   7.514  0.00  0.00    +0.038 A 
ATOM     11  C   UNL     1       9.186  52.592   6.313  0.00  0.00    +0.047 A 
ATOM     12  C   UNL     1       9.407  51.175   6.069  0.00  0.00    +0.035 A 
ATOM     32  C   UNL     1      10.074  50.413   7.072  0.00  0.00    +0.024 A 
ATOM     33  C   UNL     1      10.527  51.021   8.298  0.00  0.00    +0.007 A 
ATOM     34  C   UNL     1      10.314  52.419   8.543  0.00  0.00    -0.029 A 
ATOM     35  C   UNL     1      10.826  53.020   9.873  0.00  0.00    +0.045 C 
ENDROOT
BRANCH  10   9
ATOM      4  C   UNL     1       6.673  56.972   7.910  0.00  0.00    +0.077 A 
ATOM      5  C   UNL     1       5.510  56.156   7.710  0.00  0.00    +0.048 A 
ATOM      6  C   UNL     1       5.714  54.774   7.502  0.00  0.00    +0.116 A 
ATOM      7  N   UNL     1       6.992  54.256   7.496  0.00  0.00    -0.223 NA
ATOM      8  C   UNL     1       8.092  55.071   7.690  0.00  0.00    +0.220 A 
ATOM      9  N   UNL     1       9.385  54.570   7.696  0.00  0.00    -0.283 N 
ATOM     36  H   UNL     1      10.171  55.205   7.836  0.00  0.00    +0.155 HD
ATOM     37  N   UNL     1       7.923  56.394   7.890  0.00  0.00    -0.214 NA
BRANCH   4   3
ATOM      1  C   UNL     1       6.265  60.825   7.375  0.00  0.00    +0.020 A 
ATOM      2  C   UNL     1       6.303  59.408   7.095  0.00  0.00    +0.013 A 
ATOM      3  C   UNL     1       6.620  58.449   8.145  0.00  0.00    +0.019 A 
ATOM     38  C   UNL     1       6.895  58.960   9.480  0.00  0.00    +0.120 A 
ATOM     39  N   UNL     1       6.852  60.330   9.720  0.00  0.00    -0.263 NA
ATOM     40  C   UNL     1       6.550  61.263   8.717  0.00  0.00    +0.111 A 
ENDBRANCH   4   3
ENDBRANCH  10   9
BRANCH  12  13
ATOM     13  N   UNL     1       8.992  50.498   4.866  0.00  0.00    -0.281 N 
ATOM     14  C   UNL     1       7.879  49.693   4.681  0.00  0.00    +0.248 C 
ATOM     30  O   UNL     1       7.183  49.259   5.586  0.00  0.00    -0.270 OA
ATOM     31  H   UNL     1       9.592  50.627   4.051  0.00  0.00    +0.155 HD
BRANCH  14  15
ATOM     15  C   UNL     1       7.493  49.303   3.291  0.00  0.00    +0.037 A 
ATOM     16  C   UNL     1       8.261  48.307   2.540  0.00  0.00    +0.013 A 
ATOM     17  C   UNL     1       7.876  47.961   1.194  0.00  0.00    +0.005 A 
ATOM     18  C   UNL     1       6.716  48.613   0.592  0.00  0.00    -0.033 A 
ATOM     28  C   UNL     1       5.969  49.594   1.361  0.00  0.00    +0.005 A 
ATOM     29  C   UNL     1       6.343  49.936   2.680  0.00  0.00    +0.013 A 
BRANCH  18  19
ATOM     19  C   UNL     1       6.246  48.321  -0.846  0.00  0.00    +0.119 C 
BRANCH  19  20
ATOM     20  N   UNL     1       5.221  47.250  -1.026  0.00  0.00    -0.302 NA
ATOM     21  C   UNL     1       5.855  45.900  -1.372  0.00  0.00    +0.066 C 
ATOM     22  C   UNL     1       4.770  44.787  -1.535  0.00  0.00    -0.064 C 
ATOM     23  N   UNL     1       3.770  45.207  -2.613  0.00  0.00    +0.379 N 
ATOM     24  C   UNL     1       2.781  44.137  -2.810  0.00  0.00    -0.096 C 
ATOM     25  H   UNL     1       4.333  45.327  -3.568  0.00  0.00    -0.082 HD
ATOM     26  C   UNL     1       3.136  46.550  -2.279  0.00  0.00    -0.064 C 
ATOM     27  C   UNL     1       4.225  47.643  -2.090  0.00  0.00    +0.066 C 
ENDBRANCH  19  20
ENDBRANCH  18  19
ENDBRANCH  14  15
ENDBRANCH  12  13
TORSDOF 6
ENDMDL
MODEL 4
REMARK VINA RESULT:      -7.6      5.197      7.560
REMARK  Name = C:\Users\Docking\Desktop\test protocol\1iep_ligandH.pdb
REMARK  8 active torsions:
REMARK  status: ('A' for Active; 'I' for Inactive)
REMARK    1  A    between atoms: _5  and  _11
REMARK    2  A    between atoms: _19  and  _21
REMARK    3  A    between atoms: _22  and  _66
REMARK    4  A    between atoms: _27  and  _30
REMARK    5  A    between atoms: _32  and  _33
REMARK    6  A    between atoms: _38  and  _43
REMARK    7  A    between atoms: _43  and  _46
REMARK    8  A    between atoms: _53  and  _55
REMARK                            x       y       z     vdW  Elec       q    Type
REMARK                         _______ _______ _______ _____ _____    ______ ____
ROOT
ATOM     10  C   UNL     1       6.016  57.330   9.694  0.00  0.00    +0.038 A 
ATOM     11  C   UNL     1       6.595  56.181   9.098  0.00  0.00    +0.047 A 
ATOM     12  C   UNL     1       7.381  56.281   7.878  0.00  0.00    +0.035 A 
ATOM     32  C   UNL     1       7.560  57.569   7.293  0.00  0.00    +0.024 A 
ATOM     33  C   UNL     1       6.977  58.747   7.885  0.00  0.00    +0.007 A 
ATOM     34  C   UNL     1       6.199  58.654   9.087  0.00  0.00    -0.029 A 
ATOM     35  C   UNL     1       5.593  59.950   9.675  0.00  0.00    +0.045 C 
ENDROOT
BRANCH  10   9
ATOM      4  C   UNL     1       5.661  56.956  14.466  0.00  0.00    +0.077 A 
ATOM      5  C   UNL     1       7.082  57.049  14.638  0.00  0.00    +0.048 A 
ATOM      6  C   UNL     1       7.869  57.185  13.473  0.00  0.00    +0.116 A 
ATOM      7  N   UNL     1       7.270  57.225  12.233  0.00  0.00    -0.223 NA
ATOM      8  C   UNL     1       5.896  57.130  12.102  0.00  0.00    +0.220 A 
ATOM      9  N   UNL     1       5.271  57.175  10.865  0.00  0.00    -0.283 N 
ATOM     36  H   UNL     1       4.256  57.095  10.810  0.00  0.00    +0.155 HD
ATOM     37  N   UNL     1       5.122  56.998  13.199  0.00  0.00    -0.214 NA
BRANCH   4   3
ATOM      1  C   UNL     1       2.370  56.865  16.579  0.00  0.00    +0.020 A 
ATOM      2  C   UNL     1       3.260  57.016  15.451  0.00  0.00    +0.013 A 
ATOM      3  C   UNL     1       4.695  56.812  15.601  0.00  0.00    +0.019 A 
ATOM     38  C   UNL     1       5.202  56.452  16.917  0.00  0.00    +0.120 A 
ATOM     39  N   UNL     1       4.321  56.314  17.985  0.00  0.00    -0.263 NA
ATOM     40  C   UNL     1       2.938  56.510  17.853  0.00  0.00    +0.111 A 
ENDBRANCH   4   3
ENDBRANCH  10   9
BRANCH  12  13
ATOM     13  N   UNL     1       7.987  55.148   7.223  0.00  0.00    -0.281 N 
ATOM     14  C   UNL     1       8.938  54.278   7.731  0.00  0.00    +0.248 C 
ATOM     30  O   UNL     1       9.572  54.471   8.757  0.00  0.00    -0.270 OA
ATOM     31  H   UNL     1       7.677  54.965   6.268  0.00  0.00    +0.155 HD
BRANCH  14  15
ATOM     15  C   UNL     1       9.237  53.019   6.983  0.00  0.00    +0.037 A 
ATOM     16  C   UNL     1       9.700  51.815   7.678  0.00  0.00    +0.013 A 
ATOM     17  C   UNL     1       9.999  50.619   6.931  0.00  0.00    +0.005 A 
ATOM     18  C   UNL     1       9.833  50.621   5.479  0.00  0.00    -0.033 A 
ATOM     28  C   UNL     1       9.367  51.828   4.816  0.00  0.00    +0.005 A 
ATOM     29  C   UNL     1       9.075  53.003   5.545  0.00  0.00    +0.013 A 
BRANCH  18  19
ATOM     19  C   UNL     1      10.148  49.397   4.599  0.00  0.00    +0.119 C 
BRANCH  19  20
ATOM     20  N   UNL     1      11.587  49.055   4.393  0.00  0.00    -0.302 NA
ATOM     21  C   UNL     1      12.039  49.316   2.954  0.00  0.00    +0.066 C 
ATOM     22  C   UNL     1      13.553  48.974   2.762  0.00  0.00    -0.064 C 
ATOM     23  N   UNL     1      13.796  47.514   3.150  0.00  0.00    +0.379 N 
ATOM     24  C   UNL     1      15.207  47.173   2.915  0.00  0.00    -0.096 C 
ATOM     25  H   UNL     1      13.177  46.878   2.475  0.00  0.00    -0.082 HD
ATOM     26  C   UNL     1      13.347  47.245   4.579  0.00  0.00    -0.064 C 
ATOM     27  C   UNL     1      11.849  47.616   4.766  0.00  0.00    +0.066 C 
ENDBRANCH  19  20
ENDBRANCH  18  19
ENDBRANCH  14  15
ENDBRANCH  12  13
TORSDOF 6
ENDMDL
MODEL 5
REMARK VINA RESULT:      -7.5      4.092     13.137
REMARK  Name = C:\Users\Docking\Desktop\test protocol\1iep_ligandH.pdb
REMARK  8 active torsions:
REMARK  status: ('A' for Active; 'I' for Inactive)
REMARK    1  A    between atoms: _5  and  _11
REMARK    2  A    between atoms: _19  and  _21
REMARK    3  A    between atoms: _22  and  _66
REMARK    4  A    between atoms: _27  and  _30
REMARK    5  A    between atoms: _32  and  _33
REMARK    6  A    between atoms: _38  and  _43
REMARK    7  A    between atoms: _43  and  _46
REMARK    8  A    between atoms: _53  and  _55
REMARK                            x       y       z     vdW  Elec       q    Type
REMARK                         _______ _______ _______ _____ _____    ______ ____
ROOT
ATOM     10  C   UNL     1       9.818  48.832   4.376  0.00  0.00    +0.038 A 
ATOM     11  C   UNL     1       9.589  49.875   5.310  0.00  0.00    +0.047 A 
ATOM     12  C   UNL     1       8.365  50.660   5.277  0.00  0.00    +0.035 A 
ATOM     32  C   UNL     1       7.393  50.353   4.281  0.00  0.00    +0.024 A 
ATOM     33  C   UNL     1       7.609  49.297   3.324  0.00  0.00    +0.007 A 
ATOM     34  C   UNL     1       8.816  48.521   3.350  0.00  0.00    -0.029 A 
ATOM     35  C   UNL     1       8.997  47.405   2.294  0.00  0.00    +0.045 C 
ENDROOT
BRANCH  10   9
ATOM      4  C   UNL     1      14.452  48.190   3.307  0.00  0.00    +0.077 A 
ATOM      5  C   UNL     1      14.493  49.378   2.504  0.00  0.00    +0.048 A 
ATOM      6  C   UNL     1      13.298  50.123   2.386  0.00  0.00    +0.116 A 
ATOM      7  N   UNL     1      12.153  49.701   3.028  0.00  0.00    -0.223 NA
ATOM      8  C   UNL     1      12.148  48.549   3.793  0.00  0.00    +0.220 A 
ATOM      9  N   UNL     1      11.011  48.111   4.454  0.00  0.00    -0.283 N 
ATOM     36  H   UNL     1      11.046  47.252   5.002  0.00  0.00    +0.155 HD
ATOM     37  N   UNL     1      13.276  47.820   3.920  0.00  0.00    -0.214 NA
BRANCH   4   3
ATOM      1  C   UNL     1      17.130  45.367   2.900  0.00  0.00    +0.020 A 
ATOM      2  C   UNL     1      15.976  46.198   2.639  0.00  0.00    +0.013 A 
ATOM      3  C   UNL     1      15.635  47.299   3.530  0.00  0.00    +0.019 A 
ATOM     38  C   UNL     1      16.487  47.536   4.685  0.00  0.00    +0.120 A 
ATOM     39  N   UNL     1      17.591  46.719   4.912  0.00  0.00    -0.263 NA
ATOM     40  C   UNL     1      17.928  45.655   4.062  0.00  0.00    +0.111 A 
ENDBRANCH   4   3
ENDBRANCH  10   9
BRANCH  12  13
ATOM     13  N   UNL     1       8.082  51.736   6.194  0.00  0.00    -0.281 N 
ATOM     14  C   UNL     1       8.523  53.048   6.130  0.00  0.00    +0.248 C 
ATOM     30  O   UNL     1       9.407  53.444   5.385  0.00  0.00    -0.270 OA
ATOM     31  H   UNL     1       7.483  51.503   6.986  0.00  0.00    +0.155 HD
BRANCH  14  15
ATOM     15  C   UNL     1       7.902  54.064   7.033  0.00  0.00    +0.037 A 
ATOM     16  C   UNL     1       8.725  54.981   7.825  0.00  0.00    +0.013 A 
ATOM     17  C   UNL     1       8.100  55.940   8.702  0.00  0.00    +0.005 A 
ATOM     18  C   UNL     1       6.643  55.987   8.790  0.00  0.00    -0.033 A 
ATOM     28  C   UNL     1       5.850  55.069   7.989  0.00  0.00    +0.005 A 
ATOM     29  C   UNL     1       6.459  54.127   7.129  0.00  0.00    +0.013 A 
BRANCH  18  19
ATOM     19  C   UNL     1       5.892  56.963   9.714  0.00  0.00    +0.119 C 
BRANCH  19  20
ATOM     20  N   UNL     1       6.071  58.423   9.457  0.00  0.00    -0.302 NA
ATOM     21  C   UNL     1       7.024  59.071  10.465  0.00  0.00    +0.066 C 
ATOM     22  C   UNL     1       7.217  60.594  10.167  0.00  0.00    -0.064 C 
ATOM     23  N   UNL     1       5.856  61.291  10.184  0.00  0.00    +0.379 N 
ATOM     24  C   UNL     1       6.040  62.733   9.962  0.00  0.00    -0.096 C 
ATOM     25  H   UNL     1       5.421  61.158  11.202  0.00  0.00    -0.082 HD
ATOM     26  C   UNL     1       4.901  60.651   9.187  0.00  0.00    -0.064 C 
ATOM     27  C   UNL     1       4.739  59.132   9.473  0.00  0.00    +0.066 C 
ENDBRANCH  19  20
ENDBRANCH  18  19
ENDBRANCH  14  15
ENDBRANCH  12  13
TORSDOF 6
ENDMDL
