MODEL 1
REMARK VINA RESULT:      -8.0      0.000      0.000
REMARK  Name = C:\Users\Docking\Desktop\test protocol\1iep_ligandH.pdb
REMARK  8 active torsions:
REMARK  status: ('A' for Active; 'I' for Inactive)
REMARK    1  A    between atoms: _5  and  _11
REMARK    2  A    between atoms: _19  and  _21
REMARK    3  A    between atoms: _22  and  _66
REMARK    4  A    between atoms: _27  and  _30
REMARK    5  A    between atoms: _32  and  _33
REMARK    6  A    between atoms: _38  and  _43
REMARK    7  A    between atoms: _43  and  _46
REMARK    8  A    between atoms: _53  and  _55
REMARK                            x       y       z     vdW  Elec       q    Type
REMARK                         _______ _______ _______ _____ _____    ______ ____
ROOT
ATOM     10  C   UNL     1       0.541  27.161 -32.003  0.00  0.00    +0.038 A 
ATOM     11  C   UNL     1       0.138  28.418 -31.486  0.00  0.00    +0.047 A 
ATOM     12  C   UNL     1       0.573  29.661 -32.104  0.00  0.00    +0.035 A 
ATOM     32  C   UNL     1       1.416  29.586 -33.251  0.00  0.00    +0.024 A 
ATOM     33  C   UNL     1       1.836  28.316 -33.790  0.00  0.00    +0.007 A 
ATOM     34  C   UNL     1       1.412  27.087 -33.182  0.00  0.00    -0.029 A 
ATOM     35  C   UNL     1       1.899  25.755 -33.798  0.00  0.00    +0.045 C 
ENDROOT
BRANCH  10   9
ATOM      4  C   UNL     1      -2.487  23.459 -31.597  0.00  0.00    +0.077 A 
ATOM      5  C   UNL     1      -3.260  23.891 -32.727  0.00  0.00    +0.048 A 
ATOM      6  C   UNL     1      -2.848  25.074 -33.380  0.00  0.00    +0.116 A 
ATOM      7  N   UNL     1      -1.745  25.766 -32.929  0.00  0.00    -0.223 NA
ATOM      8  C   UNL     1      -1.024  25.323 -31.836  0.00  0.00    +0.220 A 
ATOM      9  N   UNL     1       0.093  25.999 -31.370  0.00  0.00    -0.283 N 
ATOM     36  H   UNL     1       0.594  25.644 -30.555  0.00  0.00    +0.155 HD
ATOM     37  N   UNL     1      -1.397  24.197 -31.194  0.00  0.00    -0.214 NA
BRANCH   4   3
ATOM      1  C   UNL     1      -3.435  21.041 -28.672  0.00  0.00    +0.020 A 
ATOM      2  C   UNL     1      -3.147  22.261 -29.391  0.00  0.00    +0.013 A 
ATOM      3  C   UNL     1      -2.794  22.226 -30.805  0.00  0.00    +0.019 A 
ATOM     38  C   UNL     1      -2.741  20.932 -31.466  0.00  0.00    +0.120 A 
ATOM     39  N   UNL     1      -3.021  19.774 -30.748  0.00  0.00    -0.263 NA
ATOM     40  C   UNL     1      -3.360  19.794 -29.387  0.00  0.00    +0.111 A 
ENDBRANCH   4   3
ENDBRANCH  10   9
BRANCH  12  13
ATOM     13  N   UNL     1       0.202  30.967 -31.618  0.00  0.00    -0.281 N 
ATOM     14  C   UNL     1      -0.668  31.876 -32.198  0.00  0.00    +0.248 C 
ATOM     30  O   UNL     1      -1.098  31.791 -33.339  0.00  0.00    -0.270 OA
ATOM     31  H   UNL     1       0.634  31.257 -30.740  0.00  0.00    +0.155 HD
BRANCH  14  15
ATOM     15  C   UNL     1      -1.112  33.060 -31.400  0.00  0.00    +0.037 A 
ATOM     16  C   UNL     1      -2.186  33.936 -31.875  0.00  0.00    +0.013 A 
ATOM     17  C   UNL     1      -2.584  35.081 -31.095  0.00  0.00    +0.005 A 
ATOM     18  C   UNL     1      -1.908  35.354 -29.828  0.00  0.00    -0.033 A 
ATOM     28  C   UNL     1      -0.850  34.465 -29.378  0.00  0.00    +0.005 A 
ATOM     29  C   UNL     1      -0.457  33.343 -30.141  0.00  0.00    +0.013 A 
BRANCH  18  19
ATOM     19  C   UNL     1      -2.253  36.564 -28.940  0.00  0.00    +0.119 C 
BRANCH  19  20
ATOM     20  N   UNL     1      -3.477  36.462 -28.091  0.00  0.00    -0.302 NA
ATOM     21  C   UNL     1      -4.288  37.760 -28.093  0.00  0.00    +0.066 C 
ATOM     22  C   UNL     1      -5.577  37.628 -27.217  0.00  0.00    -0.064 C 
ATOM     23  N   UNL     1      -5.183  37.238 -25.791  0.00  0.00    +0.379 N 
ATOM     24  C   UNL     1      -6.387  37.170 -24.951  0.00  0.00    -0.096 C 
ATOM     25  H   UNL     1      -4.533  38.048 -25.386  0.00  0.00    -0.082 HD
ATOM     26  C   UNL     1      -4.374  35.949 -25.780  0.00  0.00    -0.064 C 
ATOM     27  C   UNL     1      -3.111  36.081 -26.677  0.00  0.00    +0.066 C 
ENDBRANCH  19  20
ENDBRANCH  18  19
ENDBRANCH  14  15
ENDBRANCH  12  13
TORSDOF 6
ENDMDL
MODEL 2
REMARK VINA RESULT:      -7.8      5.161     10.173
REMARK  Name = C:\Users\Docking\Desktop\test protocol\1iep_ligandH.pdb
REMARK  8 active torsions:
REMARK  status: ('A' for Active; 'I' for Inactive)
REMARK    1  A    between atoms: _5  and  _11
REMARK    2  A    between atoms: _19  and  _21
REMARK    3  A    between atoms: _22  and  _66
REMARK    4  A    between atoms: _27  and  _30
REMARK    5  A    between atoms: _32  and  _33
REMARK    6  A    between atoms: _38  and  _43
REMARK    7  A    between atoms: _43  and  _46
REMARK    8  A    between atoms: _53  and  _55
REMARK                            x       y       z     vdW  Elec       q    Type
REMARK                         _______ _______ _______ _____ _____    ______ ____
ROOT
ATOM     10  C   UNL     1      -5.040  18.815 -30.036  0.00  0.00    +0.038 A 
ATOM     11  C   UNL     1      -4.152  19.841 -30.452  0.00  0.00    +0.047 A 
ATOM     12  C   UNL     1      -4.653  21.102 -30.977  0.00  0.00    +0.035 A 
ATOM     32  C   UNL     1      -6.064  21.286 -31.062  0.00  0.00    +0.024 A 
ATOM     33  C   UNL     1      -6.980  20.254 -30.644  0.00  0.00    +0.007 A 
ATOM     34  C   UNL     1      -6.492  19.007 -30.128  0.00  0.00    -0.029 A 
ATOM     35  C   UNL     1      -7.520  17.934 -29.702  0.00  0.00    +0.045 C 
ENDROOT
BRANCH  10   9
ATOM      4  C   UNL     1      -3.438  16.069 -26.441  0.00  0.00    +0.077 A 
ATOM      5  C   UNL     1      -3.660  17.104 -25.472  0.00  0.00    +0.048 A 
ATOM      6  C   UNL     1      -4.182  18.330 -25.942  0.00  0.00    +0.116 A 
ATOM      7  N   UNL     1      -4.457  18.498 -27.282  0.00  0.00    -0.223 NA
ATOM      8  C   UNL     1      -4.228  17.480 -28.189  0.00  0.00    +0.220 A 
ATOM      9  N   UNL     1      -4.505  17.625 -29.540  0.00  0.00    -0.283 N 
ATOM     36  H   UNL     1      -4.315  16.852 -30.179  0.00  0.00    +0.155 HD
ATOM     37  N   UNL     1      -3.729  16.300 -27.766  0.00  0.00    -0.214 NA
BRANCH   4   3
ATOM      1  C   UNL     1      -1.212  12.853 -26.353  0.00  0.00    +0.020 A 
ATOM      2  C   UNL     1      -1.696  14.165 -26.719  0.00  0.00    +0.013 A 
ATOM      3  C   UNL     1      -2.894  14.717 -26.099  0.00  0.00    +0.019 A 
ATOM     38  C   UNL     1      -3.585  13.910 -25.105  0.00  0.00    +0.120 A 
ATOM     39  N   UNL     1      -3.097  12.649 -24.774  0.00  0.00    -0.263 NA
ATOM     40  C   UNL     1      -1.946  12.107 -25.365  0.00  0.00    +0.111 A 
ENDBRANCH   4   3
ENDBRANCH  10   9
BRANCH  12  13
ATOM     13  N   UNL     1      -3.800  22.176 -31.422  0.00  0.00    -0.281 N 
ATOM     14  C   UNL     1      -3.241  23.190 -30.662  0.00  0.00    +0.248 C 
ATOM     30  O   UNL     1      -3.564  23.451 -29.513  0.00  0.00    -0.270 OA
ATOM     31  H   UNL     1      -3.583  22.191 -32.419  0.00  0.00    +0.155 HD
BRANCH  14  15
ATOM     15  C   UNL     1      -2.179  24.047 -31.272  0.00  0.00    +0.037 A 
ATOM     16  C   UNL     1      -2.362  24.664 -32.588  0.00  0.00    +0.013 A 
ATOM     17  C   UNL     1      -1.315  25.472 -33.160  0.00  0.00    +0.005 A 
ATOM     18  C   UNL     1      -0.074  25.670 -32.415  0.00  0.00    -0.033 A 
ATOM     28  C   UNL     1       0.079  25.050 -31.109  0.00  0.00    +0.005 A 
ATOM     29  C   UNL     1      -0.945  24.257 -30.545  0.00  0.00    +0.013 A 
BRANCH  18  19
ATOM     19  C   UNL     1       1.105  26.499 -32.957  0.00  0.00    +0.119 C 
BRANCH  19  20
ATOM     20  N   UNL     1       0.872  27.958 -33.174  0.00  0.00    -0.302 NA
ATOM     21  C   UNL     1       2.165  28.701 -33.523  0.00  0.00    +0.066 C 
ATOM     22  C   UNL     1       1.899  30.222 -33.768  0.00  0.00    -0.064 C 
ATOM     23  N   UNL     1       1.245  30.829 -32.526  0.00  0.00    +0.379 N 
ATOM     24  C   UNL     1       1.046  32.271 -32.731  0.00  0.00    -0.096 C 
ATOM     25  H   UNL     1       1.953  30.703 -31.675  0.00  0.00    -0.082 HD
ATOM     26  C   UNL     1      -0.040  30.095 -32.170  0.00  0.00    -0.064 C 
ATOM     27  C   UNL     1       0.230  28.579 -31.957  0.00  0.00    +0.066 C 
ENDBRANCH  19  20
ENDBRANCH  18  19
ENDBRANCH  14  15
ENDBRANCH  12  13
TORSDOF 6
ENDMDL
MODEL 3
REMARK VINA RESULT:      -7.7      1.883      2.676
REMARK  Name = C:\Users\Docking\Desktop\test protocol\1iep_ligandH.pdb
REMARK  8 active torsions:
REMARK  status: ('A' for Active; 'I' for Inactive)
REMARK    1  A    between atoms: _5  and  _11
REMARK    2  A    between atoms: _19  and  _21
REMARK    3  A    between atoms: _22  and  _66
REMARK    4  A    between atoms: _27  and  _30
REMARK    5  A    between atoms: _32  and  _33
REMARK    6  A    between atoms: _38  and  _43
REMARK    7  A    between atoms: _43  and  _46
REMARK    8  A    between atoms: _53  and  _55
REMARK                            x       y       z     vdW  Elec       q    Type
REMARK                         _______ _______ _______ _____ _____    ______ ____
ROOT
ATOM     10  C   UNL     1       0.551  27.349 -32.050  0.00  0.00    +0.038 A 
ATOM     11  C   UNL     1       0.168  28.610 -31.527  0.00  0.00    +0.047 A 
ATOM     12  C   UNL     1       0.590  29.849 -32.162  0.00  0.00    +0.035 A 
ATOM     32  C   UNL     1       1.401  29.766 -33.332  0.00  0.00    +0.024 A 
ATOM     33  C   UNL     1       1.801  28.492 -33.877  0.00  0.00    +0.007 A 
ATOM     34  C   UNL     1       1.389  27.267 -33.253  0.00  0.00    -0.029 A 
ATOM     35  C   UNL     1       1.853  25.930 -33.877  0.00  0.00    +0.045 C 
ENDROOT
BRANCH  10   9
ATOM      4  C   UNL     1      -2.477  23.659 -31.547  0.00  0.00    +0.077 A 
ATOM      5  C   UNL     1      -3.277  24.088 -32.658  0.00  0.00    +0.048 A 
ATOM      6  C   UNL     1      -2.880  25.267 -33.327  0.00  0.00    +0.116 A 
ATOM      7  N   UNL     1      -1.763  25.958 -32.909  0.00  0.00    -0.223 NA
ATOM      8  C   UNL     1      -1.014  25.517 -31.833  0.00  0.00    +0.220 A 
ATOM      9  N   UNL     1       0.117  26.192 -31.400  0.00  0.00    -0.283 N 
ATOM     36  H   UNL     1       0.638  25.839 -30.598  0.00  0.00    +0.155 HD
ATOM     37  N   UNL     1      -1.374  24.395 -31.176  0.00  0.00    -0.214 NA
BRANCH   4   3
ATOM      1  C   UNL     1      -3.468  21.264 -28.618  0.00  0.00    +0.020 A 
ATOM      2  C   UNL     1      -3.201  22.480 -29.351  0.00  0.00    +0.013 A 
ATOM      3  C   UNL     1      -2.766  22.431 -30.741  0.00  0.00    +0.019 A 
ATOM     38  C   UNL     1      -2.610  21.125 -31.365  0.00  0.00    +0.120 A 
ATOM     39  N   UNL     1      -2.873  19.972 -30.633  0.00  0.00    -0.263 NA
ATOM     40  C   UNL     1      -3.290  20.006 -29.294  0.00  0.00    +0.111 A 
ENDBRANCH   4   3
ENDBRANCH  10   9
BRANCH  12  13
ATOM     13  N   UNL     1       0.239  31.158 -31.671  0.00  0.00    -0.281 N 
ATOM     14  C   UNL     1      -0.850  31.937 -32.027  0.00  0.00    +0.248 C 
ATOM     30  O   UNL     1      -1.576  31.714 -32.985  0.00  0.00    -0.270 OA
ATOM     31  H   UNL     1       0.869  31.560 -30.977  0.00  0.00    +0.155 HD
BRANCH  14  15
ATOM     15  C   UNL     1      -1.171  33.146 -31.210  0.00  0.00    +0.037 A 
ATOM     16  C   UNL     1      -2.064  34.191 -31.717  0.00  0.00    +0.013 A 
ATOM     17  C   UNL     1      -2.343  35.356 -30.914  0.00  0.00    +0.005 A 
ATOM     18  C   UNL     1      -1.729  35.480 -29.594  0.00  0.00    -0.033 A 
ATOM     28  C   UNL     1      -0.852  34.426 -29.114  0.00  0.00    +0.005 A 
ATOM     29  C   UNL     1      -0.575  33.283 -29.898  0.00  0.00    +0.013 A 
BRANCH  18  19
ATOM     19  C   UNL     1      -1.954  36.698 -28.678  0.00  0.00    +0.119 C 
BRANCH  19  20
ATOM     20  N   UNL     1      -0.742  37.360 -28.111  0.00  0.00    -0.302 NA
ATOM     21  C   UNL     1      -1.105  38.509 -27.166  0.00  0.00    +0.066 C 
ATOM     22  C   UNL     1       0.175  39.175 -26.563  0.00  0.00    -0.064 C 
ATOM     23  N   UNL     1       1.071  39.671 -27.700  0.00  0.00    +0.379 N 
ATOM     24  C   UNL     1       2.247  40.350 -27.136  0.00  0.00    -0.096 C 
ATOM     25  H   UNL     1       0.492  40.425 -28.282  0.00  0.00    -0.082 HD
ATOM     26  C   UNL     1       1.434  38.536 -28.646  0.00  0.00    -0.064 C 
ATOM     27  C   UNL     1       0.155  37.861 -29.216  0.00  0.00    +0.066 C 
ENDBRANCH  19  20
ENDBRANCH  18  19
ENDBRANCH  14  15
ENDBRANCH  12  13
TORSDOF 6
ENDMDL
MODEL 4
REMARK VINA RESULT:      -7.7     28.917     32.518
REMARK  Name = C:\Users\Docking\Desktop\test protocol\1iep_ligandH.pdb
REMARK  8 active torsions:
REMARK  status: ('A' for Active; 'I' for Inactive)
REMARK    1  A    between atoms: _5  and  _11
REMARK    2  A    between atoms: _19  and  _21
REMARK    3  A    between atoms: _22  and  _66
REMARK    4  A    between atoms: _27  and  _30
REMARK    5  A    between atoms: _32  and  _33
REMARK    6  A    between atoms: _38  and  _43
REMARK    7  A    between atoms: _43  and  _46
REMARK    8  A    between atoms: _53  and  _55
REMARK                            x       y       z     vdW  Elec       q    Type
REMARK                         _______ _______ _______ _____ _____    ______ ____
ROOT
ATOM     10  C   UNL     1      -4.630  23.805   3.088  0.00  0.00    +0.038 A 
ATOM     11  C   UNL     1      -5.459  24.282   2.041  0.00  0.00    +0.047 A 
ATOM     12  C   UNL     1      -6.857  23.891   1.950  0.00  0.00    +0.035 A 
ATOM     32  C   UNL     1      -7.379  23.014   2.946  0.00  0.00    +0.024 A 
ATOM     33  C   UNL     1      -6.550  22.519   4.017  0.00  0.00    +0.007 A 
ATOM     34  C   UNL     1      -5.170  22.899   4.109  0.00  0.00    -0.029 A 
ATOM     35  C   UNL     1      -4.326  22.332   5.275  0.00  0.00    +0.045 C 
ENDROOT
BRANCH  10   9
ATOM      4  C   UNL     1      -0.029  23.359   1.794  0.00  0.00    +0.077 A 
ATOM      5  C   UNL     1      -0.305  22.200   0.995  0.00  0.00    +0.048 A 
ATOM      6  C   UNL     1      -1.642  21.746   0.949  0.00  0.00    +0.116 A 
ATOM      7  N   UNL     1      -2.623  22.410   1.654  0.00  0.00    -0.223 NA
ATOM      8  C   UNL     1      -2.323  23.524   2.416  0.00  0.00    +0.220 A 
ATOM      9  N   UNL     1      -3.294  24.212   3.126  0.00  0.00    -0.283 N 
ATOM     36  H   UNL     1      -3.031  25.025   3.683  0.00  0.00    +0.155 HD
ATOM     37  N   UNL     1      -1.053  23.976   2.477  0.00  0.00    -0.214 NA
BRANCH   4   3
ATOM      1  C   UNL     1       3.658  24.463   1.098  0.00  0.00    +0.020 A 
ATOM      2  C   UNL     1       2.358  23.863   0.907  0.00  0.00    +0.013 A 
ATOM      3  C   UNL     1       1.334  23.961   1.940  0.00  0.00    +0.019 A 
ATOM     38  C   UNL     1       1.660  24.679   3.163  0.00  0.00    +0.120 A 
ATOM     39  N   UNL     1       2.921  25.245   3.319  0.00  0.00    -0.263 NA
ATOM     40  C   UNL     1       3.915  25.156   2.333  0.00  0.00    +0.111 A 
ENDBRANCH   4   3
ENDBRANCH  10   9
BRANCH  12  13
ATOM     13  N   UNL     1      -7.745  24.337   0.905  0.00  0.00    -0.281 N 
ATOM     14  C   UNL     1      -8.404  25.551   0.809  0.00  0.00    +0.248 C 
ATOM     30  O   UNL     1      -8.499  26.361   1.720  0.00  0.00    -0.270 OA
ATOM     31  H   UNL     1      -7.906  23.677   0.144  0.00  0.00    +0.155 HD
BRANCH  14  15
ATOM     15  C   UNL     1      -9.067  25.913  -0.481  0.00  0.00    +0.037 A 
ATOM     16  C   UNL     1     -10.462  26.356  -0.520  0.00  0.00    +0.013 A 
ATOM     17  C   UNL     1     -11.083  26.682  -1.780  0.00  0.00    +0.005 A 
ATOM     18  C   UNL     1     -10.306  26.567  -3.012  0.00  0.00    -0.033 A 
ATOM     28  C   UNL     1      -8.921  26.130  -2.944  0.00  0.00    +0.005 A 
ATOM     29  C   UNL     1      -8.310  25.808  -1.711  0.00  0.00    +0.013 A 
BRANCH  18  19
ATOM     19  C   UNL     1     -10.892  26.874  -4.403  0.00  0.00    +0.119 C 
BRANCH  19  20
ATOM     20  N   UNL     1     -11.982  25.981  -4.897  0.00  0.00    -0.302 NA
ATOM     21  C   UNL     1     -11.438  24.653  -5.433  0.00  0.00    +0.066 C 
ATOM     22  C   UNL     1     -12.593  23.722  -5.925  0.00  0.00    -0.064 C 
ATOM     23  N   UNL     1     -13.406  24.447  -6.999  0.00  0.00    +0.379 N 
ATOM     24  C   UNL     1     -14.457  23.553  -7.506  0.00  0.00    -0.096 C 
ATOM     25  H   UNL     1     -12.719  24.675  -7.847  0.00  0.00    -0.082 HD
ATOM     26  C   UNL     1     -13.949  25.769  -6.476  0.00  0.00    -0.064 C 
ATOM     27  C   UNL     1     -12.795  26.675  -5.962  0.00  0.00    +0.066 C 
ENDBRANCH  19  20
ENDBRANCH  18  19
ENDBRANCH  14  15
ENDBRANCH  12  13
TORSDOF 6
ENDMDL
MODEL 5
REMARK VINA RESULT:      -7.6     26.678     29.458
REMARK  Name = C:\Users\Docking\Desktop\test protocol\1iep_ligandH.pdb
REMARK  8 active torsions:
REMARK  status: ('A' for Active; 'I' for Inactive)
REMARK    1  A    between atoms: _5  and  _11
REMARK    2  A    between atoms: _19  and  _21
REMARK    3  A    between atoms: _22  and  _66
REMARK    4  A    between atoms: _27  and  _30
REMARK    5  A    between atoms: _32  and  _33
REMARK    6  A    between atoms: _38  and  _43
REMARK    7  A    between atoms: _43  and  _46
REMARK    8  A    between atoms: _53  and  _55
REMARK                            x       y       z     vdW  Elec       q    Type
REMARK                         _______ _______ _______ _____ _____    ______ ____
ROOT
ATOM     10  C   UNL     1      13.650  31.059  -7.216  0.00  0.00    +0.038 A 
ATOM     11  C   UNL     1      12.590  31.566  -6.423  0.00  0.00    +0.047 A 
ATOM     12  C   UNL     1      12.651  31.526  -4.970  0.00  0.00    +0.035 A 
ATOM     32  C   UNL     1      13.809  30.965  -4.358  0.00  0.00    +0.024 A 
ATOM     33  C   UNL     1      14.896  30.444  -5.149  0.00  0.00    +0.007 A 
ATOM     34  C   UNL     1      14.840  30.478  -6.582  0.00  0.00    -0.029 A 
ATOM     35  C   UNL     1      16.032  29.900  -7.380  0.00  0.00    +0.045 C 
ENDROOT
BRANCH  10   9
ATOM      4  C   UNL     1      14.222  33.326 -11.408  0.00  0.00    +0.077 A 
ATOM      5  C   UNL     1      14.764  34.492 -10.771  0.00  0.00    +0.048 A 
ATOM      6  C   UNL     1      14.872  34.470  -9.363  0.00  0.00    +0.116 A 
ATOM      7  N   UNL     1      14.466  33.361  -8.654  0.00  0.00    -0.223 NA
ATOM      8  C   UNL     1      13.946  32.253  -9.299  0.00  0.00    +0.220 A 
ATOM      9  N   UNL     1      13.539  31.123  -8.607  0.00  0.00    -0.283 N 
ATOM     36  H   UNL     1      13.154  30.330  -9.119  0.00  0.00    +0.155 HD
ATOM     37  N   UNL     1      13.831  32.249 -10.643  0.00  0.00    -0.214 NA
BRANCH   4   3
ATOM      1  C   UNL     1      13.434  31.895 -14.962  0.00  0.00    +0.020 A 
ATOM      2  C   UNL     1      13.586  31.968 -13.527  0.00  0.00    +0.013 A 
ATOM      3  C   UNL     1      14.048  33.195 -12.889  0.00  0.00    +0.019 A 
ATOM     38  C   UNL     1      14.349  34.338 -13.738  0.00  0.00    +0.120 A 
ATOM     39  N   UNL     1      14.194  34.237 -15.117  0.00  0.00    -0.263 NA
ATOM     40  C   UNL     1      13.753  33.061 -15.743  0.00  0.00    +0.111 A 
ENDBRANCH   4   3
ENDBRANCH  10   9
BRANCH  12  13
ATOM     13  N   UNL     1      11.601  32.018  -4.113  0.00  0.00    -0.281 N 
ATOM     14  C   UNL     1      11.281  33.336  -3.829  0.00  0.00    +0.248 C 
ATOM     30  O   UNL     1      11.988  34.294  -4.104  0.00  0.00    -0.270 OA
ATOM     31  H   UNL     1      11.024  31.309  -3.660  0.00  0.00    +0.155 HD
BRANCH  14  15
ATOM     15  C   UNL     1       9.995  33.631  -3.125  0.00  0.00    +0.037 A 
ATOM     16  C   UNL     1       8.834  34.151  -3.851  0.00  0.00    +0.013 A 
ATOM     17  C   UNL     1       7.611  34.443  -3.145  0.00  0.00    +0.005 A 
ATOM     18  C   UNL     1       7.544  34.214  -1.704  0.00  0.00    -0.033 A 
ATOM     28  C   UNL     1       8.710  33.693  -1.010  0.00  0.00    +0.005 A 
ATOM     29  C   UNL     1       9.910  33.406  -1.698  0.00  0.00    +0.013 A 
BRANCH  18  19
ATOM     19  C   UNL     1       6.288  34.518  -0.866  0.00  0.00    +0.119 C 
BRANCH  19  20
ATOM     20  N   UNL     1       6.475  34.703   0.604  0.00  0.00    -0.302 NA
ATOM     21  C   UNL     1       5.642  33.709   1.418  0.00  0.00    +0.066 C 
ATOM     22  C   UNL     1       5.866  33.902   2.953  0.00  0.00    -0.064 C 
ATOM     23  N   UNL     1       5.522  35.341   3.339  0.00  0.00    +0.379 N 
ATOM     24  C   UNL     1       5.676  35.510   4.792  0.00  0.00    -0.096 C 
ATOM     25  H   UNL     1       4.448  35.509   3.091  0.00  0.00    -0.082 HD
ATOM     26  C   UNL     1       6.343  36.336   2.532  0.00  0.00    -0.064 C 
ATOM     27  C   UNL     1       6.135  36.117   1.008  0.00  0.00    +0.066 C 
ENDBRANCH  19  20
ENDBRANCH  18  19
ENDBRANCH  14  15
ENDBRANCH  12  13
TORSDOF 6
ENDMDL
