MODEL 1
REMARK VINA RESULT:      -8.7      0.000      0.000
REMARK  Name = C:\Users\Docking\Desktop\test protocol\1iep_ligandH.pdb
REMARK  8 active torsions:
REMARK  status: ('A' for Active; 'I' for Inactive)
REMARK    1  A    between atoms: _5  and  _11
REMARK    2  A    between atoms: _19  and  _21
REMARK    3  A    between atoms: _22  and  _66
REMARK    4  A    between atoms: _27  and  _30
REMARK    5  A    between atoms: _32  and  _33
REMARK    6  A    between atoms: _38  and  _43
REMARK    7  A    between atoms: _43  and  _46
REMARK    8  A    between atoms: _53  and  _55
REMARK                            x       y       z     vdW  Elec       q    Type
REMARK                         _______ _______ _______ _____ _____    ______ ____
ROOT
ATOM     10  C   UNL     1      11.082  -0.907  -7.680  0.00  0.00    +0.038 A 
ATOM     11  C   UNL     1      10.575   0.237  -8.346  0.00  0.00    +0.047 A 
ATOM     12  C   UNL     1      11.300   1.498  -8.334  0.00  0.00    +0.035 A 
ATOM     32  C   UNL     1      12.541   1.557  -7.636  0.00  0.00    +0.024 A 
ATOM     33  C   UNL     1      13.071   0.404  -6.952  0.00  0.00    +0.007 A 
ATOM     34  C   UNL     1      12.359  -0.842  -6.958  0.00  0.00    -0.029 A 
ATOM     35  C   UNL     1      12.972  -2.044  -6.203  0.00  0.00    +0.045 C 
ENDROOT
BRANCH  10   9
ATOM      4  C   UNL     1       7.615  -3.797  -6.048  0.00  0.00    +0.077 A 
ATOM      5  C   UNL     1       7.261  -2.881  -5.003  0.00  0.00    +0.048 A 
ATOM      6  C   UNL     1       8.000  -1.680  -4.916  0.00  0.00    +0.116 A 
ATOM      7  N   UNL     1       9.016  -1.425  -5.812  0.00  0.00    -0.223 NA
ATOM      8  C   UNL     1       9.333  -2.331  -6.807  0.00  0.00    +0.220 A 
ATOM      9  N   UNL     1      10.345  -2.092  -7.724  0.00  0.00    -0.283 N 
ATOM     36  H   UNL     1      10.553  -2.789  -8.438  0.00  0.00    +0.155 HD
ATOM     37  N   UNL     1       8.643  -3.486  -6.911  0.00  0.00    -0.214 NA
BRANCH   4   3
ATOM      1  C   UNL     1       5.696  -6.768  -7.720  0.00  0.00    +0.020 A 
ATOM      2  C   UNL     1       6.352  -5.491  -7.557  0.00  0.00    +0.013 A 
ATOM      3  C   UNL     1       6.925  -5.107  -6.272  0.00  0.00    +0.019 A 
ATOM     38  C   UNL     1       6.816  -6.045  -5.166  0.00  0.00    +0.120 A 
ATOM     39  N   UNL     1       6.177  -7.267  -5.352  0.00  0.00    -0.263 NA
ATOM     40  C   UNL     1       5.621  -7.647  -6.583  0.00  0.00    +0.111 A 
ENDBRANCH   4   3
ENDBRANCH  10   9
BRANCH  12  13
ATOM     13  N   UNL     1      10.830   2.696  -8.986  0.00  0.00    -0.281 N 
ATOM     14  C   UNL     1      11.364   3.972  -8.911  0.00  0.00    +0.248 C 
ATOM     30  O   UNL     1      12.205   4.322  -8.097  0.00  0.00    -0.270 OA
ATOM     31  H   UNL     1      10.004   2.589  -9.575  0.00  0.00    +0.155 HD
BRANCH  14  15
ATOM     15  C   UNL     1      10.883   5.013  -9.868  0.00  0.00    +0.037 A 
ATOM     16  C   UNL     1      10.530   4.672 -11.249  0.00  0.00    +0.013 A 
ATOM     17  C   UNL     1      10.085   5.699 -12.157  0.00  0.00    +0.005 A 
ATOM     18  C   UNL     1       9.988   7.078 -11.686  0.00  0.00    -0.033 A 
ATOM     28  C   UNL     1      10.339   7.389 -10.310  0.00  0.00    +0.005 A 
ATOM     29  C   UNL     1      10.777   6.385  -9.417  0.00  0.00    +0.013 A 
BRANCH  18  19
ATOM     19  C   UNL     1       9.543   8.242 -12.592  0.00  0.00    +0.119 C 
BRANCH  19  20
ATOM     20  N   UNL     1      10.338   9.505 -12.523  0.00  0.00    -0.302 NA
ATOM     21  C   UNL     1       9.629  10.585 -11.702  0.00  0.00    +0.066 C 
ATOM     22  C   UNL     1      10.484  11.891 -11.621  0.00  0.00    -0.064 C 
ATOM     23  N   UNL     1      10.779  12.393 -13.036  0.00  0.00    +0.379 N 
ATOM     24  C   UNL     1      11.534  13.652 -12.963  0.00  0.00    -0.096 C 
ATOM     25  H   UNL     1       9.803  12.611 -13.527  0.00  0.00    -0.082 HD
ATOM     26  C   UNL     1      11.481  11.323 -13.861  0.00  0.00    -0.064 C 
ATOM     27  C   UNL     1      10.637  10.019 -13.910  0.00  0.00    +0.066 C 
ENDBRANCH  19  20
ENDBRANCH  18  19
ENDBRANCH  14  15
ENDBRANCH  12  13
TORSDOF 6
ENDMDL
MODEL 2
REMARK VINA RESULT:      -8.5      5.804     13.038
REMARK  Name = C:\Users\Docking\Desktop\test protocol\1iep_ligandH.pdb
REMARK  8 active torsions:
REMARK  status: ('A' for Active; 'I' for Inactive)
REMARK    1  A    between atoms: _5  and  _11
REMARK    2  A    between atoms: _19  and  _21
REMARK    3  A    between atoms: _22  and  _66
REMARK    4  A    between atoms: _27  and  _30
REMARK    5  A    between atoms: _32  and  _33
REMARK    6  A    between atoms: _38  and  _43
REMARK    7  A    between atoms: _43  and  _46
REMARK    8  A    between atoms: _53  and  _55
REMARK                            x       y       z     vdW  Elec       q    Type
REMARK                         _______ _______ _______ _____ _____    ______ ____
ROOT
ATOM     10  C   UNL     1      10.032  -0.263  -7.592  0.00  0.00    +0.038 A 
ATOM     11  C   UNL     1      10.525  -1.415  -8.255  0.00  0.00    +0.047 A 
ATOM     12  C   UNL     1      10.738  -2.663  -7.538  0.00  0.00    +0.035 A 
ATOM     32  C   UNL     1      10.436  -2.702  -6.146  0.00  0.00    +0.024 A 
ATOM     33  C   UNL     1       9.935  -1.540  -5.455  0.00  0.00    +0.007 A 
ATOM     34  C   UNL     1       9.725  -0.305  -6.157  0.00  0.00    -0.029 A 
ATOM     35  C   UNL     1       9.192   0.911  -5.364  0.00  0.00    +0.045 C 
ENDROOT
BRANCH  10   9
ATOM      4  C   UNL     1      11.389   4.129  -8.973  0.00  0.00    +0.077 A 
ATOM      5  C   UNL     1      12.552   4.098  -8.135  0.00  0.00    +0.048 A 
ATOM      6  C   UNL     1      12.761   2.936  -7.358  0.00  0.00    +0.116 A 
ATOM      7  N   UNL     1      11.867   1.889  -7.424  0.00  0.00    -0.223 NA
ATOM      8  C   UNL     1      10.754   1.953  -8.242  0.00  0.00    +0.220 A 
ATOM      9  N   UNL     1       9.846   0.909  -8.329  0.00  0.00    -0.283 N 
ATOM     36  H   UNL     1       9.033   0.997  -8.939  0.00  0.00    +0.155 HD
ATOM     37  N   UNL     1      10.531   3.052  -8.992  0.00  0.00    -0.214 NA
BRANCH   4   3
ATOM      1  C   UNL     1      10.147   6.270 -12.002  0.00  0.00    +0.020 A 
ATOM      2  C   UNL     1      10.475   5.120 -11.192  0.00  0.00    +0.013 A 
ATOM      3  C   UNL     1      11.032   5.285  -9.855  0.00  0.00    +0.019 A 
ATOM     38  C   UNL     1      11.247   6.638  -9.365  0.00  0.00    +0.120 A 
ATOM     39  N   UNL     1      10.923   7.727 -10.169  0.00  0.00    -0.263 NA
ATOM     40  C   UNL     1      10.388   7.580 -11.457  0.00  0.00    +0.111 A 
ENDBRANCH   4   3
ENDBRANCH  10   9
BRANCH  12  13
ATOM     13  N   UNL     1      11.244  -3.863  -8.157  0.00  0.00    -0.281 N 
ATOM     14  C   UNL     1      10.570  -5.050  -8.390  0.00  0.00    +0.248 C 
ATOM     30  O   UNL     1       9.485  -5.335  -7.907  0.00  0.00    -0.270 OA
ATOM     31  H   UNL     1      12.218  -3.833  -8.459  0.00  0.00    +0.155 HD
BRANCH  14  15
ATOM     15  C   UNL     1      11.199  -6.075  -9.278  0.00  0.00    +0.037 A 
ATOM     16  C   UNL     1      10.393  -6.880 -10.199  0.00  0.00    +0.013 A 
ATOM     17  C   UNL     1      11.022  -7.874 -11.032  0.00  0.00    +0.005 A 
ATOM     18  C   UNL     1      12.468  -8.067 -10.948  0.00  0.00    -0.033 A 
ATOM     28  C   UNL     1      13.244  -7.252 -10.029  0.00  0.00    +0.005 A 
ATOM     29  C   UNL     1      12.631  -6.277  -9.210  0.00  0.00    +0.013 A 
BRANCH  18  19
ATOM     19  C   UNL     1      13.221  -9.119 -11.784  0.00  0.00    +0.119 C 
BRANCH  19  20
ATOM     20  N   UNL     1      14.186  -8.617 -12.806  0.00  0.00    -0.302 NA
ATOM     21  C   UNL     1      14.258  -9.536 -14.029  0.00  0.00    +0.066 C 
ATOM     22  C   UNL     1      15.256  -8.984 -15.098  0.00  0.00    -0.064 C 
ATOM     23  N   UNL     1      16.638  -8.816 -14.465  0.00  0.00    +0.379 N 
ATOM     24  C   UNL     1      17.591  -8.352 -15.483  0.00  0.00    -0.096 C 
ATOM     25  H   UNL     1      16.975  -9.821 -14.118  0.00  0.00    -0.082 HD
ATOM     26  C   UNL     1      16.575  -7.906 -13.247  0.00  0.00    -0.064 C 
ATOM     27  C   UNL     1      15.559  -8.448 -12.203  0.00  0.00    +0.066 C 
ENDBRANCH  19  20
ENDBRANCH  18  19
ENDBRANCH  14  15
ENDBRANCH  12  13
TORSDOF 6
ENDMDL
MODEL 3
REMARK VINA RESULT:      -8.4      5.701     14.262
REMARK  Name = C:\Users\Docking\Desktop\test protocol\1iep_ligandH.pdb
REMARK  8 active torsions:
REMARK  status: ('A' for Active; 'I' for Inactive)
REMARK    1  A    between atoms: _5  and  _11
REMARK    2  A    between atoms: _19  and  _21
REMARK    3  A    between atoms: _22  and  _66
REMARK    4  A    between atoms: _27  and  _30
REMARK    5  A    between atoms: _32  and  _33
REMARK    6  A    between atoms: _38  and  _43
REMARK    7  A    between atoms: _43  and  _46
REMARK    8  A    between atoms: _53  and  _55
REMARK                            x       y       z     vdW  Elec       q    Type
REMARK                         _______ _______ _______ _____ _____    ______ ____
ROOT
ATOM     10  C   UNL     1       9.989  -0.776  -7.742  0.00  0.00    +0.038 A 
ATOM     11  C   UNL     1      10.431  -1.927  -8.444  0.00  0.00    +0.047 A 
ATOM     12  C   UNL     1      10.588  -3.206  -7.770  0.00  0.00    +0.035 A 
ATOM     32  C   UNL     1      10.281  -3.278  -6.379  0.00  0.00    +0.024 A 
ATOM     33  C   UNL     1       9.831  -2.119  -5.650  0.00  0.00    +0.007 A 
ATOM     34  C   UNL     1       9.678  -0.854  -6.310  0.00  0.00    -0.029 A 
ATOM     35  C   UNL     1       9.198   0.358  -5.477  0.00  0.00    +0.045 C 
ENDROOT
BRANCH  10   9
ATOM      4  C   UNL     1      11.436   3.670  -8.825  0.00  0.00    +0.077 A 
ATOM      5  C   UNL     1      12.533   3.601  -7.903  0.00  0.00    +0.048 A 
ATOM      6  C   UNL     1      12.685   2.406  -7.164  0.00  0.00    +0.116 A 
ATOM      7  N   UNL     1      11.801   1.365  -7.343  0.00  0.00    -0.223 NA
ATOM      8  C   UNL     1      10.753   1.465  -8.239  0.00  0.00    +0.220 A 
ATOM      9  N   UNL     1       9.856   0.427  -8.440  0.00  0.00    -0.283 N 
ATOM     36  H   UNL     1       9.092   0.542  -9.105  0.00  0.00    +0.155 HD
ATOM     37  N   UNL     1      10.585   2.596  -8.955  0.00  0.00    -0.214 NA
BRANCH   4   3
ATOM      1  C   UNL     1      10.946   7.351 -10.055  0.00  0.00    +0.020 A 
ATOM      2  C   UNL     1      11.238   6.233  -9.187  0.00  0.00    +0.013 A 
ATOM      3  C   UNL     1      11.144   4.864  -9.680  0.00  0.00    +0.019 A 
ATOM     38  C   UNL     1      10.751   4.660 -11.066  0.00  0.00    +0.120 A 
ATOM     39  N   UNL     1      10.475   5.756 -11.877  0.00  0.00    -0.263 NA
ATOM     40  C   UNL     1      10.559   7.077 -11.414  0.00  0.00    +0.111 A 
ENDBRANCH   4   3
ENDBRANCH  10   9
BRANCH  12  13
ATOM     13  N   UNL     1      11.041  -4.406  -8.428  0.00  0.00    -0.281 N 
ATOM     14  C   UNL     1      10.346  -5.589  -8.615  0.00  0.00    +0.248 C 
ATOM     30  O   UNL     1       9.298  -5.871  -8.052  0.00  0.00    -0.270 OA
ATOM     31  H   UNL     1      11.989  -4.379  -8.802  0.00  0.00    +0.155 HD
BRANCH  14  15
ATOM     15  C   UNL     1      10.902  -6.614  -9.550  0.00  0.00    +0.037 A 
ATOM     16  C   UNL     1      10.034  -7.356 -10.467  0.00  0.00    +0.013 A 
ATOM     17  C   UNL     1      10.594  -8.351 -11.347  0.00  0.00    +0.005 A 
ATOM     18  C   UNL     1      12.032  -8.608 -11.314  0.00  0.00    -0.033 A 
ATOM     28  C   UNL     1      12.871  -7.854 -10.398  0.00  0.00    +0.005 A 
ATOM     29  C   UNL     1      12.325  -6.879  -9.533  0.00  0.00    +0.013 A 
BRANCH  18  19
ATOM     19  C   UNL     1      12.713  -9.667 -12.202  0.00  0.00    +0.119 C 
BRANCH  19  20
ATOM     20  N   UNL     1      12.846 -11.045 -11.644  0.00  0.00    -0.302 NA
ATOM     21  C   UNL     1      13.163 -12.077 -12.730  0.00  0.00    +0.066 C 
ATOM     22  C   UNL     1      13.322 -13.510 -12.124  0.00  0.00    -0.064 C 
ATOM     23  N   UNL     1      12.043 -13.888 -11.375  0.00  0.00    +0.379 N 
ATOM     24  C   UNL     1      12.167 -15.257 -10.854  0.00  0.00    -0.096 C 
ATOM     25  H   UNL     1      11.206 -13.880 -12.110  0.00  0.00    -0.082 HD
ATOM     26  C   UNL     1      11.719 -12.866 -10.295  0.00  0.00    -0.064 C 
ATOM     27  C   UNL     1      11.593 -11.441 -10.903  0.00  0.00    +0.066 C 
ENDBRANCH  19  20
ENDBRANCH  18  19
ENDBRANCH  14  15
ENDBRANCH  12  13
TORSDOF 6
ENDMDL
MODEL 4
REMARK VINA RESULT:      -8.4      9.163     11.397
REMARK  Name = C:\Users\Docking\Desktop\test protocol\1iep_ligandH.pdb
REMARK  8 active torsions:
REMARK  status: ('A' for Active; 'I' for Inactive)
REMARK    1  A    between atoms: _5  and  _11
REMARK    2  A    between atoms: _19  and  _21
REMARK    3  A    between atoms: _22  and  _66
REMARK    4  A    between atoms: _27  and  _30
REMARK    5  A    between atoms: _32  and  _33
REMARK    6  A    between atoms: _38  and  _43
REMARK    7  A    between atoms: _43  and  _46
REMARK    8  A    between atoms: _53  and  _55
REMARK                            x       y       z     vdW  Elec       q    Type
REMARK                         _______ _______ _______ _____ _____    ______ ____
ROOT
ATOM     10  C   UNL     1      11.773   9.917  -4.980  0.00  0.00    +0.038 A 
ATOM     11  C   UNL     1      11.032   9.860  -6.188  0.00  0.00    +0.047 A 
ATOM     12  C   UNL     1      11.485   9.054  -7.311  0.00  0.00    +0.035 A 
ATOM     32  C   UNL     1      12.696   8.317  -7.168  0.00  0.00    +0.024 A 
ATOM     33  C   UNL     1      13.463   8.364  -5.948  0.00  0.00    +0.007 A 
ATOM     34  C   UNL     1      13.022   9.159  -4.837  0.00  0.00    -0.029 A 
ATOM     35  C   UNL     1      13.887   9.177  -3.555  0.00  0.00    +0.045 C 
ENDROOT
BRANCH  10   9
ATOM      4  C   UNL     1       9.222  10.518  -0.959  0.00  0.00    +0.077 A 
ATOM      5  C   UNL     1       8.790   9.150  -0.958  0.00  0.00    +0.048 A 
ATOM      6  C   UNL     1       9.241   8.326  -2.014  0.00  0.00    +0.116 A 
ATOM      7  N   UNL     1      10.062   8.843  -2.992  0.00  0.00    -0.223 NA
ATOM      8  C   UNL     1      10.459  10.167  -2.964  0.00  0.00    +0.220 A 
ATOM      9  N   UNL     1      11.291  10.706  -3.933  0.00  0.00    -0.283 N 
ATOM     36  H   UNL     1      11.555  11.690  -3.881  0.00  0.00    +0.155 HD
ATOM     37  N   UNL     1      10.041  10.975  -1.967  0.00  0.00    -0.214 NA
BRANCH   4   3
ATOM      1  C   UNL     1       9.010  12.509   2.401  0.00  0.00    +0.020 A 
ATOM      2  C   UNL     1       9.421  11.527   1.424  0.00  0.00    +0.013 A 
ATOM      3  C   UNL     1       8.832  11.512   0.091  0.00  0.00    +0.019 A 
ATOM     38  C   UNL     1       7.823  12.511  -0.224  0.00  0.00    +0.120 A 
ATOM     39  N   UNL     1       7.446  13.443   0.738  0.00  0.00    -0.263 NA
ATOM     40  C   UNL     1       8.004  13.467   2.025  0.00  0.00    +0.111 A 
ENDBRANCH   4   3
ENDBRANCH  10   9
BRANCH  12  13
ATOM     13  N   UNL     1      10.779   8.964  -8.565  0.00  0.00    -0.281 N 
ATOM     14  C   UNL     1      10.823   9.846  -9.632  0.00  0.00    +0.248 C 
ATOM     30  O   UNL     1      11.315  10.964  -9.586  0.00  0.00    -0.270 OA
ATOM     31  H   UNL     1      10.174   8.151  -8.680  0.00  0.00    +0.155 HD
BRANCH  14  15
ATOM     15  C   UNL     1      10.221   9.432 -10.936  0.00  0.00    +0.037 A 
ATOM     16  C   UNL     1      10.144   8.021 -11.324  0.00  0.00    +0.013 A 
ATOM     17  C   UNL     1       9.574   7.651 -12.595  0.00  0.00    +0.005 A 
ATOM     18  C   UNL     1       9.074   8.694 -13.487  0.00  0.00    -0.033 A 
ATOM     28  C   UNL     1       9.158  10.085 -13.075  0.00  0.00    +0.005 A 
ATOM     29  C   UNL     1       9.718  10.452 -11.831  0.00  0.00    +0.013 A 
BRANCH  18  19
ATOM     19  C   UNL     1       8.469   8.392 -14.871  0.00  0.00    +0.119 C 
BRANCH  19  20
ATOM     20  N   UNL     1       8.488   9.492 -15.881  0.00  0.00    -0.302 NA
ATOM     21  C   UNL     1       7.826   9.076 -17.197  0.00  0.00    +0.066 C 
ATOM     22  C   UNL     1       7.834  10.246 -18.234  0.00  0.00    -0.064 C 
ATOM     23  N   UNL     1       9.274  10.702 -18.473  0.00  0.00    +0.379 N 
ATOM     24  C   UNL     1       9.291  11.763 -19.490  0.00  0.00    -0.096 C 
ATOM     25  H   UNL     1       9.840   9.833 -18.881  0.00  0.00    -0.082 HD
ATOM     26  C   UNL     1       9.941  11.115 -17.168  0.00  0.00    -0.064 C 
ATOM     27  C   UNL     1       9.901   9.955 -16.135  0.00  0.00    +0.066 C 
ENDBRANCH  19  20
ENDBRANCH  18  19
ENDBRANCH  14  15
ENDBRANCH  12  13
TORSDOF 6
ENDMDL
MODEL 5
REMARK VINA RESULT:      -8.4      2.573     13.557
REMARK  Name = C:\Users\Docking\Desktop\test protocol\1iep_ligandH.pdb
REMARK  8 active torsions:
REMARK  status: ('A' for Active; 'I' for Inactive)
REMARK    1  A    between atoms: _5  and  _11
REMARK    2  A    between atoms: _19  and  _21
REMARK    3  A    between atoms: _22  and  _66
REMARK    4  A    between atoms: _27  and  _30
REMARK    5  A    between atoms: _32  and  _33
REMARK    6  A    between atoms: _38  and  _43
REMARK    7  A    between atoms: _43  and  _46
REMARK    8  A    between atoms: _53  and  _55
REMARK                            x       y       z     vdW  Elec       q    Type
REMARK                         _______ _______ _______ _____ _____    ______ ____
ROOT
ATOM     10  C   UNL     1      11.052  10.347 -10.776  0.00  0.00    +0.038 A 
ATOM     11  C   UNL     1      10.949   8.953 -10.536  0.00  0.00    +0.047 A 
ATOM     12  C   UNL     1      11.109   8.406  -9.198  0.00  0.00    +0.035 A 
ATOM     32  C   UNL     1      11.371   9.308  -8.126  0.00  0.00    +0.024 A 
ATOM     33  C   UNL     1      11.480  10.728  -8.352  0.00  0.00    +0.007 A 
ATOM     34  C   UNL     1      11.326  11.273  -9.671  0.00  0.00    -0.029 A 
ATOM     35  C   UNL     1      11.459  12.803  -9.856  0.00  0.00    +0.045 C 
ENDROOT
BRANCH  10   9
ATOM      4  C   UNL     1       9.337   9.938 -15.240  0.00  0.00    +0.077 A 
ATOM      5  C   UNL     1       8.737   8.666 -14.957  0.00  0.00    +0.048 A 
ATOM      6  C   UNL     1       8.899   8.149 -13.652  0.00  0.00    +0.116 A 
ATOM      7  N   UNL     1       9.610   8.859 -12.709  0.00  0.00    -0.223 NA
ATOM      8  C   UNL     1      10.177  10.082 -13.016  0.00  0.00    +0.220 A 
ATOM      9  N   UNL     1      10.889  10.818 -12.081  0.00  0.00    -0.283 N 
ATOM     36  H   UNL     1      11.299  11.712 -12.349  0.00  0.00    +0.155 HD
ATOM     37  N   UNL     1      10.038  10.597 -14.255  0.00  0.00    -0.214 NA
BRANCH   4   3
ATOM      1  C   UNL     1       8.913  10.604 -19.072  0.00  0.00    +0.020 A 
ATOM      2  C   UNL     1       8.986   9.900 -17.812  0.00  0.00    +0.013 A 
ATOM      3  C   UNL     1       9.251  10.618 -16.572  0.00  0.00    +0.019 A 
ATOM     38  C   UNL     1       9.437  12.059 -16.641  0.00  0.00    +0.120 A 
ATOM     39  N   UNL     1       9.362  12.710 -17.868  0.00  0.00    -0.263 NA
ATOM     40  C   UNL     1       9.109  12.030 -19.069  0.00  0.00    +0.111 A 
ENDBRANCH   4   3
ENDBRANCH  10   9
BRANCH  12  13
ATOM     13  N   UNL     1      11.023   6.999  -8.895  0.00  0.00    -0.281 N 
ATOM     14  C   UNL     1      11.450   5.933  -9.670  0.00  0.00    +0.248 C 
ATOM     30  O   UNL     1      11.779   6.020 -10.844  0.00  0.00    -0.270 OA
ATOM     31  H   UNL     1      10.595   6.759  -8.000  0.00  0.00    +0.155 HD
BRANCH  14  15
ATOM     15  C   UNL     1      11.505   4.571  -9.057  0.00  0.00    +0.037 A 
ATOM     16  C   UNL     1      10.709   3.464  -9.593  0.00  0.00    +0.013 A 
ATOM     17  C   UNL     1      10.768   2.164  -8.973  0.00  0.00    +0.005 A 
ATOM     18  C   UNL     1      11.628   1.964  -7.809  0.00  0.00    -0.033 A 
ATOM     28  C   UNL     1      12.411   3.079  -7.301  0.00  0.00    +0.005 A 
ATOM     29  C   UNL     1      12.355   4.354  -7.906  0.00  0.00    +0.013 A 
BRANCH  18  19
ATOM     19  C   UNL     1      11.737   0.617  -7.071  0.00  0.00    +0.119 C 
BRANCH  19  20
ATOM     20  N   UNL     1      10.470   0.012  -6.562  0.00  0.00    -0.302 NA
ATOM     21  C   UNL     1      10.676  -0.718  -5.231  0.00  0.00    +0.066 C 
ATOM     22  C   UNL     1       9.336  -1.325  -4.702  0.00  0.00    -0.064 C 
ATOM     23  N   UNL     1       8.758  -2.272  -5.756  0.00  0.00    +0.379 N 
ATOM     24  C   UNL     1       7.528  -2.889  -5.238  0.00  0.00    -0.096 C 
ATOM     25  H   UNL     1       9.501  -3.086  -5.923  0.00  0.00    -0.082 HD
ATOM     26  C   UNL     1       8.552  -1.555  -7.083  0.00  0.00    -0.064 C 
ATOM     27  C   UNL     1       9.884  -0.930  -7.585  0.00  0.00    +0.066 C 
ENDBRANCH  19  20
ENDBRANCH  18  19
ENDBRANCH  14  15
ENDBRANCH  12  13
TORSDOF 6
ENDMDL
