MODEL 1
REMARK VINA RESULT:      -8.0      0.000      0.000
REMARK  Name = C:\Users\Docking\Desktop\test protocol\1iep_ligandH.pdb
REMARK  8 active torsions:
REMARK  status: ('A' for Active; 'I' for Inactive)
REMARK    1  A    between atoms: _5  and  _11
REMARK    2  A    between atoms: _19  and  _21
REMARK    3  A    between atoms: _22  and  _66
REMARK    4  A    between atoms: _27  and  _30
REMARK    5  A    between atoms: _32  and  _33
REMARK    6  A    between atoms: _38  and  _43
REMARK    7  A    between atoms: _43  and  _46
REMARK    8  A    between atoms: _53  and  _55
REMARK                            x       y       z     vdW  Elec       q    Type
REMARK                         _______ _______ _______ _____ _____    ______ ____
ROOT
ATOM     10  C   UNL     1     -31.339  -3.082  -0.375  0.00  0.00    +0.038 A 
ATOM     11  C   UNL     1     -31.648  -1.707  -0.216  0.00  0.00    +0.047 A 
ATOM     12  C   UNL     1     -31.038  -0.696  -1.066  0.00  0.00    +0.035 A 
ATOM     32  C   UNL     1     -30.120  -1.121  -2.070  0.00  0.00    +0.024 A 
ATOM     33  C   UNL     1     -29.794  -2.514  -2.245  0.00  0.00    +0.007 A 
ATOM     34  C   UNL     1     -30.390  -3.516  -1.408  0.00  0.00    -0.029 A 
ATOM     35  C   UNL     1     -29.999  -4.995  -1.636  0.00  0.00    +0.045 C 
ENDROOT
BRANCH  10   9
ATOM      4  C   UNL     1     -31.348  -5.939   3.482  0.00  0.00    +0.077 A 
ATOM      5  C   UNL     1     -30.006  -5.572   3.830  0.00  0.00    +0.048 A 
ATOM      6  C   UNL     1     -29.346  -4.650   2.987  0.00  0.00    +0.116 A 
ATOM      7  N   UNL     1     -29.989  -4.140   1.881  0.00  0.00    -0.223 NA
ATOM      8  C   UNL     1     -31.284  -4.516   1.572  0.00  0.00    +0.220 A 
ATOM      9  N   UNL     1     -31.953  -4.010   0.469  0.00  0.00    -0.283 N 
ATOM     36  H   UNL     1     -32.905  -4.318   0.271  0.00  0.00    +0.155 HD
ATOM     37  N   UNL     1     -31.935  -5.396   2.361  0.00  0.00    -0.214 NA
BRANCH   4   3
ATOM      1  C   UNL     1     -32.522  -9.081   5.495  0.00  0.00    +0.020 A 
ATOM      2  C   UNL     1     -31.679  -8.191   4.730  0.00  0.00    +0.013 A 
ATOM      3  C   UNL     1     -32.179  -6.899   4.276  0.00  0.00    +0.019 A 
ATOM     38  C   UNL     1     -33.546  -6.535   4.615  0.00  0.00    +0.120 A 
ATOM     39  N   UNL     1     -34.335  -7.413   5.351  0.00  0.00    -0.263 NA
ATOM     40  C   UNL     1     -33.866  -8.660   5.793  0.00  0.00    +0.111 A 
ENDBRANCH   4   3
ENDBRANCH  10   9
BRANCH  12  13
ATOM     13  N   UNL     1     -31.307   0.716  -0.946  0.00  0.00    -0.281 N 
ATOM     14  C   UNL     1     -31.536   1.629  -1.962  0.00  0.00    +0.248 C 
ATOM     30  O   UNL     1     -31.332   1.409  -3.147  0.00  0.00    -0.270 OA
ATOM     31  H   UNL     1     -31.331   1.087   0.004  0.00  0.00    +0.155 HD
BRANCH  14  15
ATOM     15  C   UNL     1     -32.052   2.987  -1.611  0.00  0.00    +0.037 A 
ATOM     16  C   UNL     1     -31.419   3.793  -0.564  0.00  0.00    +0.013 A 
ATOM     17  C   UNL     1     -31.948   5.092  -0.233  0.00  0.00    +0.005 A 
ATOM     18  C   UNL     1     -33.117   5.594  -0.952  0.00  0.00    -0.033 A 
ATOM     28  C   UNL     1     -33.722   4.776  -1.989  0.00  0.00    +0.005 A 
ATOM     29  C   UNL     1     -33.207   3.501  -2.315  0.00  0.00    +0.013 A 
BRANCH  18  19
ATOM     19  C   UNL     1     -33.761   6.960  -0.650  0.00  0.00    +0.119 C 
BRANCH  19  20
ATOM     20  N   UNL     1     -34.325   7.163   0.718  0.00  0.00    -0.302 NA
ATOM     21  C   UNL     1     -35.493   6.215   1.005  0.00  0.00    +0.066 C 
ATOM     22  C   UNL     1     -36.056   6.425   2.448  0.00  0.00    -0.064 C 
ATOM     23  N   UNL     1     -36.488   7.883   2.616  0.00  0.00    +0.379 N 
ATOM     24  C   UNL     1     -37.072   8.070   3.953  0.00  0.00    -0.096 C 
ATOM     25  H   UNL     1     -37.288   8.087   1.866  0.00  0.00    -0.082 HD
ATOM     26  C   UNL     1     -35.334   8.833   2.330  0.00  0.00    -0.064 C 
ATOM     27  C   UNL     1     -34.763   8.595   0.905  0.00  0.00    +0.066 C 
ENDBRANCH  19  20
ENDBRANCH  18  19
ENDBRANCH  14  15
ENDBRANCH  12  13
TORSDOF 6
ENDMDL
MODEL 2
REMARK VINA RESULT:      -8.0      4.095     12.496
REMARK  Name = C:\Users\Docking\Desktop\test protocol\1iep_ligandH.pdb
REMARK  8 active torsions:
REMARK  status: ('A' for Active; 'I' for Inactive)
REMARK    1  A    between atoms: _5  and  _11
REMARK    2  A    between atoms: _19  and  _21
REMARK    3  A    between atoms: _22  and  _66
REMARK    4  A    between atoms: _27  and  _30
REMARK    5  A    between atoms: _32  and  _33
REMARK    6  A    between atoms: _38  and  _43
REMARK    7  A    between atoms: _43  and  _46
REMARK    8  A    between atoms: _53  and  _55
REMARK                            x       y       z     vdW  Elec       q    Type
REMARK                         _______ _______ _______ _____ _____    ______ ____
ROOT
ATOM     10  C   UNL     1     -33.843   5.916  -1.235  0.00  0.00    +0.038 A 
ATOM     11  C   UNL     1     -33.398   4.569  -1.210  0.00  0.00    +0.047 A 
ATOM     12  C   UNL     1     -33.651   3.673  -2.327  0.00  0.00    +0.035 A 
ATOM     32  C   UNL     1     -34.358   4.181  -3.455  0.00  0.00    +0.024 A 
ATOM     33  C   UNL     1     -34.818   5.547  -3.497  0.00  0.00    +0.007 A 
ATOM     34  C   UNL     1     -34.574   6.436  -2.397  0.00  0.00    -0.029 A 
ATOM     35  C   UNL     1     -35.095   7.888  -2.494  0.00  0.00    +0.045 C 
ENDROOT
BRANCH  10   9
ATOM      4  C   UNL     1     -34.933   7.691   3.089  0.00  0.00    +0.077 A 
ATOM      5  C   UNL     1     -36.159   6.948   3.150  0.00  0.00    +0.048 A 
ATOM      6  C   UNL     1     -36.475   6.126   2.045  0.00  0.00    +0.116 A 
ATOM      7  N   UNL     1     -35.622   6.060   0.965  0.00  0.00    -0.223 NA
ATOM      8  C   UNL     1     -34.449   6.791   0.937  0.00  0.00    +0.220 A 
ATOM      9  N   UNL     1     -33.572   6.733  -0.135  0.00  0.00    -0.283 N 
ATOM     36  H   UNL     1     -32.721   7.294  -0.121  0.00  0.00    +0.155 HD
ATOM     37  N   UNL     1     -34.125   7.584   1.979  0.00  0.00    -0.214 NA
BRANCH   4   3
ATOM      1  C   UNL     1     -34.703  10.622   5.669  0.00  0.00    +0.020 A 
ATOM      2  C   UNL     1     -35.205   9.777   4.611  0.00  0.00    +0.013 A 
ATOM      3  C   UNL     1     -34.459   8.601   4.179  0.00  0.00    +0.019 A 
ATOM     38  C   UNL     1     -33.199   8.306   4.845  0.00  0.00    +0.120 A 
ATOM     39  N   UNL     1     -32.740   9.139   5.861  0.00  0.00    -0.263 NA
ATOM     40  C   UNL     1     -33.448  10.274   6.283  0.00  0.00    +0.111 A 
ENDBRANCH   4   3
ENDBRANCH  10   9
BRANCH  12  13
ATOM     13  N   UNL     1     -33.231   2.293  -2.354  0.00  0.00    -0.281 N 
ATOM     14  C   UNL     1     -31.940   1.798  -2.423  0.00  0.00    +0.248 C 
ATOM     30  O   UNL     1     -30.954   2.470  -2.687  0.00  0.00    -0.270 OA
ATOM     31  H   UNL     1     -33.977   1.598  -2.319  0.00  0.00    +0.155 HD
BRANCH  14  15
ATOM     15  C   UNL     1     -31.711   0.341  -2.176  0.00  0.00    +0.037 A 
ATOM     16  C   UNL     1     -31.777  -0.220  -0.824  0.00  0.00    +0.013 A 
ATOM     17  C   UNL     1     -31.535  -1.625  -0.611  0.00  0.00    +0.005 A 
ATOM     18  C   UNL     1     -31.227  -2.479  -1.755  0.00  0.00    -0.033 A 
ATOM     28  C   UNL     1     -31.174  -1.898  -3.086  0.00  0.00    +0.005 A 
ATOM     29  C   UNL     1     -31.409  -0.521  -3.298  0.00  0.00    +0.013 A 
BRANCH  18  19
ATOM     19  C   UNL     1     -30.935  -3.986  -1.619  0.00  0.00    +0.119 C 
BRANCH  19  20
ATOM     20  N   UNL     1     -29.926  -4.573  -2.550  0.00  0.00    -0.302 NA
ATOM     21  C   UNL     1     -30.526  -5.675  -3.428  0.00  0.00    +0.066 C 
ATOM     22  C   UNL     1     -29.462  -6.262  -4.411  0.00  0.00    -0.064 C 
ATOM     23  N   UNL     1     -28.272  -6.796  -3.611  0.00  0.00    +0.379 N 
ATOM     24  C   UNL     1     -27.296  -7.401  -4.528  0.00  0.00    -0.096 C 
ATOM     25  H   UNL     1     -28.651  -7.601  -2.939  0.00  0.00    -0.082 HD
ATOM     26  C   UNL     1     -27.671  -5.707  -2.733  0.00  0.00    -0.064 C 
ATOM     27  C   UNL     1     -28.744  -5.109  -1.781  0.00  0.00    +0.066 C 
ENDBRANCH  19  20
ENDBRANCH  18  19
ENDBRANCH  14  15
ENDBRANCH  12  13
TORSDOF 6
ENDMDL
MODEL 3
REMARK VINA RESULT:      -7.7      9.911     16.292
REMARK  Name = C:\Users\Docking\Desktop\test protocol\1iep_ligandH.pdb
REMARK  8 active torsions:
REMARK  status: ('A' for Active; 'I' for Inactive)
REMARK    1  A    between atoms: _5  and  _11
REMARK    2  A    between atoms: _19  and  _21
REMARK    3  A    between atoms: _22  and  _66
REMARK    4  A    between atoms: _27  and  _30
REMARK    5  A    between atoms: _32  and  _33
REMARK    6  A    between atoms: _38  and  _43
REMARK    7  A    between atoms: _43  and  _46
REMARK    8  A    between atoms: _53  and  _55
REMARK                            x       y       z     vdW  Elec       q    Type
REMARK                         _______ _______ _______ _____ _____    ______ ____
ROOT
ATOM     10  C   UNL     1     -36.406  10.851  -8.091  0.00  0.00    +0.038 A 
ATOM     11  C   UNL     1     -36.389  10.381  -6.753  0.00  0.00    +0.047 A 
ATOM     12  C   UNL     1     -35.161   9.898  -6.140  0.00  0.00    +0.035 A 
ATOM     32  C   UNL     1     -33.968   9.909  -6.919  0.00  0.00    +0.024 A 
ATOM     33  C   UNL     1     -33.967  10.382  -8.281  0.00  0.00    +0.007 A 
ATOM     34  C   UNL     1     -35.175  10.858  -8.891  0.00  0.00    -0.029 A 
ATOM     35  C   UNL     1     -35.117  11.348 -10.357  0.00  0.00    +0.045 C 
ENDROOT
BRANCH  10   9
ATOM      4  C   UNL     1     -40.540  10.125 -10.418  0.00  0.00    +0.077 A 
ATOM      5  C   UNL     1     -40.260   8.730 -10.602  0.00  0.00    +0.048 A 
ATOM      6  C   UNL     1     -39.038   8.241 -10.089  0.00  0.00    +0.116 A 
ATOM      7  N   UNL     1     -38.168   9.092  -9.442  0.00  0.00    -0.223 NA
ATOM      8  C   UNL     1     -38.468  10.432  -9.283  0.00  0.00    +0.220 A 
ATOM      9  N   UNL     1     -37.612  11.304  -8.629  0.00  0.00    -0.283 N 
ATOM     36  H   UNL     1     -37.867  12.288  -8.539  0.00  0.00    +0.155 HD
ATOM     37  N   UNL     1     -39.628  10.924  -9.765  0.00  0.00    -0.214 NA
BRANCH   4   3
ATOM      1  C   UNL     1     -43.331  12.778 -11.103  0.00  0.00    +0.020 A 
ATOM      2  C   UNL     1     -42.109  12.183 -10.613  0.00  0.00    +0.013 A 
ATOM      3  C   UNL     1     -41.791  10.791 -10.901  0.00  0.00    +0.019 A 
ATOM     38  C   UNL     1     -42.737  10.022 -11.696  0.00  0.00    +0.120 A 
ATOM     39  N   UNL     1     -43.906  10.621 -12.154  0.00  0.00    -0.263 NA
ATOM     40  C   UNL     1     -44.224  11.960 -11.881  0.00  0.00    +0.111 A 
ENDBRANCH   4   3
ENDBRANCH  10   9
BRANCH  12  13
ATOM     13  N   UNL     1     -35.085   9.401  -4.789  0.00  0.00    -0.281 N 
ATOM     14  C   UNL     1     -34.978  10.133  -3.617  0.00  0.00    +0.248 C 
ATOM     30  O   UNL     1     -34.714  11.326  -3.569  0.00  0.00    -0.270 OA
ATOM     31  H   UNL     1     -35.114   8.387  -4.682  0.00  0.00    +0.155 HD
BRANCH  14  15
ATOM     15  C   UNL     1     -35.177   9.437  -2.310  0.00  0.00    +0.037 A 
ATOM     16  C   UNL     1     -35.581   8.030  -2.252  0.00  0.00    +0.013 A 
ATOM     17  C   UNL     1     -35.783   7.387  -0.978  0.00  0.00    +0.005 A 
ATOM     18  C   UNL     1     -35.580   8.152   0.250  0.00  0.00    -0.033 A 
ATOM     28  C   UNL     1     -35.174   9.545   0.164  0.00  0.00    +0.005 A 
ATOM     29  C   UNL     1     -34.976  10.178  -1.083  0.00  0.00    +0.013 A 
BRANCH  18  19
ATOM     19  C   UNL     1     -35.793   7.553   1.653  0.00  0.00    +0.119 C 
BRANCH  19  20
ATOM     20  N   UNL     1     -34.742   7.823   2.679  0.00  0.00    -0.302 NA
ATOM     21  C   UNL     1     -33.465   7.021   2.418  0.00  0.00    +0.066 C 
ATOM     22  C   UNL     1     -32.368   7.333   3.488  0.00  0.00    -0.064 C 
ATOM     23  N   UNL     1     -32.920   7.034   4.882  0.00  0.00    +0.379 N 
ATOM     24  C   UNL     1     -31.872   7.271   5.886  0.00  0.00    -0.096 C 
ATOM     25  H   UNL     1     -33.183   5.951   4.917  0.00  0.00    -0.082 HD
ATOM     26  C   UNL     1     -34.192   7.826   5.149  0.00  0.00    -0.064 C 
ATOM     27  C   UNL     1     -35.265   7.531   4.064  0.00  0.00    +0.066 C 
ENDBRANCH  19  20
ENDBRANCH  18  19
ENDBRANCH  14  15
ENDBRANCH  12  13
TORSDOF 6
ENDMDL
MODEL 4
REMARK VINA RESULT:      -7.7      2.064      3.021
REMARK  Name = C:\Users\Docking\Desktop\test protocol\1iep_ligandH.pdb
REMARK  8 active torsions:
REMARK  status: ('A' for Active; 'I' for Inactive)
REMARK    1  A    between atoms: _5  and  _11
REMARK    2  A    between atoms: _19  and  _21
REMARK    3  A    between atoms: _22  and  _66
REMARK    4  A    between atoms: _27  and  _30
REMARK    5  A    between atoms: _32  and  _33
REMARK    6  A    between atoms: _38  and  _43
REMARK    7  A    between atoms: _43  and  _46
REMARK    8  A    between atoms: _53  and  _55
REMARK                            x       y       z     vdW  Elec       q    Type
REMARK                         _______ _______ _______ _____ _____    ______ ____
ROOT
ATOM     10  C   UNL     1     -31.529  -2.922  -0.580  0.00  0.00    +0.038 A 
ATOM     11  C   UNL     1     -32.004  -1.586  -0.580  0.00  0.00    +0.047 A 
ATOM     12  C   UNL     1     -31.443  -0.588  -1.478  0.00  0.00    +0.035 A 
ATOM     32  C   UNL     1     -30.400  -0.986  -2.364  0.00  0.00    +0.024 A 
ATOM     33  C   UNL     1     -29.905  -2.340  -2.377  0.00  0.00    +0.007 A 
ATOM     34  C   UNL     1     -30.452  -3.328  -1.492  0.00  0.00    -0.029 A 
ATOM     35  C   UNL     1     -29.878  -4.763  -1.544  0.00  0.00    +0.045 C 
ENDROOT
BRANCH  10   9
ATOM      4  C   UNL     1     -31.369  -5.710   3.324  0.00  0.00    +0.077 A 
ATOM      5  C   UNL     1     -30.017  -5.327   3.614  0.00  0.00    +0.048 A 
ATOM      6  C   UNL     1     -29.396  -4.417   2.730  0.00  0.00    +0.116 A 
ATOM      7  N   UNL     1     -30.086  -3.931   1.640  0.00  0.00    -0.223 NA
ATOM      8  C   UNL     1     -31.388  -4.321   1.389  0.00  0.00    +0.220 A 
ATOM      9  N   UNL     1     -32.103  -3.839   0.303  0.00  0.00    -0.283 N 
ATOM     36  H   UNL     1     -33.059  -4.157   0.148  0.00  0.00    +0.155 HD
ATOM     37  N   UNL     1     -32.003  -5.191   2.217  0.00  0.00    -0.214 NA
BRANCH   4   3
ATOM      1  C   UNL     1     -32.419  -8.790   5.495  0.00  0.00    +0.020 A 
ATOM      2  C   UNL     1     -31.611  -7.906   4.686  0.00  0.00    +0.013 A 
ATOM      3  C   UNL     1     -32.161  -6.661   4.166  0.00  0.00    +0.019 A 
ATOM     38  C   UNL     1     -33.543  -6.335   4.487  0.00  0.00    +0.120 A 
ATOM     39  N   UNL     1     -34.297  -7.206   5.268  0.00  0.00    -0.263 NA
ATOM     40  C   UNL     1     -33.779  -8.409   5.771  0.00  0.00    +0.111 A 
ENDBRANCH   4   3
ENDBRANCH  10   9
BRANCH  12  13
ATOM     13  N   UNL     1     -31.879   0.786  -1.517  0.00  0.00    -0.281 N 
ATOM     14  C   UNL     1     -32.168   1.556  -2.632  0.00  0.00    +0.248 C 
ATOM     30  O   UNL     1     -31.889   1.243  -3.780  0.00  0.00    -0.270 OA
ATOM     31  H   UNL     1     -31.988   1.247  -0.614  0.00  0.00    +0.155 HD
BRANCH  14  15
ATOM     15  C   UNL     1     -32.855   2.870  -2.444  0.00  0.00    +0.037 A 
ATOM     16  C   UNL     1     -33.814   3.375  -3.429  0.00  0.00    +0.013 A 
ATOM     17  C   UNL     1     -34.449   4.654  -3.231  0.00  0.00    +0.005 A 
ATOM     18  C   UNL     1     -34.127   5.437  -2.041  0.00  0.00    -0.033 A 
ATOM     28  C   UNL     1     -33.175   4.910  -1.076  0.00  0.00    +0.005 A 
ATOM     29  C   UNL     1     -32.550   3.657  -1.267  0.00  0.00    +0.013 A 
BRANCH  18  19
ATOM     19  C   UNL     1     -34.740   6.821  -1.759  0.00  0.00    +0.119 C 
BRANCH  19  20
ATOM     20  N   UNL     1     -34.456   7.908  -2.742  0.00  0.00    -0.302 NA
ATOM     21  C   UNL     1     -33.368   8.863  -2.245  0.00  0.00    +0.066 C 
ATOM     22  C   UNL     1     -33.067   9.981  -3.296  0.00  0.00    -0.064 C 
ATOM     23  N   UNL     1     -34.356  10.744  -3.607  0.00  0.00    +0.379 N 
ATOM     24  C   UNL     1     -34.065  11.833  -4.551  0.00  0.00    -0.096 C 
ATOM     25  H   UNL     1     -34.713  11.206  -2.657  0.00  0.00    -0.082 HD
ATOM     26  C   UNL     1     -35.445   9.801  -4.100  0.00  0.00    -0.064 C 
ATOM     27  C   UNL     1     -35.715   8.677  -3.061  0.00  0.00    +0.066 C 
ENDBRANCH  19  20
ENDBRANCH  18  19
ENDBRANCH  14  15
ENDBRANCH  12  13
TORSDOF 6
ENDMDL
MODEL 5
REMARK VINA RESULT:      -7.6     10.416     15.212
REMARK  Name = C:\Users\Docking\Desktop\test protocol\1iep_ligandH.pdb
REMARK  8 active torsions:
REMARK  status: ('A' for Active; 'I' for Inactive)
REMARK    1  A    between atoms: _5  and  _11
REMARK    2  A    between atoms: _19  and  _21
REMARK    3  A    between atoms: _22  and  _66
REMARK    4  A    between atoms: _27  and  _30
REMARK    5  A    between atoms: _32  and  _33
REMARK    6  A    between atoms: _38  and  _43
REMARK    7  A    between atoms: _43  and  _46
REMARK    8  A    between atoms: _53  and  _55
REMARK                            x       y       z     vdW  Elec       q    Type
REMARK                         _______ _______ _______ _____ _____    ______ ____
ROOT
ATOM     10  C   UNL     1     -35.340  11.746   7.464  0.00  0.00    +0.038 A 
ATOM     11  C   UNL     1     -35.534  11.046   6.246  0.00  0.00    +0.047 A 
ATOM     12  C   UNL     1     -34.403  10.603   5.445  0.00  0.00    +0.035 A 
ATOM     32  C   UNL     1     -33.088  10.888   5.916  0.00  0.00    +0.024 A 
ATOM     33  C   UNL     1     -32.873  11.599   7.152  0.00  0.00    +0.007 A 
ATOM     34  C   UNL     1     -33.985  12.041   7.945  0.00  0.00    -0.029 A 
ATOM     35  C   UNL     1     -33.695  12.805   9.258  0.00  0.00    +0.045 C 
ENDROOT
BRANCH  10   9
ATOM      4  C   UNL     1     -38.427  11.237  11.104  0.00  0.00    +0.077 A 
ATOM      5  C   UNL     1     -37.765  10.056  11.578  0.00  0.00    +0.048 A 
ATOM      6  C   UNL     1     -36.639   9.608  10.853  0.00  0.00    +0.116 A 
ATOM      7  N   UNL     1     -36.214  10.298   9.738  0.00  0.00    -0.223 NA
ATOM      8  C   UNL     1     -36.876  11.433   9.307  0.00  0.00    +0.220 A 
ATOM      9  N   UNL     1     -36.462  12.148   8.193  0.00  0.00    -0.283 N 
ATOM     36  H   UNL     1     -36.981  12.976   7.904  0.00  0.00    +0.155 HD
ATOM     37  N   UNL     1     -37.955  11.881   9.982  0.00  0.00    -0.214 NA
BRANCH   4   3
ATOM      1  C   UNL     1     -40.730  13.412  13.400  0.00  0.00    +0.020 A 
ATOM      2  C   UNL     1     -39.537  12.866  12.794  0.00  0.00    +0.013 A 
ATOM      3  C   UNL     1     -39.629  11.837  11.766  0.00  0.00    +0.019 A 
ATOM     38  C   UNL     1     -40.953  11.379  11.370  0.00  0.00    +0.120 A 
ATOM     39  N   UNL     1     -42.083  11.922  11.973  0.00  0.00    -0.263 NA
ATOM     40  C   UNL     1     -42.007  12.912  12.965  0.00  0.00    +0.111 A 
ENDBRANCH   4   3
ENDBRANCH  10   9
BRANCH  12  13
ATOM     13  N   UNL     1     -34.538   9.896   4.196  0.00  0.00    -0.281 N 
ATOM     14  C   UNL     1     -35.315   8.781   3.928  0.00  0.00    +0.248 C 
ATOM     30  O   UNL     1     -35.851   8.091   4.782  0.00  0.00    -0.270 OA
ATOM     31  H   UNL     1     -33.994  10.261   3.414  0.00  0.00    +0.155 HD
BRANCH  14  15
ATOM     15  C   UNL     1     -35.514   8.364   2.507  0.00  0.00    +0.037 A 
ATOM     16  C   UNL     1     -36.109   7.068   2.171  0.00  0.00    +0.013 A 
ATOM     17  C   UNL     1     -36.274   6.683   0.792  0.00  0.00    +0.005 A 
ATOM     18  C   UNL     1     -35.844   7.597  -0.263  0.00  0.00    -0.033 A 
ATOM     28  C   UNL     1     -35.261   8.878   0.098  0.00  0.00    +0.005 A 
ATOM     29  C   UNL     1     -35.097   9.259   1.449  0.00  0.00    +0.013 A 
BRANCH  18  19
ATOM     19  C   UNL     1     -35.962   7.260  -1.761  0.00  0.00    +0.119 C 
BRANCH  19  20
ATOM     20  N   UNL     1     -35.130   8.059  -2.709  0.00  0.00    -0.302 NA
ATOM     21  C   UNL     1     -35.969   9.062  -3.506  0.00  0.00    +0.066 C 
ATOM     22  C   UNL     1     -35.080   9.905  -4.477  0.00  0.00    -0.064 C 
ATOM     23  N   UNL     1     -34.323   8.965  -5.417  0.00  0.00    +0.379 N 
ATOM     24  C   UNL     1     -33.530   9.756  -6.369  0.00  0.00    -0.096 C 
ATOM     25  H   UNL     1     -35.079   8.390  -6.001  0.00  0.00    -0.082 HD
ATOM     26  C   UNL     1     -33.487   7.963  -4.633  0.00  0.00    -0.064 C 
ATOM     27  C   UNL     1     -34.377   7.151  -3.650  0.00  0.00    +0.066 C 
ENDBRANCH  19  20
ENDBRANCH  18  19
ENDBRANCH  14  15
ENDBRANCH  12  13
TORSDOF 6
ENDMDL
