MODEL 1
REMARK VINA RESULT:      -9.4      0.000      0.000
REMARK  Name = C:\Users\Docking\Desktop\test protocol\1iep_ligandH.pdb
REMARK  8 active torsions:
REMARK  status: ('A' for Active; 'I' for Inactive)
REMARK    1  A    between atoms: _5  and  _11
REMARK    2  A    between atoms: _19  and  _21
REMARK    3  A    between atoms: _22  and  _66
REMARK    4  A    between atoms: _27  and  _30
REMARK    5  A    between atoms: _32  and  _33
REMARK    6  A    between atoms: _38  and  _43
REMARK    7  A    between atoms: _43  and  _46
REMARK    8  A    between atoms: _53  and  _55
REMARK                            x       y       z     vdW  Elec       q    Type
REMARK                         _______ _______ _______ _____ _____    ______ ____
ROOT
ATOM     10  C   UNL     1     -29.475  -1.519 -20.959  0.00  0.00    +0.038 A 
ATOM     11  C   UNL     1     -29.426  -2.703 -21.737  0.00  0.00    +0.047 A 
ATOM     12  C   UNL     1     -30.021  -3.942 -21.261  0.00  0.00    +0.035 A 
ATOM     32  C   UNL     1     -30.661  -3.938 -19.987  0.00  0.00    +0.024 A 
ATOM     33  C   UNL     1     -30.719  -2.743 -19.182  0.00  0.00    +0.007 A 
ATOM     34  C   UNL     1     -30.131  -1.519 -19.646  0.00  0.00    -0.029 A 
ATOM     35  C   UNL     1     -30.218  -0.270 -18.737  0.00  0.00    +0.045 C 
ENDROOT
BRANCH  10   9
ATOM      4  C   UNL     1     -29.607   2.487 -23.600  0.00  0.00    +0.077 A 
ATOM      5  C   UNL     1     -30.952   2.230 -24.029  0.00  0.00    +0.048 A 
ATOM      6  C   UNL     1     -31.571   1.053 -23.553  0.00  0.00    +0.116 A 
ATOM      7  N   UNL     1     -30.887   0.203 -22.711  0.00  0.00    -0.223 NA
ATOM      8  C   UNL     1     -29.591   0.479 -22.318  0.00  0.00    +0.220 A 
ATOM      9  N   UNL     1     -28.887  -0.357 -21.465  0.00  0.00    -0.283 N 
ATOM     36  H   UNL     1     -27.930  -0.122 -21.204  0.00  0.00    +0.155 HD
ATOM     37  N   UNL     1     -28.977   1.596 -22.760  0.00  0.00    -0.214 NA
BRANCH   4   3
ATOM      1  C   UNL     1     -26.787   5.181 -23.901  0.00  0.00    +0.020 A 
ATOM      2  C   UNL     1     -27.506   4.006 -23.466  0.00  0.00    +0.013 A 
ATOM      3  C   UNL     1     -28.819   3.690 -24.015  0.00  0.00    +0.019 A 
ATOM     38  C   UNL     1     -29.380   4.591 -25.011  0.00  0.00    +0.120 A 
ATOM     39  N   UNL     1     -28.665   5.716 -25.409  0.00  0.00    -0.263 NA
ATOM     40  C   UNL     1     -27.402   6.031 -24.887  0.00  0.00    +0.111 A 
ENDBRANCH   4   3
ENDBRANCH  10   9
BRANCH  12  13
ATOM     13  N   UNL     1     -29.996  -5.177 -22.004  0.00  0.00    -0.281 N 
ATOM     14  C   UNL     1     -30.003  -5.345 -23.379  0.00  0.00    +0.248 C 
ATOM     30  O   UNL     1     -30.248  -4.457 -24.182  0.00  0.00    -0.270 OA
ATOM     31  H   UNL     1     -29.970  -6.033 -21.448  0.00  0.00    +0.155 HD
BRANCH  14  15
ATOM     15  C   UNL     1     -29.708  -6.697 -23.943  0.00  0.00    +0.037 A 
ATOM     16  C   UNL     1     -29.712  -6.935 -25.389  0.00  0.00    +0.013 A 
ATOM     17  C   UNL     1     -29.441  -8.252 -25.906  0.00  0.00    +0.005 A 
ATOM     18  C   UNL     1     -29.162  -9.343 -24.975  0.00  0.00    -0.033 A 
ATOM     28  C   UNL     1     -29.159  -9.079 -23.546  0.00  0.00    +0.005 A 
ATOM     29  C   UNL     1     -29.425  -7.789 -23.036  0.00  0.00    +0.013 A 
BRANCH  18  19
ATOM     19  C   UNL     1     -28.883 -10.786 -25.437  0.00  0.00    +0.119 C 
BRANCH  19  20
ATOM     20  N   UNL     1     -27.472 -11.269 -25.357  0.00  0.00    -0.302 NA
ATOM     21  C   UNL     1     -26.809 -11.337 -26.736  0.00  0.00    +0.066 C 
ATOM     22  C   UNL     1     -25.326 -11.823 -26.631  0.00  0.00    -0.064 C 
ATOM     23  N   UNL     1     -25.288 -13.188 -25.943  0.00  0.00    +0.379 N 
ATOM     24  C   UNL     1     -23.901 -13.674 -25.894  0.00  0.00    -0.096 C 
ATOM     25  H   UNL     1     -25.874 -13.900 -26.570  0.00  0.00    -0.082 HD
ATOM     26  C   UNL     1     -25.947 -13.130 -24.572  0.00  0.00    -0.064 C 
ATOM     27  C   UNL     1     -27.411 -12.618 -24.685  0.00  0.00    +0.066 C 
ENDBRANCH  19  20
ENDBRANCH  18  19
ENDBRANCH  14  15
ENDBRANCH  12  13
TORSDOF 6
ENDMDL
MODEL 2
REMARK VINA RESULT:      -9.4     21.816     26.268
REMARK  Name = C:\Users\Docking\Desktop\test protocol\1iep_ligandH.pdb
REMARK  8 active torsions:
REMARK  status: ('A' for Active; 'I' for Inactive)
REMARK    1  A    between atoms: _5  and  _11
REMARK    2  A    between atoms: _19  and  _21
REMARK    3  A    between atoms: _22  and  _66
REMARK    4  A    between atoms: _27  and  _30
REMARK    5  A    between atoms: _32  and  _33
REMARK    6  A    between atoms: _38  and  _43
REMARK    7  A    between atoms: _43  and  _46
REMARK    8  A    between atoms: _53  and  _55
REMARK                            x       y       z     vdW  Elec       q    Type
REMARK                         _______ _______ _______ _____ _____    ______ ____
ROOT
ATOM     10  C   UNL     1      -7.190   0.287 -11.304  0.00  0.00    +0.038 A 
ATOM     11  C   UNL     1      -7.870   1.530 -11.246  0.00  0.00    +0.047 A 
ATOM     12  C   UNL     1      -7.617   2.478 -10.173  0.00  0.00    +0.035 A 
ATOM     32  C   UNL     1      -6.661   2.129  -9.175  0.00  0.00    +0.024 A 
ATOM     33  C   UNL     1      -5.961   0.869  -9.217  0.00  0.00    +0.007 A 
ATOM     34  C   UNL     1      -6.209  -0.071 -10.272  0.00  0.00    -0.029 A 
ATOM     35  C   UNL     1      -5.434  -1.409 -10.264  0.00  0.00    +0.045 C 
ENDROOT
BRANCH  10   9
ATOM      4  C   UNL     1      -9.663  -3.335 -13.253  0.00  0.00    +0.077 A 
ATOM      5  C   UNL     1     -10.441  -3.523 -12.062  0.00  0.00    +0.048 A 
ATOM      6  C   UNL     1     -10.168  -2.671 -10.968  0.00  0.00    +0.116 A 
ATOM      7  N   UNL     1      -9.189  -1.707 -11.069  0.00  0.00    -0.223 NA
ATOM      8  C   UNL     1      -8.456  -1.553 -12.231  0.00  0.00    +0.220 A 
ATOM      9  N   UNL     1      -7.472  -0.585 -12.357  0.00  0.00    -0.283 N 
ATOM     36  H   UNL     1      -6.948  -0.509 -13.229  0.00  0.00    +0.155 HD
ATOM     37  N   UNL     1      -8.696  -2.355 -13.290  0.00  0.00    -0.214 NA
BRANCH   4   3
ATOM      1  C   UNL     1     -10.730  -4.521 -16.825  0.00  0.00    +0.020 A 
ATOM      2  C   UNL     1     -10.595  -3.691 -15.650  0.00  0.00    +0.013 A 
ATOM      3  C   UNL     1      -9.836  -4.154 -14.495  0.00  0.00    +0.019 A 
ATOM     38  C   UNL     1      -9.221  -5.471 -14.561  0.00  0.00    +0.120 A 
ATOM     39  N   UNL     1      -9.370  -6.249 -15.705  0.00  0.00    -0.263 NA
ATOM     40  C   UNL     1     -10.099  -5.815 -16.822  0.00  0.00    +0.111 A 
ENDBRANCH   4   3
ENDBRANCH  10   9
BRANCH  12  13
ATOM     13  N   UNL     1      -8.283   3.752 -10.058  0.00  0.00    -0.281 N 
ATOM     14  C   UNL     1      -8.009   4.922 -10.747  0.00  0.00    +0.248 C 
ATOM     30  O   UNL     1      -7.004   5.110 -11.417  0.00  0.00    -0.270 OA
ATOM     31  H   UNL     1      -9.050   3.796  -9.387  0.00  0.00    +0.155 HD
BRANCH  14  15
ATOM     15  C   UNL     1      -8.985   6.051 -10.670  0.00  0.00    +0.037 A 
ATOM     16  C   UNL     1      -9.298   6.867 -11.846  0.00  0.00    +0.013 A 
ATOM     17  C   UNL     1     -10.230   7.961 -11.739  0.00  0.00    +0.005 A 
ATOM     18  C   UNL     1     -10.857   8.245 -10.451  0.00  0.00    -0.033 A 
ATOM     28  C   UNL     1     -10.533   7.416  -9.302  0.00  0.00    +0.005 A 
ATOM     29  C   UNL     1      -9.619   6.344  -9.402  0.00  0.00    +0.013 A 
BRANCH  18  19
ATOM     19  C   UNL     1     -11.848   9.406 -10.240  0.00  0.00    +0.119 C 
BRANCH  19  20
ATOM     20  N   UNL     1     -13.295   9.057 -10.121  0.00  0.00    -0.302 NA
ATOM     21  C   UNL     1     -13.936   8.792 -11.487  0.00  0.00    +0.066 C 
ATOM     22  C   UNL     1     -15.445   8.407 -11.342  0.00  0.00    -0.064 C 
ATOM     23  N   UNL     1     -16.185   9.523 -10.602  0.00  0.00    +0.379 N 
ATOM     24  C   UNL     1     -17.614   9.190 -10.516  0.00  0.00    -0.096 C 
ATOM     25  H   UNL     1     -16.090  10.452 -11.211  0.00  0.00    -0.082 HD
ATOM     26  C   UNL     1     -15.552   9.794  -9.245  0.00  0.00    -0.064 C 
ATOM     27  C   UNL     1     -14.046  10.147  -9.398  0.00  0.00    +0.066 C 
ENDBRANCH  19  20
ENDBRANCH  18  19
ENDBRANCH  14  15
ENDBRANCH  12  13
TORSDOF 6
ENDMDL
MODEL 3
REMARK VINA RESULT:      -9.3     17.402     20.881
REMARK  Name = C:\Users\Docking\Desktop\test protocol\1iep_ligandH.pdb
REMARK  8 active torsions:
REMARK  status: ('A' for Active; 'I' for Inactive)
REMARK    1  A    between atoms: _5  and  _11
REMARK    2  A    between atoms: _19  and  _21
REMARK    3  A    between atoms: _22  and  _66
REMARK    4  A    between atoms: _27  and  _30
REMARK    5  A    between atoms: _32  and  _33
REMARK    6  A    between atoms: _38  and  _43
REMARK    7  A    between atoms: _43  and  _46
REMARK    8  A    between atoms: _53  and  _55
REMARK                            x       y       z     vdW  Elec       q    Type
REMARK                         _______ _______ _______ _____ _____    ______ ____
ROOT
ATOM     10  C   UNL     1     -22.294   6.926 -10.615  0.00  0.00    +0.038 A 
ATOM     11  C   UNL     1     -23.111   7.811 -11.364  0.00  0.00    +0.047 A 
ATOM     12  C   UNL     1     -24.560   7.780 -11.244  0.00  0.00    +0.035 A 
ATOM     32  C   UNL     1     -25.144   6.836 -10.350  0.00  0.00    +0.024 A 
ATOM     33  C   UNL     1     -24.329   5.928  -9.582  0.00  0.00    +0.007 A 
ATOM     34  C   UNL     1     -22.899   5.953  -9.697  0.00  0.00    -0.029 A 
ATOM     35  C   UNL     1     -22.075   4.952  -8.854  0.00  0.00    +0.045 C 
ENDROOT
BRANCH  10   9
ATOM      4  C   UNL     1     -17.996   8.723  -9.457  0.00  0.00    +0.077 A 
ATOM      5  C   UNL     1     -18.564   9.609  -8.483  0.00  0.00    +0.048 A 
ATOM      6  C   UNL     1     -19.966   9.577  -8.315  0.00  0.00    +0.116 A 
ATOM      7  N   UNL     1     -20.734   8.718  -9.071  0.00  0.00    -0.223 NA
ATOM      8  C   UNL     1     -20.155   7.877 -10.003  0.00  0.00    +0.220 A 
ATOM      9  N   UNL     1     -20.907   6.999 -10.768  0.00  0.00    -0.283 N 
ATOM     36  H   UNL     1     -20.444   6.400 -11.451  0.00  0.00    +0.155 HD
ATOM     37  N   UNL     1     -18.818   7.890 -10.183  0.00  0.00    -0.214 NA
BRANCH   4   3
ATOM      1  C   UNL     1     -14.565   8.539 -11.327  0.00  0.00    +0.020 A 
ATOM      2  C   UNL     1     -15.990   8.622 -11.101  0.00  0.00    +0.013 A 
ATOM      3  C   UNL     1     -16.530   8.637  -9.748  0.00  0.00    +0.019 A 
ATOM     38  C   UNL     1     -15.594   8.567  -8.635  0.00  0.00    +0.120 A 
ATOM     39  N   UNL     1     -14.227   8.487  -8.883  0.00  0.00    -0.263 NA
ATOM     40  C   UNL     1     -13.696   8.470 -10.182  0.00  0.00    +0.111 A 
ENDBRANCH   4   3
ENDBRANCH  10   9
BRANCH  12  13
ATOM     13  N   UNL     1     -25.441   8.648 -11.985  0.00  0.00    -0.281 N 
ATOM     14  C   UNL     1     -25.760   9.969 -11.715  0.00  0.00    +0.248 C 
ATOM     30  O   UNL     1     -25.500  10.543 -10.668  0.00  0.00    -0.270 OA
ATOM     31  H   UNL     1     -25.884   8.239 -12.808  0.00  0.00    +0.155 HD
BRANCH  14  15
ATOM     15  C   UNL     1     -26.485  10.763 -12.753  0.00  0.00    +0.037 A 
ATOM     16  C   UNL     1     -27.685  10.239 -13.411  0.00  0.00    +0.013 A 
ATOM     17  C   UNL     1     -28.356  11.018 -14.421  0.00  0.00    +0.005 A 
ATOM     18  C   UNL     1     -27.828  12.333 -14.778  0.00  0.00    -0.033 A 
ATOM     28  C   UNL     1     -26.639  12.831 -14.107  0.00  0.00    +0.005 A 
ATOM     29  C   UNL     1     -25.979  12.069 -13.117  0.00  0.00    +0.013 A 
BRANCH  18  19
ATOM     19  C   UNL     1     -28.467  13.224 -15.860  0.00  0.00    +0.119 C 
BRANCH  19  20
ATOM     20  N   UNL     1     -29.193  12.539 -16.970  0.00  0.00    -0.302 NA
ATOM     21  C   UNL     1     -28.991  13.247 -18.312  0.00  0.00    +0.066 C 
ATOM     22  C   UNL     1     -29.739  12.504 -19.467  0.00  0.00    -0.064 C 
ATOM     23  N   UNL     1     -31.226  12.404 -19.125  0.00  0.00    +0.379 N 
ATOM     24  C   UNL     1     -31.942  11.757 -20.235  0.00  0.00    -0.096 C 
ATOM     25  H   UNL     1     -31.621  13.442 -19.028  0.00  0.00    -0.082 HD
ATOM     26  C   UNL     1     -31.436  11.703 -17.791  0.00  0.00    -0.064 C 
ATOM     27  C   UNL     1     -30.665  12.433 -16.656  0.00  0.00    +0.066 C 
ENDBRANCH  19  20
ENDBRANCH  18  19
ENDBRANCH  14  15
ENDBRANCH  12  13
TORSDOF 6
ENDMDL
MODEL 4
REMARK VINA RESULT:      -8.7     18.187     20.511
REMARK  Name = C:\Users\Docking\Desktop\test protocol\1iep_ligandH.pdb
REMARK  8 active torsions:
REMARK  status: ('A' for Active; 'I' for Inactive)
REMARK    1  A    between atoms: _5  and  _11
REMARK    2  A    between atoms: _19  and  _21
REMARK    3  A    between atoms: _22  and  _66
REMARK    4  A    between atoms: _27  and  _30
REMARK    5  A    between atoms: _32  and  _33
REMARK    6  A    between atoms: _38  and  _43
REMARK    7  A    between atoms: _43  and  _46
REMARK    8  A    between atoms: _53  and  _55
REMARK                            x       y       z     vdW  Elec       q    Type
REMARK                         _______ _______ _______ _____ _____    ______ ____
ROOT
ATOM     10  C   UNL     1     -26.393  13.254 -13.241  0.00  0.00    +0.038 A 
ATOM     11  C   UNL     1     -25.220  12.456 -13.241  0.00  0.00    +0.047 A 
ATOM     12  C   UNL     1     -24.661  11.940 -12.001  0.00  0.00    +0.035 A 
ATOM     32  C   UNL     1     -25.324  12.253 -10.779  0.00  0.00    +0.024 A 
ATOM     33  C   UNL     1     -26.517  13.063 -10.760  0.00  0.00    +0.007 A 
ATOM     34  C   UNL     1     -27.071  13.577 -11.980  0.00  0.00    -0.029 A 
ATOM     35  C   UNL     1     -28.348  14.446 -11.900  0.00  0.00    +0.045 C 
ENDROOT
BRANCH  10   9
ATOM      4  C   UNL     1     -29.092  12.775 -17.180  0.00  0.00    +0.077 A 
ATOM      5  C   UNL     1     -29.537  11.469 -16.789  0.00  0.00    +0.048 A 
ATOM      6  C   UNL     1     -29.042  10.953 -15.570  0.00  0.00    +0.116 A 
ATOM      7  N   UNL     1     -28.168  11.697 -14.808  0.00  0.00    -0.223 NA
ATOM      8  C   UNL     1     -27.758  12.954 -15.215  0.00  0.00    +0.220 A 
ATOM      9  N   UNL     1     -26.886  13.723 -14.460  0.00  0.00    -0.283 N 
ATOM     36  H   UNL     1     -26.602  14.642 -14.799  0.00  0.00    +0.155 HD
ATOM     37  N   UNL     1     -28.215  13.468 -16.376  0.00  0.00    -0.214 NA
BRANCH   4   3
ATOM      1  C   UNL     1     -29.151  14.230 -20.811  0.00  0.00    +0.020 A 
ATOM      2  C   UNL     1     -28.681  13.561 -19.620  0.00  0.00    +0.013 A 
ATOM      3  C   UNL     1     -29.529  13.458 -18.439  0.00  0.00    +0.019 A 
ATOM     38  C   UNL     1     -30.859  14.046 -18.498  0.00  0.00    +0.120 A 
ATOM     39  N   UNL     1     -31.284  14.686 -19.658  0.00  0.00    -0.263 NA
ATOM     40  C   UNL     1     -30.475  14.793 -20.799  0.00  0.00    +0.111 A 
ENDBRANCH   4   3
ENDBRANCH  10   9
BRANCH  12  13
ATOM     13  N   UNL     1     -23.468  11.132 -11.938  0.00  0.00    -0.281 N 
ATOM     14  C   UNL     1     -22.153  11.541 -12.090  0.00  0.00    +0.248 C 
ATOM     30  O   UNL     1     -21.815  12.635 -12.516  0.00  0.00    -0.270 OA
ATOM     31  H   UNL     1     -23.610  10.138 -11.761  0.00  0.00    +0.155 HD
BRANCH  14  15
ATOM     15  C   UNL     1     -21.056  10.593 -11.728  0.00  0.00    +0.037 A 
ATOM     16  C   UNL     1     -21.251   9.143 -11.797  0.00  0.00    +0.013 A 
ATOM     17  C   UNL     1     -20.181   8.251 -11.426  0.00  0.00    +0.005 A 
ATOM     18  C   UNL     1     -18.905   8.808 -10.985  0.00  0.00    -0.033 A 
ATOM     28  C   UNL     1     -18.737  10.251 -10.931  0.00  0.00    +0.005 A 
ATOM     29  C   UNL     1     -19.783  11.128 -11.293  0.00  0.00    +0.013 A 
BRANCH  18  19
ATOM     19  C   UNL     1     -17.716   7.931 -10.550  0.00  0.00    +0.119 C 
BRANCH  19  20
ATOM     20  N   UNL     1     -16.404   8.614 -10.339  0.00  0.00    -0.302 NA
ATOM     21  C   UNL     1     -15.403   8.292 -11.452  0.00  0.00    +0.066 C 
ATOM     22  C   UNL     1     -14.045   9.033 -11.227  0.00  0.00    -0.064 C 
ATOM     23  N   UNL     1     -13.477   8.646  -9.860  0.00  0.00    +0.379 N 
ATOM     24  C   UNL     1     -12.172   9.295  -9.669  0.00  0.00    -0.096 C 
ATOM     25  H   UNL     1     -13.310   7.544  -9.863  0.00  0.00    -0.082 HD
ATOM     26  C   UNL     1     -14.467   8.960  -8.747  0.00  0.00    -0.064 C 
ATOM     27  C   UNL     1     -15.824   8.243  -8.996  0.00  0.00    +0.066 C 
ENDBRANCH  19  20
ENDBRANCH  18  19
ENDBRANCH  14  15
ENDBRANCH  12  13
TORSDOF 6
ENDMDL
MODEL 5
REMARK VINA RESULT:      -8.6      1.918     12.163
REMARK  Name = C:\Users\Docking\Desktop\test protocol\1iep_ligandH.pdb
REMARK  8 active torsions:
REMARK  status: ('A' for Active; 'I' for Inactive)
REMARK    1  A    between atoms: _5  and  _11
REMARK    2  A    between atoms: _19  and  _21
REMARK    3  A    between atoms: _22  and  _66
REMARK    4  A    between atoms: _27  and  _30
REMARK    5  A    between atoms: _32  and  _33
REMARK    6  A    between atoms: _38  and  _43
REMARK    7  A    between atoms: _43  and  _46
REMARK    8  A    between atoms: _53  and  _55
REMARK                            x       y       z     vdW  Elec       q    Type
REMARK                         _______ _______ _______ _____ _____    ______ ____
ROOT
ATOM     10  C   UNL     1     -29.572  -7.707 -22.501  0.00  0.00    +0.038 A 
ATOM     11  C   UNL     1     -29.631  -6.302 -22.686  0.00  0.00    +0.047 A 
ATOM     12  C   UNL     1     -30.598  -5.488 -21.965  0.00  0.00    +0.035 A 
ATOM     32  C   UNL     1     -31.488  -6.138 -21.061  0.00  0.00    +0.024 A 
ATOM     33  C   UNL     1     -31.442  -7.565 -20.861  0.00  0.00    +0.007 A 
ATOM     34  C   UNL     1     -30.492  -8.373 -21.571  0.00  0.00    -0.029 A 
ATOM     35  C   UNL     1     -30.492  -9.900 -21.323  0.00  0.00    +0.045 C 
ENDROOT
BRANCH  10   9
ATOM      4  C   UNL     1     -28.281 -10.487 -26.194  0.00  0.00    +0.077 A 
ATOM      5  C   UNL     1     -29.614 -10.504 -26.724  0.00  0.00    +0.048 A 
ATOM      6  C   UNL     1     -30.604  -9.790 -26.012  0.00  0.00    +0.116 A 
ATOM      7  N   UNL     1     -30.274  -9.114 -24.858  0.00  0.00    -0.223 NA
ATOM      8  C   UNL     1     -28.979  -9.119 -24.373  0.00  0.00    +0.220 A 
ATOM      9  N   UNL     1     -28.624  -8.439 -23.218  0.00  0.00    -0.283 N 
ATOM     36  H   UNL     1     -27.659  -8.474 -22.890  0.00  0.00    +0.155 HD
ATOM     37  N   UNL     1     -28.016  -9.794 -25.034  0.00  0.00    -0.214 NA
BRANCH   4   3
ATOM      1  C   UNL     1     -24.698 -11.872 -26.931  0.00  0.00    +0.020 A 
ATOM      2  C   UNL     1     -25.779 -11.175 -26.274  0.00  0.00    +0.013 A 
ATOM      3  C   UNL     1     -27.125 -11.190 -26.834  0.00  0.00    +0.019 A 
ATOM     38  C   UNL     1     -27.344 -11.926 -28.070  0.00  0.00    +0.120 A 
ATOM     39  N   UNL     1     -26.283 -12.586 -28.682  0.00  0.00    -0.263 NA
ATOM     40  C   UNL     1     -24.983 -12.577 -28.153  0.00  0.00    +0.111 A 
ENDBRANCH   4   3
ENDBRANCH  10   9
BRANCH  12  13
ATOM     13  N   UNL     1     -30.711  -4.059 -22.118  0.00  0.00    -0.281 N 
ATOM     14  C   UNL     1     -30.185  -3.071 -21.302  0.00  0.00    +0.248 C 
ATOM     30  O   UNL     1     -29.716  -3.269 -20.191  0.00  0.00    -0.270 OA
ATOM     31  H   UNL     1     -31.242  -3.736 -22.927  0.00  0.00    +0.155 HD
BRANCH  14  15
ATOM     15  C   UNL     1     -30.196  -1.655 -21.782  0.00  0.00    +0.037 A 
ATOM     16  C   UNL     1     -31.219  -1.177 -22.715  0.00  0.00    +0.013 A 
ATOM     17  C   UNL     1     -31.196   0.188 -23.177  0.00  0.00    +0.005 A 
ATOM     18  C   UNL     1     -30.146   1.086 -22.703  0.00  0.00    -0.033 A 
ATOM     28  C   UNL     1     -29.146   0.587 -21.774  0.00  0.00    +0.005 A 
ATOM     29  C   UNL     1     -29.165  -0.751 -21.320  0.00  0.00    +0.013 A 
BRANCH  18  19
ATOM     19  C   UNL     1     -30.031   2.553 -23.159  0.00  0.00    +0.119 C 
BRANCH  19  20
ATOM     20  N   UNL     1     -28.917   2.894 -24.093  0.00  0.00    -0.302 NA
ATOM     21  C   UNL     1     -27.920   3.872 -23.466  0.00  0.00    +0.066 C 
ATOM     22  C   UNL     1     -26.749   4.200 -24.449  0.00  0.00    -0.064 C 
ATOM     23  N   UNL     1     -27.322   4.769 -25.748  0.00  0.00    +0.379 N 
ATOM     24  C   UNL     1     -26.221   5.133 -26.652  0.00  0.00    -0.096 C 
ATOM     25  H   UNL     1     -27.873   5.704 -25.494  0.00  0.00    -0.082 HD
ATOM     26  C   UNL     1     -28.316   3.804 -26.377  0.00  0.00    -0.064 C 
ATOM     27  C   UNL     1     -29.460   3.461 -25.382  0.00  0.00    +0.066 C 
ENDBRANCH  19  20
ENDBRANCH  18  19
ENDBRANCH  14  15
ENDBRANCH  12  13
TORSDOF 6
ENDMDL
