MODEL 1
REMARK VINA RESULT:     -10.0      0.000      0.000
REMARK  Name = C:\Users\Docking\Desktop\test protocol\1iep_ligandH.pdb
REMARK  8 active torsions:
REMARK  status: ('A' for Active; 'I' for Inactive)
REMARK    1  A    between atoms: _5  and  _11
REMARK    2  A    between atoms: _19  and  _21
REMARK    3  A    between atoms: _22  and  _66
REMARK    4  A    between atoms: _27  and  _30
REMARK    5  A    between atoms: _32  and  _33
REMARK    6  A    between atoms: _38  and  _43
REMARK    7  A    between atoms: _43  and  _46
REMARK    8  A    between atoms: _53  and  _55
REMARK                            x       y       z     vdW  Elec       q    Type
REMARK                         _______ _______ _______ _____ _____    ______ ____
ROOT
ATOM     10  C   UNL     1      17.873  -1.022  -4.682  0.00  0.00    +0.038 A 
ATOM     11  C   UNL     1      17.780  -1.020  -3.267  0.00  0.00    +0.047 A 
ATOM     12  C   UNL     1      18.281   0.098  -2.482  0.00  0.00    +0.035 A 
ATOM     32  C   UNL     1      18.868   1.199  -3.171  0.00  0.00    +0.024 A 
ATOM     33  C   UNL     1      18.972   1.212  -4.609  0.00  0.00    +0.007 A 
ATOM     34  C   UNL     1      18.482   0.112  -5.389  0.00  0.00    -0.029 A 
ATOM     35  C   UNL     1      18.626   0.177  -6.927  0.00  0.00    +0.045 C 
ENDROOT
BRANCH  10   9
ATOM      4  C   UNL     1      17.917  -5.681  -5.836  0.00  0.00    +0.077 A 
ATOM      5  C   UNL     1      19.041  -5.942  -4.985  0.00  0.00    +0.048 A 
ATOM      6  C   UNL     1      19.584  -4.849  -4.273  0.00  0.00    +0.116 A 
ATOM      7  N   UNL     1      19.034  -3.592  -4.409  0.00  0.00    -0.223 NA
ATOM      8  C   UNL     1      17.950  -3.374  -5.240  0.00  0.00    +0.220 A 
ATOM      9  N   UNL     1      17.376  -2.121  -5.386  0.00  0.00    -0.283 N 
ATOM     36  H   UNL     1      16.583  -2.000  -6.015  0.00  0.00    +0.155 HD
ATOM     37  N   UNL     1      17.415  -4.402  -5.932  0.00  0.00    -0.214 NA
BRANCH   4   3
ATOM      1  C   UNL     1      16.510  -7.745  -8.847  0.00  0.00    +0.020 A 
ATOM      2  C   UNL     1      17.186  -6.703  -8.108  0.00  0.00    +0.013 A 
ATOM      3  C   UNL     1      17.231  -6.733  -6.651  0.00  0.00    +0.019 A 
ATOM     38  C   UNL     1      16.578  -7.839  -5.968  0.00  0.00    +0.120 A 
ATOM     39  N   UNL     1      15.934  -8.827  -6.706  0.00  0.00    -0.263 NA
ATOM     40  C   UNL     1      15.882  -8.808  -8.108  0.00  0.00    +0.111 A 
ENDBRANCH   4   3
ENDBRANCH  10   9
BRANCH  12  13
ATOM     13  N   UNL     1      18.221   0.152  -1.042  0.00  0.00    -0.281 N 
ATOM     14  C   UNL     1      17.924  -0.876  -0.163  0.00  0.00    +0.248 C 
ATOM     30  O   UNL     1      17.453  -1.954  -0.493  0.00  0.00    -0.270 OA
ATOM     31  H   UNL     1      18.422   1.059  -0.620  0.00  0.00    +0.155 HD
BRANCH  14  15
ATOM     15  C   UNL     1      18.173  -0.672   1.297  0.00  0.00    +0.037 A 
ATOM     16  C   UNL     1      19.125  -1.510   2.030  0.00  0.00    +0.013 A 
ATOM     17  C   UNL     1      19.334  -1.303   3.441  0.00  0.00    +0.005 A 
ATOM     18  C   UNL     1      18.588  -0.251   4.129  0.00  0.00    -0.033 A 
ATOM     28  C   UNL     1      17.654   0.569   3.376  0.00  0.00    +0.005 A 
ATOM     29  C   UNL     1      17.446   0.368   1.993  0.00  0.00    +0.013 A 
BRANCH  18  19
ATOM     19  C   UNL     1      18.732   0.026   5.637  0.00  0.00    +0.119 C 
BRANCH  19  20
ATOM     20  N   UNL     1      18.074   1.256   6.172  0.00  0.00    -0.302 NA
ATOM     21  C   UNL     1      19.027   2.453   6.197  0.00  0.00    +0.066 C 
ATOM     22  C   UNL     1      18.316   3.736   6.737  0.00  0.00    -0.064 C 
ATOM     23  N   UNL     1      17.760   3.457   8.135  0.00  0.00    +0.379 N 
ATOM     24  C   UNL     1      17.142   4.679   8.670  0.00  0.00    -0.096 C 
ATOM     25  H   UNL     1      18.620   3.196   8.795  0.00  0.00    -0.082 HD
ATOM     26  C   UNL     1      16.813   2.266   8.120  0.00  0.00    -0.064 C 
ATOM     27  C   UNL     1      17.521   1.004   7.553  0.00  0.00    +0.066 C 
ENDBRANCH  19  20
ENDBRANCH  18  19
ENDBRANCH  14  15
ENDBRANCH  12  13
TORSDOF 6
ENDMDL
MODEL 2
REMARK VINA RESULT:      -9.9      3.027     12.915
REMARK  Name = C:\Users\Docking\Desktop\test protocol\1iep_ligandH.pdb
REMARK  8 active torsions:
REMARK  status: ('A' for Active; 'I' for Inactive)
REMARK    1  A    between atoms: _5  and  _11
REMARK    2  A    between atoms: _19  and  _21
REMARK    3  A    between atoms: _22  and  _66
REMARK    4  A    between atoms: _27  and  _30
REMARK    5  A    between atoms: _32  and  _33
REMARK    6  A    between atoms: _38  and  _43
REMARK    7  A    between atoms: _43  and  _46
REMARK    8  A    between atoms: _53  and  _55
REMARK                            x       y       z     vdW  Elec       q    Type
REMARK                         _______ _______ _______ _____ _____    ______ ____
ROOT
ATOM     10  C   UNL     1      17.822   0.607   2.850  0.00  0.00    +0.038 A 
ATOM     11  C   UNL     1      17.660   0.314   1.472  0.00  0.00    +0.047 A 
ATOM     12  C   UNL     1      18.279  -0.860   0.875  0.00  0.00    +0.035 A 
ATOM     32  C   UNL     1      19.053  -1.715   1.712  0.00  0.00    +0.024 A 
ATOM     33  C   UNL     1      19.229  -1.431   3.115  0.00  0.00    +0.007 A 
ATOM     34  C   UNL     1      18.623  -0.274   3.709  0.00  0.00    -0.029 A 
ATOM     35  C   UNL     1      18.851  -0.016   5.216  0.00  0.00    +0.045 C 
ENDROOT
BRANCH  10   9
ATOM      4  C   UNL     1      17.455   5.367   3.347  0.00  0.00    +0.077 A 
ATOM      5  C   UNL     1      18.604   5.601   2.520  0.00  0.00    +0.048 A 
ATOM      6  C   UNL     1      19.265   4.470   1.992  0.00  0.00    +0.116 A 
ATOM      7  N   UNL     1      18.803   3.203   2.277  0.00  0.00    -0.223 NA
ATOM      8  C   UNL     1      17.693   3.012   3.079  0.00  0.00    +0.220 A 
ATOM      9  N   UNL     1      17.206   1.747   3.371  0.00  0.00    -0.283 N 
ATOM     36  H   UNL     1      16.389   1.648   3.973  0.00  0.00    +0.155 HD
ATOM     37  N   UNL     1      17.045   4.076   3.596  0.00  0.00    -0.214 NA
BRANCH   4   3
ATOM      1  C   UNL     1      14.459   7.556   4.585  0.00  0.00    +0.020 A 
ATOM      2  C   UNL     1      15.190   6.476   3.963  0.00  0.00    +0.013 A 
ATOM      3  C   UNL     1      16.648   6.461   3.975  0.00  0.00    +0.019 A 
ATOM     38  C   UNL     1      17.340   7.560   4.630  0.00  0.00    +0.120 A 
ATOM     39  N   UNL     1      16.609   8.587   5.219  0.00  0.00    -0.263 NA
ATOM     40  C   UNL     1      15.206   8.614   5.212  0.00  0.00    +0.111 A 
ENDBRANCH   4   3
ENDBRANCH  10   9
BRANCH  12  13
ATOM     13  N   UNL     1      18.156  -1.204  -0.520  0.00  0.00    -0.281 N 
ATOM     14  C   UNL     1      18.479  -0.427  -1.620  0.00  0.00    +0.248 C 
ATOM     30  O   UNL     1      18.724   0.769  -1.574  0.00  0.00    -0.270 OA
ATOM     31  H   UNL     1      17.787  -2.133  -0.720  0.00  0.00    +0.155 HD
BRANCH  14  15
ATOM     15  C   UNL     1      18.522  -1.069  -2.969  0.00  0.00    +0.037 A 
ATOM     16  C   UNL     1      17.800  -0.494  -4.108  0.00  0.00    +0.013 A 
ATOM     17  C   UNL     1      17.845  -1.143  -5.394  0.00  0.00    +0.005 A 
ATOM     18  C   UNL     1      18.617  -2.374  -5.549  0.00  0.00    -0.033 A 
ATOM     28  C   UNL     1      19.328  -2.919  -4.405  0.00  0.00    +0.005 A 
ATOM     29  C   UNL     1      19.286  -2.286  -3.142  0.00  0.00    +0.013 A 
BRANCH  18  19
ATOM     19  C   UNL     1      18.704  -3.144  -6.880  0.00  0.00    +0.119 C 
BRANCH  19  20
ATOM     20  N   UNL     1      17.645  -4.162  -7.151  0.00  0.00    -0.302 NA
ATOM     21  C   UNL     1      16.490  -3.584  -7.974  0.00  0.00    +0.066 C 
ATOM     22  C   UNL     1      15.402  -4.668  -8.267  0.00  0.00    -0.064 C 
ATOM     23  N   UNL     1      14.890  -5.244  -6.945  0.00  0.00    +0.379 N 
ATOM     24  C   UNL     1      13.826  -6.222  -7.215  0.00  0.00    -0.096 C 
ATOM     25  H   UNL     1      14.441  -4.406  -6.363  0.00  0.00    -0.082 HD
ATOM     26  C   UNL     1      16.033  -5.818  -6.120  0.00  0.00    -0.064 C 
ATOM     27  C   UNL     1      17.122  -4.741  -5.859  0.00  0.00    +0.066 C 
ENDBRANCH  19  20
ENDBRANCH  18  19
ENDBRANCH  14  15
ENDBRANCH  12  13
TORSDOF 6
ENDMDL
MODEL 3
REMARK VINA RESULT:      -9.5      3.036     13.095
REMARK  Name = C:\Users\Docking\Desktop\test protocol\1iep_ligandH.pdb
REMARK  8 active torsions:
REMARK  status: ('A' for Active; 'I' for Inactive)
REMARK    1  A    between atoms: _5  and  _11
REMARK    2  A    between atoms: _19  and  _21
REMARK    3  A    between atoms: _22  and  _66
REMARK    4  A    between atoms: _27  and  _30
REMARK    5  A    between atoms: _32  and  _33
REMARK    6  A    between atoms: _38  and  _43
REMARK    7  A    between atoms: _43  and  _46
REMARK    8  A    between atoms: _53  and  _55
REMARK                            x       y       z     vdW  Elec       q    Type
REMARK                         _______ _______ _______ _____ _____    ______ ____
ROOT
ATOM     10  C   UNL     1      17.906   0.187   2.272  0.00  0.00    +0.038 A 
ATOM     11  C   UNL     1      17.755  -0.050   0.882  0.00  0.00    +0.047 A 
ATOM     12  C   UNL     1      18.366  -1.205   0.244  0.00  0.00    +0.035 A 
ATOM     32  C   UNL     1      19.124  -2.101   1.053  0.00  0.00    +0.024 A 
ATOM     33  C   UNL     1      19.289  -1.876   2.467  0.00  0.00    +0.007 A 
ATOM     34  C   UNL     1      18.690  -0.737   3.102  0.00  0.00    -0.029 A 
ATOM     35  C   UNL     1      18.906  -0.541   4.621  0.00  0.00    +0.045 C 
ENDROOT
BRANCH  10   9
ATOM      4  C   UNL     1      17.515   4.933   2.868  0.00  0.00    +0.077 A 
ATOM      5  C   UNL     1      18.635   5.193   2.011  0.00  0.00    +0.048 A 
ATOM      6  C   UNL     1      19.290   4.077   1.442  0.00  0.00    +0.116 A 
ATOM      7  N   UNL     1      18.847   2.801   1.717  0.00  0.00    -0.223 NA
ATOM      8  C   UNL     1      17.764   2.586   2.549  0.00  0.00    +0.220 A 
ATOM      9  N   UNL     1      17.297   1.311   2.833  0.00  0.00    -0.283 N 
ATOM     36  H   UNL     1      16.500   1.194   3.458  0.00  0.00    +0.155 HD
ATOM     37  N   UNL     1      17.123   3.634   3.106  0.00  0.00    -0.214 NA
BRANCH   4   3
ATOM      1  C   UNL     1      14.544   7.034   4.303  0.00  0.00    +0.020 A 
ATOM      2  C   UNL     1      15.265   5.971   3.642  0.00  0.00    +0.013 A 
ATOM      3  C   UNL     1      16.718   6.008   3.541  0.00  0.00    +0.019 A 
ATOM     38  C   UNL     1      17.418   7.143   4.124  0.00  0.00    +0.120 A 
ATOM     39  N   UNL     1      16.696   8.153   4.753  0.00  0.00    -0.263 NA
ATOM     40  C   UNL     1      15.297   8.129   4.855  0.00  0.00    +0.111 A 
ENDBRANCH   4   3
ENDBRANCH  10   9
BRANCH  12  13
ATOM     13  N   UNL     1      18.254  -1.492  -1.165  0.00  0.00    -0.281 N 
ATOM     14  C   UNL     1      19.150  -1.175  -2.173  0.00  0.00    +0.248 C 
ATOM     30  O   UNL     1      20.089  -0.404  -2.045  0.00  0.00    -0.270 OA
ATOM     31  H   UNL     1      17.411  -1.988  -1.454  0.00  0.00    +0.155 HD
BRANCH  14  15
ATOM     15  C   UNL     1      18.967  -1.793  -3.521  0.00  0.00    +0.037 A 
ATOM     16  C   UNL     1      19.194  -3.224  -3.739  0.00  0.00    +0.013 A 
ATOM     17  C   UNL     1      19.027  -3.791  -5.053  0.00  0.00    +0.005 A 
ATOM     18  C   UNL     1      18.630  -2.926  -6.161  0.00  0.00    -0.033 A 
ATOM     28  C   UNL     1      18.406  -1.511  -5.917  0.00  0.00    +0.005 A 
ATOM     29  C   UNL     1      18.570  -0.951  -4.630  0.00  0.00    +0.013 A 
BRANCH  18  19
ATOM     19  C   UNL     1      18.449  -3.441  -7.601  0.00  0.00    +0.119 C 
BRANCH  19  20
ATOM     20  N   UNL     1      17.561  -4.626  -7.797  0.00  0.00    -0.302 NA
ATOM     21  C   UNL     1      17.709  -5.230  -9.197  0.00  0.00    +0.066 C 
ATOM     22  C   UNL     1      16.789  -6.481  -9.377  0.00  0.00    -0.064 C 
ATOM     23  N   UNL     1      15.336  -6.085  -9.109  0.00  0.00    +0.379 N 
ATOM     24  C   UNL     1      14.462  -7.246  -9.334  0.00  0.00    -0.096 C 
ATOM     25  H   UNL     1      15.057  -5.302  -9.851  0.00  0.00    -0.082 HD
ATOM     26  C   UNL     1      15.180  -5.481  -7.720  0.00  0.00    -0.064 C 
ATOM     27  C   UNL     1      16.120  -4.257  -7.542  0.00  0.00    +0.066 C 
ENDBRANCH  19  20
ENDBRANCH  18  19
ENDBRANCH  14  15
ENDBRANCH  12  13
TORSDOF 6
ENDMDL
MODEL 4
REMARK VINA RESULT:      -9.4      3.313     13.844
REMARK  Name = C:\Users\Docking\Desktop\test protocol\1iep_ligandH.pdb
REMARK  8 active torsions:
REMARK  status: ('A' for Active; 'I' for Inactive)
REMARK    1  A    between atoms: _5  and  _11
REMARK    2  A    between atoms: _19  and  _21
REMARK    3  A    between atoms: _22  and  _66
REMARK    4  A    between atoms: _27  and  _30
REMARK    5  A    between atoms: _32  and  _33
REMARK    6  A    between atoms: _38  and  _43
REMARK    7  A    between atoms: _43  and  _46
REMARK    8  A    between atoms: _53  and  _55
REMARK                            x       y       z     vdW  Elec       q    Type
REMARK                         _______ _______ _______ _____ _____    ______ ____
ROOT
ATOM     10  C   UNL     1      18.885   2.810   4.741  0.00  0.00    +0.038 A 
ATOM     11  C   UNL     1      18.938   2.504   3.357  0.00  0.00    +0.047 A 
ATOM     12  C   UNL     1      18.953   1.126   2.890  0.00  0.00    +0.035 A 
ATOM     32  C   UNL     1      18.910   0.084   3.861  0.00  0.00    +0.024 A 
ATOM     33  C   UNL     1      18.857   0.376   5.272  0.00  0.00    +0.007 A 
ATOM     34  C   UNL     1      18.845   1.734   5.738  0.00  0.00    -0.029 A 
ATOM     35  C   UNL     1      18.794   1.988   7.263  0.00  0.00    +0.045 C 
ENDROOT
BRANCH  10   9
ATOM      4  C   UNL     1      16.934   7.194   4.767  0.00  0.00    +0.077 A 
ATOM      5  C   UNL     1      15.861   6.787   3.906  0.00  0.00    +0.048 A 
ATOM      6  C   UNL     1      15.853   5.442   3.472  0.00  0.00    +0.116 A 
ATOM      7  N   UNL     1      16.847   4.578   3.877  0.00  0.00    -0.223 NA
ATOM      8  C   UNL     1      17.868   5.004   4.707  0.00  0.00    +0.220 A 
ATOM      9  N   UNL     1      18.873   4.150   5.133  0.00  0.00    -0.283 N 
ATOM     36  H   UNL     1      19.613   4.505   5.739  0.00  0.00    +0.155 HD
ATOM     37  N   UNL     1      17.899   6.284   5.133  0.00  0.00    -0.214 NA
BRANCH   4   3
ATOM      1  C   UNL     1      17.677  11.022   5.084  0.00  0.00    +0.020 A 
ATOM      2  C   UNL     1      17.555   9.702   4.510  0.00  0.00    +0.013 A 
ATOM      3  C   UNL     1      17.079   8.582   5.312  0.00  0.00    +0.019 A 
ATOM     38  C   UNL     1      16.731   8.833   6.702  0.00  0.00    +0.120 A 
ATOM     39  N   UNL     1      16.860  10.115   7.228  0.00  0.00    -0.263 NA
ATOM     40  C   UNL     1      17.318  11.200   6.467  0.00  0.00    +0.111 A 
ENDBRANCH   4   3
ENDBRANCH  10   9
BRANCH  12  13
ATOM     13  N   UNL     1      19.014   0.755   1.498  0.00  0.00    -0.281 N 
ATOM     14  C   UNL     1      18.064   0.074   0.756  0.00  0.00    +0.248 C 
ATOM     30  O   UNL     1      17.103  -0.511   1.234  0.00  0.00    -0.270 OA
ATOM     31  H   UNL     1      19.861   1.028   0.999  0.00  0.00    +0.155 HD
BRANCH  14  15
ATOM     15  C   UNL     1      18.210   0.022  -0.731  0.00  0.00    +0.037 A 
ATOM     16  C   UNL     1      19.073   0.967  -1.443  0.00  0.00    +0.013 A 
ATOM     17  C   UNL     1      19.182   0.906  -2.879  0.00  0.00    +0.005 A 
ATOM     18  C   UNL     1      18.426  -0.107  -3.612  0.00  0.00    -0.033 A 
ATOM     28  C   UNL     1      17.582  -1.036  -2.880  0.00  0.00    +0.005 A 
ATOM     29  C   UNL     1      17.471  -0.978  -1.473  0.00  0.00    +0.013 A 
BRANCH  18  19
ATOM     19  C   UNL     1      18.466  -0.232  -5.147  0.00  0.00    +0.119 C 
BRANCH  19  20
ATOM     20  N   UNL     1      17.994  -1.518  -5.741  0.00  0.00    -0.302 NA
ATOM     21  C   UNL     1      19.121  -2.550  -5.845  0.00  0.00    +0.066 C 
ATOM     22  C   UNL     1      18.604  -3.898  -6.447  0.00  0.00    -0.064 C 
ATOM     23  N   UNL     1      17.982  -3.634  -7.819  0.00  0.00    +0.379 N 
ATOM     24  C   UNL     1      17.548  -4.907  -8.414  0.00  0.00    -0.096 C 
ATOM     25  H   UNL     1      18.778  -3.209  -8.475  0.00  0.00    -0.082 HD
ATOM     26  C   UNL     1      16.863  -2.607  -7.726  0.00  0.00    -0.064 C 
ATOM     27  C   UNL     1      17.380  -1.282  -7.099  0.00  0.00    +0.066 C 
ENDBRANCH  19  20
ENDBRANCH  18  19
ENDBRANCH  14  15
ENDBRANCH  12  13
TORSDOF 6
ENDMDL
MODEL 5
REMARK VINA RESULT:      -9.3      3.112     13.186
REMARK  Name = C:\Users\Docking\Desktop\test protocol\1iep_ligandH.pdb
REMARK  8 active torsions:
REMARK  status: ('A' for Active; 'I' for Inactive)
REMARK    1  A    between atoms: _5  and  _11
REMARK    2  A    between atoms: _19  and  _21
REMARK    3  A    between atoms: _22  and  _66
REMARK    4  A    between atoms: _27  and  _30
REMARK    5  A    between atoms: _32  and  _33
REMARK    6  A    between atoms: _38  and  _43
REMARK    7  A    between atoms: _43  and  _46
REMARK    8  A    between atoms: _53  and  _55
REMARK                            x       y       z     vdW  Elec       q    Type
REMARK                         _______ _______ _______ _____ _____    ______ ____
ROOT
ATOM     10  C   UNL     1      17.852  -0.675   0.847  0.00  0.00    +0.038 A 
ATOM     11  C   UNL     1      17.483  -0.897  -0.504  0.00  0.00    +0.047 A 
ATOM     12  C   UNL     1      17.987  -2.044  -1.243  0.00  0.00    +0.035 A 
ATOM     32  C   UNL     1      18.865  -2.946  -0.574  0.00  0.00    +0.024 A 
ATOM     33  C   UNL     1      19.252  -2.735   0.799  0.00  0.00    +0.007 A 
ATOM     34  C   UNL     1      18.759  -1.604   1.532  0.00  0.00    -0.029 A 
ATOM     35  C   UNL     1      19.212  -1.423   2.999  0.00  0.00    +0.045 C 
ENDROOT
BRANCH  10   9
ATOM      4  C   UNL     1      18.009   3.964   2.070  0.00  0.00    +0.077 A 
ATOM      5  C   UNL     1      19.234   4.173   1.352  0.00  0.00    +0.048 A 
ATOM      6  C   UNL     1      19.795   3.059   0.687  0.00  0.00    +0.116 A 
ATOM      7  N   UNL     1      19.168   1.833   0.743  0.00  0.00    -0.223 NA
ATOM      8  C   UNL     1      17.989   1.665   1.445  0.00  0.00    +0.220 A 
ATOM      9  N   UNL     1      17.338   0.443   1.508  0.00  0.00    -0.283 N 
ATOM     36  H   UNL     1      16.474   0.359   2.043  0.00  0.00    +0.155 HD
ATOM     37  N   UNL     1      17.434   2.713   2.090  0.00  0.00    -0.214 NA
BRANCH   4   3
ATOM      1  C   UNL     1      17.246   7.152   4.204  0.00  0.00    +0.020 A 
ATOM      2  C   UNL     1      17.986   6.134   3.494  0.00  0.00    +0.013 A 
ATOM      3  C   UNL     1      17.293   5.044   2.819  0.00  0.00    +0.019 A 
ATOM     38  C   UNL     1      15.839   5.013   2.882  0.00  0.00    +0.120 A 
ATOM     39  N   UNL     1      15.154   6.006   3.575  0.00  0.00    -0.263 NA
ATOM     40  C   UNL     1      15.810   7.059   4.229  0.00  0.00    +0.111 A 
ENDBRANCH   4   3
ENDBRANCH  10   9
BRANCH  12  13
ATOM     13  N   UNL     1      17.654  -2.318  -2.619  0.00  0.00    -0.281 N 
ATOM     14  C   UNL     1      18.247  -1.800  -3.759  0.00  0.00    +0.248 C 
ATOM     30  O   UNL     1      19.021  -0.854  -3.766  0.00  0.00    -0.270 OA
ATOM     31  H   UNL     1      16.886  -2.972  -2.771  0.00  0.00    +0.155 HD
BRANCH  14  15
ATOM     15  C   UNL     1      17.924  -2.413  -5.083  0.00  0.00    +0.037 A 
ATOM     16  C   UNL     1      17.454  -1.596  -6.204  0.00  0.00    +0.013 A 
ATOM     17  C   UNL     1      17.133  -2.214  -7.466  0.00  0.00    +0.005 A 
ATOM     18  C   UNL     1      17.283  -3.660  -7.613  0.00  0.00    -0.033 A 
ATOM     28  C   UNL     1      17.758  -4.446  -6.486  0.00  0.00    +0.005 A 
ATOM     29  C   UNL     1      18.072  -3.844  -5.248  0.00  0.00    +0.013 A 
BRANCH  18  19
ATOM     19  C   UNL     1      16.944  -4.408  -8.916  0.00  0.00    +0.119 C 
BRANCH  19  20
ATOM     20  N   UNL     1      15.739  -5.290  -8.905  0.00  0.00    -0.302 NA
ATOM     21  C   UNL     1      16.029  -6.666  -9.510  0.00  0.00    +0.066 C 
ATOM     22  C   UNL     1      14.764  -7.584  -9.470  0.00  0.00    -0.064 C 
ATOM     23  N   UNL     1      13.616  -6.897 -10.211  0.00  0.00    +0.379 N 
ATOM     24  C   UNL     1      12.442  -7.782 -10.225  0.00  0.00    -0.096 C 
ATOM     25  H   UNL     1      13.938  -6.746 -11.267  0.00  0.00    -0.082 HD
ATOM     26  C   UNL     1      13.323  -5.526  -9.618  0.00  0.00    -0.064 C 
ATOM     27  C   UNL     1      14.594  -4.633  -9.636  0.00  0.00    +0.066 C 
ENDBRANCH  19  20
ENDBRANCH  18  19
ENDBRANCH  14  15
ENDBRANCH  12  13
TORSDOF 6
ENDMDL
