MODEL 1
REMARK VINA RESULT:     -12.1      0.000      0.000
REMARK  Name = C:\Users\Docking\Desktop\test protocol\1iep_ligandH.pdb
REMARK  8 active torsions:
REMARK  status: ('A' for Active; 'I' for Inactive)
REMARK    1  A    between atoms: _5  and  _11
REMARK    2  A    between atoms: _19  and  _21
REMARK    3  A    between atoms: _22  and  _66
REMARK    4  A    between atoms: _27  and  _30
REMARK    5  A    between atoms: _32  and  _33
REMARK    6  A    between atoms: _38  and  _43
REMARK    7  A    between atoms: _43  and  _46
REMARK    8  A    between atoms: _53  and  _55
REMARK                            x       y       z     vdW  Elec       q    Type
REMARK                         _______ _______ _______ _____ _____    ______ ____
ROOT
ATOM     10  C   UNL     1      36.930  14.288  72.951  0.00  0.00    +0.038 A 
ATOM     11  C   UNL     1      37.723  14.057  74.104  0.00  0.00    +0.047 A 
ATOM     12  C   UNL     1      39.114  13.648  73.991  0.00  0.00    +0.035 A 
ATOM     32  C   UNL     1      39.667  13.487  72.687  0.00  0.00    +0.024 A 
ATOM     33  C   UNL     1      38.876  13.716  71.504  0.00  0.00    +0.007 A 
ATOM     34  C   UNL     1      37.502  14.117  71.610  0.00  0.00    -0.029 A 
ATOM     35  C   UNL     1      36.698  14.343  70.307  0.00  0.00    +0.045 C 
ENDROOT
BRANCH  10   9
ATOM      4  C   UNL     1      32.233  13.327  73.172  0.00  0.00    +0.077 A 
ATOM      5  C   UNL     1      32.445  11.933  72.906  0.00  0.00    +0.048 A 
ATOM      6  C   UNL     1      33.777  11.505  72.711  0.00  0.00    +0.116 A 
ATOM      7  N   UNL     1      34.813  12.413  72.780  0.00  0.00    -0.223 NA
ATOM      8  C   UNL     1      34.573  13.750  73.036  0.00  0.00    +0.220 A 
ATOM      9  N   UNL     1      35.599  14.678  73.118  0.00  0.00    -0.283 N 
ATOM     36  H   UNL     1      35.381  15.657  73.301  0.00  0.00    +0.155 HD
ATOM     37  N   UNL     1      33.309  14.184  73.225  0.00  0.00    -0.214 NA
BRANCH   4   3
ATOM      1  C   UNL     1      29.361  15.714  74.335  0.00  0.00    +0.020 A 
ATOM      2  C   UNL     1      30.686  15.173  74.140  0.00  0.00    +0.013 A 
ATOM      3  C   UNL     1      30.882  13.931  73.403  0.00  0.00    +0.019 A 
ATOM     38  C   UNL     1      29.708  13.257  72.871  0.00  0.00    +0.120 A 
ATOM     39  N   UNL     1      28.444  13.801  73.076  0.00  0.00    -0.263 NA
ATOM     40  C   UNL     1      28.242  14.995  73.785  0.00  0.00    +0.111 A 
ENDBRANCH   4   3
ENDBRANCH  10   9
BRANCH  12  13
ATOM     13  N   UNL     1      39.966  13.392  75.126  0.00  0.00    -0.281 N 
ATOM     14  C   UNL     1      40.186  12.185  75.770  0.00  0.00    +0.248 C 
ATOM     30  O   UNL     1      39.516  11.178  75.599  0.00  0.00    -0.270 OA
ATOM     31  H   UNL     1      40.467  14.198  75.500  0.00  0.00    +0.155 HD
BRANCH  14  15
ATOM     15  C   UNL     1      41.304  12.087  76.757  0.00  0.00    +0.037 A 
ATOM     16  C   UNL     1      41.180  11.271  77.967  0.00  0.00    +0.013 A 
ATOM     17  C   UNL     1      42.267  11.207  78.911  0.00  0.00    +0.005 A 
ATOM     18  C   UNL     1      43.490  11.962  78.648  0.00  0.00    -0.033 A 
ATOM     28  C   UNL     1      43.588  12.760  77.437  0.00  0.00    +0.005 A 
ATOM     29  C   UNL     1      42.524  12.826  76.509  0.00  0.00    +0.013 A 
BRANCH  18  19
ATOM     19  C   UNL     1      44.692  11.970  79.610  0.00  0.00    +0.119 C 
BRANCH  19  20
ATOM     20  N   UNL     1      45.290  13.296  79.948  0.00  0.00    -0.302 NA
ATOM     21  C   UNL     1      46.637  13.155  80.661  0.00  0.00    +0.066 C 
ATOM     22  C   UNL     1      47.259  14.552  80.986  0.00  0.00    -0.064 C 
ATOM     23  N   UNL     1      46.277  15.358  81.839  0.00  0.00    +0.379 N 
ATOM     24  C   UNL     1      46.882  16.649  82.195  0.00  0.00    -0.096 C 
ATOM     25  H   UNL     1      46.106  14.792  82.784  0.00  0.00    -0.082 HD
ATOM     26  C   UNL     1      44.933  15.501  81.138  0.00  0.00    -0.064 C 
ATOM     27  C   UNL     1      44.338  14.107  80.793  0.00  0.00    +0.066 C 
ENDBRANCH  19  20
ENDBRANCH  18  19
ENDBRANCH  14  15
ENDBRANCH  12  13
TORSDOF 6
ENDMDL
MODEL 2
REMARK VINA RESULT:     -11.6      2.045     13.219
REMARK  Name = C:\Users\Docking\Desktop\test protocol\1iep_ligandH.pdb
REMARK  8 active torsions:
REMARK  status: ('A' for Active; 'I' for Inactive)
REMARK    1  A    between atoms: _5  and  _11
REMARK    2  A    between atoms: _19  and  _21
REMARK    3  A    between atoms: _22  and  _66
REMARK    4  A    between atoms: _27  and  _30
REMARK    5  A    between atoms: _32  and  _33
REMARK    6  A    between atoms: _38  and  _43
REMARK    7  A    between atoms: _43  and  _46
REMARK    8  A    between atoms: _53  and  _55
REMARK                            x       y       z     vdW  Elec       q    Type
REMARK                         _______ _______ _______ _____ _____    ______ ____
ROOT
ATOM     10  C   UNL     1      38.999  13.814  73.544  0.00  0.00    +0.038 A 
ATOM     11  C   UNL     1      37.621  13.658  73.843  0.00  0.00    +0.047 A 
ATOM     12  C   UNL     1      36.621  13.627  72.787  0.00  0.00    +0.035 A 
ATOM     32  C   UNL     1      37.059  13.755  71.437  0.00  0.00    +0.024 A 
ATOM     33  C   UNL     1      38.456  13.915  71.115  0.00  0.00    +0.007 A 
ATOM     34  C   UNL     1      39.447  13.949  72.153  0.00  0.00    -0.029 A 
ATOM     35  C   UNL     1      40.929  14.130  71.750  0.00  0.00    +0.045 C 
ENDROOT
BRANCH  10   9
ATOM      4  C   UNL     1      41.401  11.683  77.112  0.00  0.00    +0.077 A 
ATOM      5  C   UNL     1      40.753  10.425  76.875  0.00  0.00    +0.048 A 
ATOM      6  C   UNL     1      39.803  10.370  75.831  0.00  0.00    +0.116 A 
ATOM      7  N   UNL     1      39.529  11.496  75.085  0.00  0.00    -0.223 NA
ATOM      8  C   UNL     1      40.170  12.694  75.340  0.00  0.00    +0.220 A 
ATOM      9  N   UNL     1      39.916  13.837  74.597  0.00  0.00    -0.283 N 
ATOM     36  H   UNL     1      40.404  14.703  74.821  0.00  0.00    +0.155 HD
ATOM     37  N   UNL     1      41.081  12.773  76.333  0.00  0.00    -0.214 NA
BRANCH   4   3
ATOM      1  C   UNL     1      43.632  11.234  80.293  0.00  0.00    +0.020 A 
ATOM      2  C   UNL     1      42.623  10.979  79.290  0.00  0.00    +0.013 A 
ATOM      3  C   UNL     1      42.430  11.900  78.177  0.00  0.00    +0.019 A 
ATOM     38  C   UNL     1      43.281  13.078  78.107  0.00  0.00    +0.120 A 
ATOM     39  N   UNL     1      44.243  13.298  79.087  0.00  0.00    -0.263 NA
ATOM     40  C   UNL     1      44.437  12.420  80.164  0.00  0.00    +0.111 A 
ENDBRANCH   4   3
ENDBRANCH  10   9
BRANCH  12  13
ATOM     13  N   UNL     1      35.207  13.479  73.030  0.00  0.00    -0.281 N 
ATOM     14  C   UNL     1      34.311  14.446  73.457  0.00  0.00    +0.248 C 
ATOM     30  O   UNL     1      34.632  15.538  73.902  0.00  0.00    -0.270 OA
ATOM     31  H   UNL     1      34.820  12.549  72.868  0.00  0.00    +0.155 HD
BRANCH  14  15
ATOM     15  C   UNL     1      32.847  14.151  73.394  0.00  0.00    +0.037 A 
ATOM     16  C   UNL     1      31.858  15.101  73.909  0.00  0.00    +0.013 A 
ATOM     17  C   UNL     1      30.453  14.784  73.852  0.00  0.00    +0.005 A 
ATOM     18  C   UNL     1      30.029  13.510  73.275  0.00  0.00    -0.033 A 
ATOM     28  C   UNL     1      31.031  12.589  72.767  0.00  0.00    +0.005 A 
ATOM     29  C   UNL     1      32.409  12.895  72.823  0.00  0.00    +0.013 A 
BRANCH  18  19
ATOM     19  C   UNL     1      28.552  13.080  73.192  0.00  0.00    +0.119 C 
BRANCH  19  20
ATOM     20  N   UNL     1      27.569  14.098  72.714  0.00  0.00    -0.302 NA
ATOM     21  C   UNL     1      27.471  15.293  73.666  0.00  0.00    +0.066 C 
ATOM     22  C   UNL     1      26.456  16.359  73.140  0.00  0.00    -0.064 C 
ATOM     23  N   UNL     1      25.086  15.704  72.951  0.00  0.00    +0.379 N 
ATOM     24  C   UNL     1      24.115  16.716  72.511  0.00  0.00    -0.096 C 
ATOM     25  H   UNL     1      24.753  15.324  73.944  0.00  0.00    -0.082 HD
ATOM     26  C   UNL     1      25.175  14.512  72.007  0.00  0.00    -0.064 C 
ATOM     27  C   UNL     1      26.209  13.474  72.525  0.00  0.00    +0.066 C 
ENDBRANCH  19  20
ENDBRANCH  18  19
ENDBRANCH  14  15
ENDBRANCH  12  13
TORSDOF 6
ENDMDL
MODEL 3
REMARK VINA RESULT:     -10.6      1.858     13.404
REMARK  Name = C:\Users\Docking\Desktop\test protocol\1iep_ligandH.pdb
REMARK  8 active torsions:
REMARK  status: ('A' for Active; 'I' for Inactive)
REMARK    1  A    between atoms: _5  and  _11
REMARK    2  A    between atoms: _19  and  _21
REMARK    3  A    between atoms: _22  and  _66
REMARK    4  A    between atoms: _27  and  _30
REMARK    5  A    between atoms: _32  and  _33
REMARK    6  A    between atoms: _38  and  _43
REMARK    7  A    between atoms: _43  and  _46
REMARK    8  A    between atoms: _53  and  _55
REMARK                            x       y       z     vdW  Elec       q    Type
REMARK                         _______ _______ _______ _____ _____    ______ ____
ROOT
ATOM     10  C   UNL     1      42.538  12.090  76.972  0.00  0.00    +0.038 A 
ATOM     11  C   UNL     1      41.455  12.847  76.458  0.00  0.00    +0.047 A 
ATOM     12  C   UNL     1      40.164  12.230  76.193  0.00  0.00    +0.035 A 
ATOM     32  C   UNL     1      40.011  10.839  76.467  0.00  0.00    +0.024 A 
ATOM     33  C   UNL     1      41.102  10.054  76.989  0.00  0.00    +0.007 A 
ATOM     34  C   UNL     1      42.378  10.657  77.249  0.00  0.00    -0.029 A 
ATOM     35  C   UNL     1      43.514   9.766  77.803  0.00  0.00    +0.045 C 
ENDROOT
BRANCH  10   9
ATOM      4  C   UNL     1      45.669  14.297  79.864  0.00  0.00    +0.077 A 
ATOM      5  C   UNL     1      44.794  14.182  80.996  0.00  0.00    +0.048 A 
ATOM      6  C   UNL     1      43.545  13.555  80.790  0.00  0.00    +0.116 A 
ATOM      7  N   UNL     1      43.206  13.081  79.541  0.00  0.00    -0.223 NA
ATOM      8  C   UNL     1      44.072  13.209  78.471  0.00  0.00    +0.220 A 
ATOM      9  N   UNL     1      43.755  12.733  77.208  0.00  0.00    -0.283 N 
ATOM     36  H   UNL     1      44.418  12.853  76.442  0.00  0.00    +0.155 HD
ATOM     37  N   UNL     1      45.270  13.805  78.641  0.00  0.00    -0.214 NA
BRANCH   4   3
ATOM      1  C   UNL     1      49.410  15.035  80.734  0.00  0.00    +0.020 A 
ATOM      2  C   UNL     1      48.121  14.384  80.711  0.00  0.00    +0.013 A 
ATOM      3  C   UNL     1      47.024  14.931  79.924  0.00  0.00    +0.019 A 
ATOM     38  C   UNL     1      47.266  16.148  79.163  0.00  0.00    +0.120 A 
ATOM     39  N   UNL     1      48.518  16.754  79.205  0.00  0.00    -0.263 NA
ATOM     40  C   UNL     1      49.581  16.238  79.961  0.00  0.00    +0.111 A 
ENDBRANCH   4   3
ENDBRANCH  10   9
BRANCH  12  13
ATOM     13  N   UNL     1      39.031  12.946  75.663  0.00  0.00    -0.281 N 
ATOM     14  C   UNL     1      38.357  12.715  74.475  0.00  0.00    +0.248 C 
ATOM     30  O   UNL     1      38.763  11.989  73.580  0.00  0.00    -0.270 OA
ATOM     31  H   UNL     1      38.682  13.717  76.233  0.00  0.00    +0.155 HD
BRANCH  14  15
ATOM     15  C   UNL     1      37.050  13.402  74.240  0.00  0.00    +0.037 A 
ATOM     16  C   UNL     1      36.450  13.458  72.905  0.00  0.00    +0.013 A 
ATOM     17  C   UNL     1      35.197  14.142  72.703  0.00  0.00    +0.005 A 
ATOM     18  C   UNL     1      34.535  14.774  73.841  0.00  0.00    -0.033 A 
ATOM     28  C   UNL     1      35.150  14.699  75.156  0.00  0.00    +0.005 A 
ATOM     29  C   UNL     1      36.379  14.031  75.357  0.00  0.00    +0.013 A 
BRANCH  18  19
ATOM     19  C   UNL     1      33.207  15.544  73.715  0.00  0.00    +0.119 C 
BRANCH  19  20
ATOM     20  N   UNL     1      31.945  14.755  73.847  0.00  0.00    -0.302 NA
ATOM     21  C   UNL     1      31.807  13.702  72.744  0.00  0.00    +0.066 C 
ATOM     22  C   UNL     1      30.493  12.872  72.911  0.00  0.00    -0.064 C 
ATOM     23  N   UNL     1      29.292  13.819  72.909  0.00  0.00    +0.379 N 
ATOM     24  C   UNL     1      28.051  13.036  73.007  0.00  0.00    -0.096 C 
ATOM     25  H   UNL     1      29.281  14.349  71.928  0.00  0.00    -0.082 HD
ATOM     26  C   UNL     1      29.422  14.871  74.001  0.00  0.00    -0.064 C 
ATOM     27  C   UNL     1      30.745  15.670  73.843  0.00  0.00    +0.066 C 
ENDBRANCH  19  20
ENDBRANCH  18  19
ENDBRANCH  14  15
ENDBRANCH  12  13
TORSDOF 6
ENDMDL
