MODEL 1
REMARK VINA RESULT:      -9.0      0.000      0.000
REMARK  Name = C:\Users\Docking\Desktop\test protocol\1iep_ligandH.pdb
REMARK  8 active torsions:
REMARK  status: ('A' for Active; 'I' for Inactive)
REMARK    1  A    between atoms: _5  and  _11
REMARK    2  A    between atoms: _19  and  _21
REMARK    3  A    between atoms: _22  and  _66
REMARK    4  A    between atoms: _27  and  _30
REMARK    5  A    between atoms: _32  and  _33
REMARK    6  A    between atoms: _38  and  _43
REMARK    7  A    between atoms: _43  and  _46
REMARK    8  A    between atoms: _53  and  _55
REMARK                            x       y       z     vdW  Elec       q    Type
REMARK                         _______ _______ _______ _____ _____    ______ ____
ROOT
ATOM     10  C   UNL     1     -66.445  15.983  16.428  0.00  0.00    +0.038 A 
ATOM     11  C   UNL     1     -66.485  16.845  15.302  0.00  0.00    +0.047 A 
ATOM     12  C   UNL     1     -67.158  18.133  15.364  0.00  0.00    +0.035 A 
ATOM     32  C   UNL     1     -67.778  18.512  16.591  0.00  0.00    +0.024 A 
ATOM     33  C   UNL     1     -67.748  17.648  17.744  0.00  0.00    +0.007 A 
ATOM     34  C   UNL     1     -67.087  16.375  17.688  0.00  0.00    -0.029 A 
ATOM     35  C   UNL     1     -67.092  15.486  18.953  0.00  0.00    +0.045 C 
ENDROOT
BRANCH  10   9
ATOM      4  C   UNL     1     -66.336  11.325  15.274  0.00  0.00    +0.077 A 
ATOM      5  C   UNL     1     -67.720  11.326  14.894  0.00  0.00    +0.048 A 
ATOM      6  C   UNL     1     -68.425  12.544  15.017  0.00  0.00    +0.116 A 
ATOM      7  N   UNL     1     -67.785  13.670  15.486  0.00  0.00    -0.223 NA
ATOM      8  C   UNL     1     -66.450  13.635  15.846  0.00  0.00    +0.220 A 
ATOM      9  N   UNL     1     -65.784  14.757  16.312  0.00  0.00    -0.283 N 
ATOM     36  H   UNL     1     -64.801  14.688  16.574  0.00  0.00    +0.155 HD
ATOM     37  N   UNL     1     -65.755  12.483  15.738  0.00  0.00    -0.214 NA
BRANCH   4   3
ATOM      1  C   UNL     1     -63.960   8.516  13.946  0.00  0.00    +0.020 A 
ATOM      2  C   UNL     1     -64.801   9.690  13.967  0.00  0.00    +0.013 A 
ATOM      3  C   UNL     1     -65.456  10.116  15.197  0.00  0.00    +0.019 A 
ATOM     38  C   UNL     1     -65.237   9.326  16.399  0.00  0.00    +0.120 A 
ATOM     39  N   UNL     1     -64.424   8.199  16.349  0.00  0.00    -0.263 NA
ATOM     40  C   UNL     1     -63.789   7.778  15.170  0.00  0.00    +0.111 A 
ENDBRANCH   4   3
ENDBRANCH  10   9
BRANCH  12  13
ATOM     13  N   UNL     1     -67.239  19.046  14.252  0.00  0.00    -0.281 N 
ATOM     14  C   UNL     1     -68.185  19.076  13.241  0.00  0.00    +0.248 C 
ATOM     30  O   UNL     1     -68.989  18.182  13.021  0.00  0.00    -0.270 OA
ATOM     31  H   UNL     1     -66.509  19.758  14.204  0.00  0.00    +0.155 HD
BRANCH  14  15
ATOM     15  C   UNL     1     -68.236  20.263  12.334  0.00  0.00    +0.037 A 
ATOM     16  C   UNL     1     -68.699  20.142  10.949  0.00  0.00    +0.013 A 
ATOM     17  C   UNL     1     -68.723  21.299  10.091  0.00  0.00    +0.005 A 
ATOM     18  C   UNL     1     -68.282  22.589  10.616  0.00  0.00    -0.033 A 
ATOM     28  C   UNL     1     -67.832  22.682  11.995  0.00  0.00    +0.005 A 
ATOM     29  C   UNL     1     -67.807  21.549  12.839  0.00  0.00    +0.013 A 
BRANCH  18  19
ATOM     19  C   UNL     1     -68.253  23.873   9.765  0.00  0.00    +0.119 C 
BRANCH  19  20
ATOM     20  N   UNL     1     -69.347  24.865   9.987  0.00  0.00    -0.302 NA
ATOM     21  C   UNL     1     -69.229  25.554  11.350  0.00  0.00    +0.066 C 
ATOM     22  C   UNL     1     -70.368  26.605  11.557  0.00  0.00    -0.064 C 
ATOM     23  N   UNL     1     -71.726  25.916  11.413  0.00  0.00    +0.379 N 
ATOM     24  C   UNL     1     -72.799  26.890  11.665  0.00  0.00    -0.096 C 
ATOM     25  H   UNL     1     -71.791  25.130  12.201  0.00  0.00    -0.082 HD
ATOM     26  C   UNL     1     -71.850  25.227  10.062  0.00  0.00    -0.064 C 
ATOM     27  C   UNL     1     -70.697  24.205   9.855  0.00  0.00    +0.066 C 
ENDBRANCH  19  20
ENDBRANCH  18  19
ENDBRANCH  14  15
ENDBRANCH  12  13
TORSDOF 6
ENDMDL
MODEL 2
REMARK VINA RESULT:      -7.9     10.929     21.536
REMARK  Name = C:\Users\Docking\Desktop\test protocol\1iep_ligandH.pdb
REMARK  8 active torsions:
REMARK  status: ('A' for Active; 'I' for Inactive)
REMARK    1  A    between atoms: _5  and  _11
REMARK    2  A    between atoms: _19  and  _21
REMARK    3  A    between atoms: _22  and  _66
REMARK    4  A    between atoms: _27  and  _30
REMARK    5  A    between atoms: _32  and  _33
REMARK    6  A    between atoms: _38  and  _43
REMARK    7  A    between atoms: _43  and  _46
REMARK    8  A    between atoms: _53  and  _55
REMARK                            x       y       z     vdW  Elec       q    Type
REMARK                         _______ _______ _______ _____ _____    ______ ____
ROOT
ATOM     10  C   UNL     1     -65.332   3.739  19.975  0.00  0.00    +0.038 A 
ATOM     11  C   UNL     1     -65.538   2.430  19.470  0.00  0.00    +0.047 A 
ATOM     12  C   UNL     1     -66.106   1.382  20.304  0.00  0.00    +0.035 A 
ATOM     32  C   UNL     1     -66.455   1.703  21.648  0.00  0.00    +0.024 A 
ATOM     33  C   UNL     1     -66.251   3.028  22.178  0.00  0.00    +0.007 A 
ATOM     34  C   UNL     1     -65.689   4.065  21.361  0.00  0.00    -0.029 A 
ATOM     35  C   UNL     1     -65.487   5.466  21.984  0.00  0.00    +0.045 C 
ENDROOT
BRANCH  10   9
ATOM      4  C   UNL     1     -65.751   7.307  16.792  0.00  0.00    +0.077 A 
ATOM      5  C   UNL     1     -67.183   7.218  16.792  0.00  0.00    +0.048 A 
ATOM      6  C   UNL     1     -67.772   6.236  17.620  0.00  0.00    +0.116 A 
ATOM      7  N   UNL     1     -66.979   5.410  18.386  0.00  0.00    -0.223 NA
ATOM      8  C   UNL     1     -65.601   5.521  18.362  0.00  0.00    +0.220 A 
ATOM      9  N   UNL     1     -64.784   4.707  19.130  0.00  0.00    -0.283 N 
ATOM     36  H   UNL     1     -63.771   4.815  19.078  0.00  0.00    +0.155 HD
ATOM     37  N   UNL     1     -65.014   6.450  17.578  0.00  0.00    -0.214 NA
BRANCH   4   3
ATOM      1  C   UNL     1     -63.369   8.898  14.128  0.00  0.00    +0.020 A 
ATOM      2  C   UNL     1     -64.089   7.903  14.889  0.00  0.00    +0.013 A 
ATOM      3  C   UNL     1     -64.981   8.296  15.973  0.00  0.00    +0.019 A 
ATOM     38  C   UNL     1     -65.124   9.715  16.263  0.00  0.00    +0.120 A 
ATOM     39  N   UNL     1     -64.417  10.650  15.514  0.00  0.00    -0.263 NA
ATOM     40  C   UNL     1     -63.554  10.284  14.470  0.00  0.00    +0.111 A 
ENDBRANCH   4   3
ENDBRANCH  10   9
BRANCH  12  13
ATOM     13  N   UNL     1     -66.331   0.033  19.848  0.00  0.00    -0.281 N 
ATOM     14  C   UNL     1     -65.425  -1.015  19.808  0.00  0.00    +0.248 C 
ATOM     30  O   UNL     1     -64.219  -0.892  19.960  0.00  0.00    -0.270 OA
ATOM     31  H   UNL     1     -67.272  -0.175  19.514  0.00  0.00    +0.155 HD
BRANCH  14  15
ATOM     15  C   UNL     1     -65.931  -2.397  19.547  0.00  0.00    +0.037 A 
ATOM     16  C   UNL     1     -67.328  -2.638  19.178  0.00  0.00    +0.013 A 
ATOM     17  C   UNL     1     -67.794  -3.983  18.949  0.00  0.00    +0.005 A 
ATOM     18  C   UNL     1     -66.860  -5.097  19.087  0.00  0.00    -0.033 A 
ATOM     28  C   UNL     1     -65.478  -4.829  19.449  0.00  0.00    +0.005 A 
ATOM     29  C   UNL     1     -65.018  -3.513  19.675  0.00  0.00    +0.013 A 
BRANCH  18  19
ATOM     19  C   UNL     1     -67.275  -6.566  18.881  0.00  0.00    +0.119 C 
BRANCH  19  20
ATOM     20  N   UNL     1     -66.360  -7.429  18.075  0.00  0.00    -0.302 NA
ATOM     21  C   UNL     1     -66.398  -7.072  16.586  0.00  0.00    +0.066 C 
ATOM     22  C   UNL     1     -65.419  -7.969  15.761  0.00  0.00    -0.064 C 
ATOM     23  N   UNL     1     -65.777  -9.440  15.974  0.00  0.00    +0.379 N 
ATOM     24  C   UNL     1     -64.895 -10.284  15.154  0.00  0.00    -0.096 C 
ATOM     25  H   UNL     1     -66.821  -9.590  15.612  0.00  0.00    -0.082 HD
ATOM     26  C   UNL     1     -65.745  -9.803  17.452  0.00  0.00    -0.064 C 
ATOM     27  C   UNL     1     -66.699  -8.887  18.267  0.00  0.00    +0.066 C 
ENDBRANCH  19  20
ENDBRANCH  18  19
ENDBRANCH  14  15
ENDBRANCH  12  13
TORSDOF 6
ENDMDL
MODEL 3
REMARK VINA RESULT:      -7.9      1.700      2.292
REMARK  Name = C:\Users\Docking\Desktop\test protocol\1iep_ligandH.pdb
REMARK  8 active torsions:
REMARK  status: ('A' for Active; 'I' for Inactive)
REMARK    1  A    between atoms: _5  and  _11
REMARK    2  A    between atoms: _19  and  _21
REMARK    3  A    between atoms: _22  and  _66
REMARK    4  A    between atoms: _27  and  _30
REMARK    5  A    between atoms: _32  and  _33
REMARK    6  A    between atoms: _38  and  _43
REMARK    7  A    between atoms: _43  and  _46
REMARK    8  A    between atoms: _53  and  _55
REMARK                            x       y       z     vdW  Elec       q    Type
REMARK                         _______ _______ _______ _____ _____    ______ ____
ROOT
ATOM     10  C   UNL     1     -68.897  14.395  14.731  0.00  0.00    +0.038 A 
ATOM     11  C   UNL     1     -68.382  15.574  14.134  0.00  0.00    +0.047 A 
ATOM     12  C   UNL     1     -69.090  16.840  14.236  0.00  0.00    +0.035 A 
ATOM     32  C   UNL     1     -70.320  16.870  14.956  0.00  0.00    +0.024 A 
ATOM     33  C   UNL     1     -70.859  15.681  15.568  0.00  0.00    +0.007 A 
ATOM     34  C   UNL     1     -70.166  14.429  15.469  0.00  0.00    -0.029 A 
ATOM     35  C   UNL     1     -70.794  13.184  16.139  0.00  0.00    +0.045 C 
ENDROOT
BRANCH  10   9
ATOM      4  C   UNL     1     -65.621  11.244  16.271  0.00  0.00    +0.077 A 
ATOM      5  C   UNL     1     -65.300  12.047  17.416  0.00  0.00    +0.048 A 
ATOM      6  C   UNL     1     -65.996  13.267  17.568  0.00  0.00    +0.116 A 
ATOM      7  N   UNL     1     -66.941  13.646  16.638  0.00  0.00    -0.223 NA
ATOM      8  C   UNL     1     -67.224  12.848  15.545  0.00  0.00    +0.220 A 
ATOM      9  N   UNL     1     -68.176  13.206  14.602  0.00  0.00    -0.283 N 
ATOM     36  H   UNL     1     -68.351  12.594  13.805  0.00  0.00    +0.155 HD
ATOM     37  N   UNL     1     -66.573  11.679  15.376  0.00  0.00    -0.214 NA
BRANCH   4   3
ATOM      1  C   UNL     1     -63.573   8.397  14.537  0.00  0.00    +0.020 A 
ATOM      2  C   UNL     1     -64.177   9.687  14.777  0.00  0.00    +0.013 A 
ATOM      3  C   UNL     1     -64.974   9.927  15.974  0.00  0.00    +0.019 A 
ATOM     38  C   UNL     1     -65.140   8.831  16.916  0.00  0.00    +0.120 A 
ATOM     39  N   UNL     1     -64.548   7.598  16.659  0.00  0.00    -0.263 NA
ATOM     40  C   UNL     1     -63.781   7.356  15.509  0.00  0.00    +0.111 A 
ENDBRANCH   4   3
ENDBRANCH  10   9
BRANCH  12  13
ATOM     13  N   UNL     1     -68.620  18.068  13.644  0.00  0.00    -0.281 N 
ATOM     14  C   UNL     1     -68.994  18.627  12.432  0.00  0.00    +0.248 C 
ATOM     30  O   UNL     1     -69.635  18.044  11.571  0.00  0.00    -0.270 OA
ATOM     31  H   UNL     1     -67.928  18.588  14.183  0.00  0.00    +0.155 HD
BRANCH  14  15
ATOM     15  C   UNL     1     -68.583  20.031  12.128  0.00  0.00    +0.037 A 
ATOM     16  C   UNL     1     -67.751  20.799  13.059  0.00  0.00    +0.013 A 
ATOM     17  C   UNL     1     -67.384  22.158  12.749  0.00  0.00    +0.005 A 
ATOM     18  C   UNL     1     -67.849  22.758  11.501  0.00  0.00    -0.033 A 
ATOM     28  C   UNL     1     -68.668  21.973  10.593  0.00  0.00    +0.005 A 
ATOM     29  C   UNL     1     -69.031  20.641  10.894  0.00  0.00    +0.013 A 
BRANCH  18  19
ATOM     19  C   UNL     1     -67.523  24.209  11.099  0.00  0.00    +0.119 C 
BRANCH  19  20
ATOM     20  N   UNL     1     -68.633  25.205  11.175  0.00  0.00    -0.302 NA
ATOM     21  C   UNL     1     -69.663  24.836  12.245  0.00  0.00    +0.066 C 
ATOM     22  C   UNL     1     -70.805  25.901  12.327  0.00  0.00    -0.064 C 
ATOM     23  N   UNL     1     -71.472  26.035  10.957  0.00  0.00    +0.379 N 
ATOM     24  C   UNL     1     -72.584  26.993  11.044  0.00  0.00    -0.096 C 
ATOM     25  H   UNL     1     -71.902  25.041  10.691  0.00  0.00    -0.082 HD
ATOM     26  C   UNL     1     -70.454  26.399   9.886  0.00  0.00    -0.064 C 
ATOM     27  C   UNL     1     -69.308  25.350   9.833  0.00  0.00    +0.066 C 
ENDBRANCH  19  20
ENDBRANCH  18  19
ENDBRANCH  14  15
ENDBRANCH  12  13
TORSDOF 6
ENDMDL
MODEL 4
REMARK VINA RESULT:      -7.9     35.050     39.074
REMARK  Name = C:\Users\Docking\Desktop\test protocol\1iep_ligandH.pdb
REMARK  8 active torsions:
REMARK  status: ('A' for Active; 'I' for Inactive)
REMARK    1  A    between atoms: _5  and  _11
REMARK    2  A    between atoms: _19  and  _21
REMARK    3  A    between atoms: _22  and  _66
REMARK    4  A    between atoms: _27  and  _30
REMARK    5  A    between atoms: _32  and  _33
REMARK    6  A    between atoms: _38  and  _43
REMARK    7  A    between atoms: _43  and  _46
REMARK    8  A    between atoms: _53  and  _55
REMARK                            x       y       z     vdW  Elec       q    Type
REMARK                         _______ _______ _______ _____ _____    ______ ____
ROOT
ATOM     10  C   UNL     1     -35.323  -1.950  22.730  0.00  0.00    +0.038 A 
ATOM     11  C   UNL     1     -35.938  -2.213  21.479  0.00  0.00    +0.047 A 
ATOM     12  C   UNL     1     -37.175  -2.974  21.394  0.00  0.00    +0.035 A 
ATOM     32  C   UNL     1     -37.760  -3.450  22.604  0.00  0.00    +0.024 A 
ATOM     33  C   UNL     1     -37.147  -3.193  23.883  0.00  0.00    +0.007 A 
ATOM     34  C   UNL     1     -35.926  -2.445  23.973  0.00  0.00    -0.029 A 
ATOM     35  C   UNL     1     -35.311  -2.205  25.371  0.00  0.00    +0.045 C 
ENDROOT
BRANCH  10   9
ATOM      4  C   UNL     1     -30.580  -1.546  22.112  0.00  0.00    +0.077 A 
ATOM      5  C   UNL     1     -30.452  -2.925  21.737  0.00  0.00    +0.048 A 
ATOM      6  C   UNL     1     -31.630  -3.706  21.723  0.00  0.00    +0.116 A 
ATOM      7  N   UNL     1     -32.840  -3.139  22.060  0.00  0.00    -0.223 NA
ATOM      8  C   UNL     1     -32.928  -1.807  22.418  0.00  0.00    +0.220 A 
ATOM      9  N   UNL     1     -34.136  -1.214  22.753  0.00  0.00    -0.283 N 
ATOM     36  H   UNL     1     -34.159  -0.230  23.018  0.00  0.00    +0.155 HD
ATOM     37  N   UNL     1     -31.818  -1.040  22.441  0.00  0.00    -0.214 NA
BRANCH   4   3
ATOM      1  C   UNL     1     -27.066   0.098  21.618  0.00  0.00    +0.020 A 
ATOM      2  C   UNL     1     -28.146  -0.857  21.531  0.00  0.00    +0.013 A 
ATOM      3  C   UNL     1     -29.428  -0.592  22.171  0.00  0.00    +0.019 A 
ATOM     38  C   UNL     1     -29.586   0.659  22.897  0.00  0.00    +0.120 A 
ATOM     39  N   UNL     1     -28.527   1.559  22.966  0.00  0.00    -0.263 NA
ATOM     40  C   UNL     1     -27.288   1.314  22.355  0.00  0.00    +0.111 A 
ENDBRANCH   4   3
ENDBRANCH  10   9
BRANCH  12  13
ATOM     13  N   UNL     1     -37.841  -3.280  20.152  0.00  0.00    -0.281 N 
ATOM     14  C   UNL     1     -39.064  -2.809  19.704  0.00  0.00    +0.248 C 
ATOM     30  O   UNL     1     -39.875  -2.217  20.401  0.00  0.00    -0.270 OA
ATOM     31  H   UNL     1     -37.351  -3.920  19.528  0.00  0.00    +0.155 HD
BRANCH  14  15
ATOM     15  C   UNL     1     -39.449  -3.042  18.279  0.00  0.00    +0.037 A 
ATOM     16  C   UNL     1     -38.539  -2.706  17.181  0.00  0.00    +0.013 A 
ATOM     17  C   UNL     1     -38.942  -2.925  15.814  0.00  0.00    +0.005 A 
ATOM     18  C   UNL     1     -40.263  -3.485  15.538  0.00  0.00    -0.033 A 
ATOM     28  C   UNL     1     -41.144  -3.814  16.646  0.00  0.00    +0.005 A 
ATOM     29  C   UNL     1     -40.753  -3.600  17.987  0.00  0.00    +0.013 A 
BRANCH  18  19
ATOM     19  C   UNL     1     -40.784  -3.732  14.110  0.00  0.00    +0.119 C 
BRANCH  19  20
ATOM     20  N   UNL     1     -39.801  -4.224  13.099  0.00  0.00    -0.302 NA
ATOM     21  C   UNL     1     -39.361  -3.115  12.139  0.00  0.00    +0.066 C 
ATOM     22  C   UNL     1     -38.316  -3.641  11.102  0.00  0.00    -0.064 C 
ATOM     23  N   UNL     1     -38.915  -4.819  10.331  0.00  0.00    +0.379 N 
ATOM     24  C   UNL     1     -37.957  -5.279   9.316  0.00  0.00    -0.096 C 
ATOM     25  H   UNL     1     -39.821  -4.448   9.798  0.00  0.00    -0.082 HD
ATOM     26  C   UNL     1     -39.358  -5.925  11.278  0.00  0.00    -0.064 C 
ATOM     27  C   UNL     1     -40.374  -5.385  12.323  0.00  0.00    +0.066 C 
ENDBRANCH  19  20
ENDBRANCH  18  19
ENDBRANCH  14  15
ENDBRANCH  12  13
TORSDOF 6
ENDMDL
MODEL 5
REMARK VINA RESULT:      -7.9      3.325      4.724
REMARK  Name = C:\Users\Docking\Desktop\test protocol\1iep_ligandH.pdb
REMARK  8 active torsions:
REMARK  status: ('A' for Active; 'I' for Inactive)
REMARK    1  A    between atoms: _5  and  _11
REMARK    2  A    between atoms: _19  and  _21
REMARK    3  A    between atoms: _22  and  _66
REMARK    4  A    between atoms: _27  and  _30
REMARK    5  A    between atoms: _32  and  _33
REMARK    6  A    between atoms: _38  and  _43
REMARK    7  A    between atoms: _43  and  _46
REMARK    8  A    between atoms: _53  and  _55
REMARK                            x       y       z     vdW  Elec       q    Type
REMARK                         _______ _______ _______ _____ _____    ______ ____
ROOT
ATOM     10  C   UNL     1     -67.000  15.980  15.633  0.00  0.00    +0.038 A 
ATOM     11  C   UNL     1     -67.462  16.535  14.413  0.00  0.00    +0.047 A 
ATOM     12  C   UNL     1     -68.241  17.764  14.392  0.00  0.00    +0.035 A 
ATOM     32  C   UNL     1     -68.528  18.403  15.633  0.00  0.00    +0.024 A 
ATOM     33  C   UNL     1     -68.067  17.852  16.884  0.00  0.00    +0.007 A 
ATOM     34  C   UNL     1     -67.300  16.639  16.910  0.00  0.00    -0.029 A 
ATOM     35  C   UNL     1     -66.838  16.090  18.280  0.00  0.00    +0.045 C 
ENDROOT
BRANCH  10   9
ATOM      4  C   UNL     1     -66.660  11.193  15.563  0.00  0.00    +0.077 A 
ATOM      5  C   UNL     1     -68.084  11.032  15.636  0.00  0.00    +0.048 A 
ATOM      6  C   UNL     1     -68.868  12.206  15.698  0.00  0.00    +0.116 A 
ATOM      7  N   UNL     1     -68.262  13.444  15.686  0.00  0.00    -0.223 NA
ATOM      8  C   UNL     1     -66.886  13.564  15.616  0.00  0.00    +0.220 A 
ATOM      9  N   UNL     1     -66.256  14.799  15.595  0.00  0.00    -0.283 N 
ATOM     36  H   UNL     1     -65.238  14.845  15.551  0.00  0.00    +0.155 HD
ATOM     37  N   UNL     1     -66.116  12.458  15.558  0.00  0.00    -0.214 NA
BRANCH   4   3
ATOM      1  C   UNL     1     -64.402   8.147  16.523  0.00  0.00    +0.020 A 
ATOM      2  C   UNL     1     -65.336   9.242  16.648  0.00  0.00    +0.013 A 
ATOM      3  C   UNL     1     -65.699  10.048  15.489  0.00  0.00    +0.019 A 
ATOM     38  C   UNL     1     -65.094   9.717  14.208  0.00  0.00    +0.120 A 
ATOM     39  N   UNL     1     -64.197   8.657  14.118  0.00  0.00    -0.263 NA
ATOM     40  C   UNL     1     -63.839   7.875  15.226  0.00  0.00    +0.111 A 
ENDBRANCH   4   3
ENDBRANCH  10   9
BRANCH  12  13
ATOM     13  N   UNL     1     -68.744  18.370  13.184  0.00  0.00    -0.281 N 
ATOM     14  C   UNL     1     -68.202  19.428  12.473  0.00  0.00    +0.248 C 
ATOM     30  O   UNL     1     -67.313  20.157  12.888  0.00  0.00    -0.270 OA
ATOM     31  H   UNL     1     -69.604  17.971  12.808  0.00  0.00    +0.155 HD
BRANCH  14  15
ATOM     15  C   UNL     1     -68.735  19.730  11.110  0.00  0.00    +0.037 A 
ATOM     16  C   UNL     1     -68.183  20.821  10.302  0.00  0.00    +0.013 A 
ATOM     17  C   UNL     1     -68.727  21.101   8.997  0.00  0.00    +0.005 A 
ATOM     18  C   UNL     1     -69.829  20.287   8.490  0.00  0.00    -0.033 A 
ATOM     28  C   UNL     1     -70.354  19.208   9.310  0.00  0.00    +0.005 A 
ATOM     29  C   UNL     1     -69.824  18.930  10.590  0.00  0.00    +0.013 A 
BRANCH  18  19
ATOM     19  C   UNL     1     -70.485  20.528   7.118  0.00  0.00    +0.119 C 
BRANCH  19  20
ATOM     20  N   UNL     1     -70.465  19.398   6.142  0.00  0.00    -0.302 NA
ATOM     21  C   UNL     1     -69.246  18.492   6.338  0.00  0.00    +0.066 C 
ATOM     22  C   UNL     1     -69.252  17.303   5.323  0.00  0.00    -0.064 C 
ATOM     23  N   UNL     1     -69.295  17.853   3.897  0.00  0.00    +0.379 N 
ATOM     24  C   UNL     1     -69.243  16.738   2.939  0.00  0.00    -0.096 C 
ATOM     25  H   UNL     1     -68.381  18.472   3.745  0.00  0.00    -0.082 HD
ATOM     26  C   UNL     1     -70.503  18.756   3.694  0.00  0.00    -0.064 C 
ATOM     27  C   UNL     1     -70.503  19.919   4.726  0.00  0.00    +0.066 C 
ENDBRANCH  19  20
ENDBRANCH  18  19
ENDBRANCH  14  15
ENDBRANCH  12  13
TORSDOF 6
ENDMDL
