MODEL 1
REMARK VINA RESULT:      -8.7      0.000      0.000
REMARK  Name = C:\Users\Docking\Desktop\test protocol\1iep_ligandH.pdb
REMARK  8 active torsions:
REMARK  status: ('A' for Active; 'I' for Inactive)
REMARK    1  A    between atoms: _5  and  _11
REMARK    2  A    between atoms: _19  and  _21
REMARK    3  A    between atoms: _22  and  _66
REMARK    4  A    between atoms: _27  and  _30
REMARK    5  A    between atoms: _32  and  _33
REMARK    6  A    between atoms: _38  and  _43
REMARK    7  A    between atoms: _43  and  _46
REMARK    8  A    between atoms: _53  and  _55
REMARK                            x       y       z     vdW  Elec       q    Type
REMARK                         _______ _______ _______ _____ _____    ______ ____
ROOT
ATOM     10  C   UNL     1     -64.442  10.128  15.820  0.00  0.00    +0.038 A 
ATOM     11  C   UNL     1     -64.613   9.161  16.843  0.00  0.00    +0.047 A 
ATOM     12  C   UNL     1     -64.494   7.739  16.562  0.00  0.00    +0.035 A 
ATOM     32  C   UNL     1     -64.197   7.336  15.228  0.00  0.00    +0.024 A 
ATOM     33  C   UNL     1     -64.020   8.305  14.175  0.00  0.00    +0.007 A 
ATOM     34  C   UNL     1     -64.139   9.709  14.446  0.00  0.00    -0.029 A 
ATOM     35  C   UNL     1     -63.946  10.704  13.277  0.00  0.00    +0.045 C 
ENDROOT
BRANCH  10   9
ATOM      4  C   UNL     1     -66.943  14.220  16.014  0.00  0.00    +0.077 A 
ATOM      5  C   UNL     1     -68.086  13.620  15.390  0.00  0.00    +0.048 A 
ATOM      6  C   UNL     1     -67.988  12.258  15.028  0.00  0.00    +0.116 A 
ATOM      7  N   UNL     1     -66.827  11.557  15.276  0.00  0.00    -0.223 NA
ATOM      8  C   UNL     1     -65.742  12.167  15.879  0.00  0.00    +0.220 A 
ATOM      9  N   UNL     1     -64.568  11.480  16.145  0.00  0.00    -0.283 N 
ATOM     36  H   UNL     1     -63.787  11.967  16.584  0.00  0.00    +0.155 HD
ATOM     37  N   UNL     1     -65.810  13.467  16.233  0.00  0.00    -0.214 NA
BRANCH   4   3
ATOM      1  C   UNL     1     -67.095  17.455  18.207  0.00  0.00    +0.020 A 
ATOM      2  C   UNL     1     -67.155  16.062  17.831  0.00  0.00    +0.013 A 
ATOM      3  C   UNL     1     -66.894  15.649  16.458  0.00  0.00    +0.019 A 
ATOM     38  C   UNL     1     -66.571  16.679  15.482  0.00  0.00    +0.120 A 
ATOM     39  N   UNL     1     -66.521  18.014  15.873  0.00  0.00    -0.263 NA
ATOM     40  C   UNL     1     -66.773  18.423  17.191  0.00  0.00    +0.111 A 
ENDBRANCH   4   3
ENDBRANCH  10   9
BRANCH  12  13
ATOM     13  N   UNL     1     -64.666   6.711  17.559  0.00  0.00    -0.281 N 
ATOM     14  C   UNL     1     -65.778   5.916  17.780  0.00  0.00    +0.248 C 
ATOM     30  O   UNL     1     -66.879   6.115  17.288  0.00  0.00    -0.270 OA
ATOM     31  H   UNL     1     -63.870   6.550  18.177  0.00  0.00    +0.155 HD
BRANCH  14  15
ATOM     15  C   UNL     1     -65.654   4.736  18.690  0.00  0.00    +0.037 A 
ATOM     16  C   UNL     1     -64.886   4.815  19.935  0.00  0.00    +0.013 A 
ATOM     17  C   UNL     1     -64.768   3.657  20.786  0.00  0.00    +0.005 A 
ATOM     18  C   UNL     1     -65.422   2.411  20.394  0.00  0.00    -0.033 A 
ATOM     28  C   UNL     1     -66.182   2.363  19.156  0.00  0.00    +0.005 A 
ATOM     29  C   UNL     1     -66.299   3.495  18.319  0.00  0.00    +0.013 A 
BRANCH  18  19
ATOM     19  C   UNL     1     -65.332   1.121  21.231  0.00  0.00    +0.119 C 
BRANCH  19  20
ATOM     20  N   UNL     1     -65.208  -0.169  20.487  0.00  0.00    -0.302 NA
ATOM     21  C   UNL     1     -66.467  -1.031  20.619  0.00  0.00    +0.066 C 
ATOM     22  C   UNL     1     -66.329  -2.366  19.817  0.00  0.00    -0.064 C 
ATOM     23  N   UNL     1     -65.097  -3.128  20.308  0.00  0.00    +0.379 N 
ATOM     24  C   UNL     1     -64.997  -4.410  19.596  0.00  0.00    -0.096 C 
ATOM     25  H   UNL     1     -65.248  -3.352  21.390  0.00  0.00    -0.082 HD
ATOM     26  C   UNL     1     -63.841  -2.277  20.184  0.00  0.00    -0.064 C 
ATOM     27  C   UNL     1     -64.000  -0.940  20.960  0.00  0.00    +0.066 C 
ENDBRANCH  19  20
ENDBRANCH  18  19
ENDBRANCH  14  15
ENDBRANCH  12  13
TORSDOF 6
ENDMDL
MODEL 2
REMARK VINA RESULT:      -8.1      1.797      2.587
REMARK  Name = C:\Users\Docking\Desktop\test protocol\1iep_ligandH.pdb
REMARK  8 active torsions:
REMARK  status: ('A' for Active; 'I' for Inactive)
REMARK    1  A    between atoms: _5  and  _11
REMARK    2  A    between atoms: _19  and  _21
REMARK    3  A    between atoms: _22  and  _66
REMARK    4  A    between atoms: _27  and  _30
REMARK    5  A    between atoms: _32  and  _33
REMARK    6  A    between atoms: _38  and  _43
REMARK    7  A    between atoms: _43  and  _46
REMARK    8  A    between atoms: _53  and  _55
REMARK                            x       y       z     vdW  Elec       q    Type
REMARK                         _______ _______ _______ _____ _____    ______ ____
ROOT
ATOM     10  C   UNL     1     -64.445  10.034  15.829  0.00  0.00    +0.038 A 
ATOM     11  C   UNL     1     -64.605   9.091  16.876  0.00  0.00    +0.047 A 
ATOM     12  C   UNL     1     -64.487   7.663  16.627  0.00  0.00    +0.035 A 
ATOM     32  C   UNL     1     -64.202   7.230  15.300  0.00  0.00    +0.024 A 
ATOM     33  C   UNL     1     -64.037   8.175  14.223  0.00  0.00    +0.007 A 
ATOM     34  C   UNL     1     -64.155   9.585  14.462  0.00  0.00    -0.029 A 
ATOM     35  C   UNL     1     -63.975  10.552  13.269  0.00  0.00    +0.045 C 
ENDROOT
BRANCH  10   9
ATOM      4  C   UNL     1     -66.962  14.118  15.991  0.00  0.00    +0.077 A 
ATOM      5  C   UNL     1     -68.119  13.497  15.413  0.00  0.00    +0.048 A 
ATOM      6  C   UNL     1     -68.023  12.127  15.081  0.00  0.00    +0.116 A 
ATOM      7  N   UNL     1     -66.852  11.439  15.316  0.00  0.00    -0.223 NA
ATOM      8  C   UNL     1     -65.754  12.068  15.873  0.00  0.00    +0.220 A 
ATOM      9  N   UNL     1     -64.569  11.394  16.125  0.00  0.00    -0.283 N 
ATOM     36  H   UNL     1     -63.780  11.896  16.530  0.00  0.00    +0.155 HD
ATOM     37  N   UNL     1     -65.820  13.376  16.197  0.00  0.00    -0.214 NA
BRANCH   4   3
ATOM      1  C   UNL     1     -67.125  17.411  18.095  0.00  0.00    +0.020 A 
ATOM      2  C   UNL     1     -67.190  16.009  17.754  0.00  0.00    +0.013 A 
ATOM      3  C   UNL     1     -66.909  15.558  16.397  0.00  0.00    +0.019 A 
ATOM     38  C   UNL     1     -66.562  16.559  15.400  0.00  0.00    +0.120 A 
ATOM     39  N   UNL     1     -66.508  17.903  15.757  0.00  0.00    -0.263 NA
ATOM     40  C   UNL     1     -66.778  18.349  17.060  0.00  0.00    +0.111 A 
ENDBRANCH   4   3
ENDBRANCH  10   9
BRANCH  12  13
ATOM     13  N   UNL     1     -64.648   6.658  17.649  0.00  0.00    -0.281 N 
ATOM     14  C   UNL     1     -65.709   5.787  17.827  0.00  0.00    +0.248 C 
ATOM     30  O   UNL     1     -66.786   5.884  17.258  0.00  0.00    -0.270 OA
ATOM     31  H   UNL     1     -63.886   6.580  18.323  0.00  0.00    +0.155 HD
BRANCH  14  15
ATOM     15  C   UNL     1     -65.559   4.651  18.787  0.00  0.00    +0.037 A 
ATOM     16  C   UNL     1     -64.784   4.798  20.022  0.00  0.00    +0.013 A 
ATOM     17  C   UNL     1     -64.640   3.682  20.923  0.00  0.00    +0.005 A 
ATOM     18  C   UNL     1     -65.274   2.408  20.592  0.00  0.00    -0.033 A 
ATOM     28  C   UNL     1     -66.041   2.292  19.362  0.00  0.00    +0.005 A 
ATOM     29  C   UNL     1     -66.184   3.383  18.477  0.00  0.00    +0.013 A 
BRANCH  18  19
ATOM     19  C   UNL     1     -65.156   1.158  21.483  0.00  0.00    +0.119 C 
BRANCH  19  20
ATOM     20  N   UNL     1     -65.737   1.240  22.856  0.00  0.00    -0.302 NA
ATOM     21  C   UNL     1     -64.676   1.565  23.911  0.00  0.00    +0.066 C 
ATOM     22  C   UNL     1     -65.306   1.669  25.339  0.00  0.00    -0.064 C 
ATOM     23  N   UNL     1     -66.020   0.359  25.675  0.00  0.00    +0.379 N 
ATOM     24  C   UNL     1     -66.564   0.433  27.039  0.00  0.00    -0.096 C 
ATOM     25  H   UNL     1     -65.259  -0.455  25.657  0.00  0.00    -0.082 HD
ATOM     26  C   UNL     1     -67.076   0.027  24.629  0.00  0.00    -0.064 C 
ATOM     27  C   UNL     1     -66.445  -0.045  23.211  0.00  0.00    +0.066 C 
ENDBRANCH  19  20
ENDBRANCH  18  19
ENDBRANCH  14  15
ENDBRANCH  12  13
TORSDOF 6
ENDMDL
MODEL 3
REMARK VINA RESULT:      -7.7     25.751     30.286
REMARK  Name = C:\Users\Docking\Desktop\test protocol\1iep_ligandH.pdb
REMARK  8 active torsions:
REMARK  status: ('A' for Active; 'I' for Inactive)
REMARK    1  A    between atoms: _5  and  _11
REMARK    2  A    between atoms: _19  and  _21
REMARK    3  A    between atoms: _22  and  _66
REMARK    4  A    between atoms: _27  and  _30
REMARK    5  A    between atoms: _32  and  _33
REMARK    6  A    between atoms: _38  and  _43
REMARK    7  A    between atoms: _43  and  _46
REMARK    8  A    between atoms: _53  and  _55
REMARK                            x       y       z     vdW  Elec       q    Type
REMARK                         _______ _______ _______ _____ _____    ______ ____
ROOT
ATOM     10  C   UNL     1     -69.880  34.858  34.660  0.00  0.00    +0.038 A 
ATOM     11  C   UNL     1     -70.428  33.576  34.402  0.00  0.00    +0.047 A 
ATOM     12  C   UNL     1     -71.684  33.159  35.006  0.00  0.00    +0.035 A 
ATOM     32  C   UNL     1     -72.357  34.076  35.865  0.00  0.00    +0.024 A 
ATOM     33  C   UNL     1     -71.814  35.383  36.139  0.00  0.00    +0.007 A 
ATOM     34  C   UNL     1     -70.574  35.799  35.548  0.00  0.00    -0.029 A 
ATOM     35  C   UNL     1     -70.035  37.209  35.881  0.00  0.00    +0.045 C 
ENDROOT
BRANCH  10   9
ATOM      4  C   UNL     1     -65.083  34.980  34.545  0.00  0.00    +0.077 A 
ATOM      5  C   UNL     1     -64.977  34.319  35.814  0.00  0.00    +0.048 A 
ATOM      6  C   UNL     1     -66.181  33.971  36.467  0.00  0.00    +0.116 A 
ATOM      7  N   UNL     1     -67.394  34.266  35.885  0.00  0.00    -0.223 NA
ATOM      8  C   UNL     1     -67.461  34.906  34.661  0.00  0.00    +0.220 A 
ATOM      9  N   UNL     1     -68.671  35.206  34.053  0.00  0.00    -0.283 N 
ATOM     36  H   UNL     1     -68.678  35.685  33.153  0.00  0.00    +0.155 HD
ATOM     37  N   UNL     1     -66.326  35.250  34.018  0.00  0.00    -0.214 NA
BRANCH   4   3
ATOM      1  C   UNL     1     -61.647  34.999  32.676  0.00  0.00    +0.020 A 
ATOM      2  C   UNL     1     -62.763  34.537  33.468  0.00  0.00    +0.013 A 
ATOM      3  C   UNL     1     -63.901  35.408  33.732  0.00  0.00    +0.019 A 
ATOM     38  C   UNL     1     -63.879  36.752  33.174  0.00  0.00    +0.120 A 
ATOM     39  N   UNL     1     -62.790  37.170  32.415  0.00  0.00    -0.263 NA
ATOM     40  C   UNL     1     -61.689  36.341  32.157  0.00  0.00    +0.111 A 
ENDBRANCH   4   3
ENDBRANCH  10   9
BRANCH  12  13
ATOM     13  N   UNL     1     -72.285  31.867  34.788  0.00  0.00    -0.281 N 
ATOM     14  C   UNL     1     -73.342  31.550  33.950  0.00  0.00    +0.248 C 
ATOM     30  O   UNL     1     -74.073  32.372  33.418  0.00  0.00    -0.270 OA
ATOM     31  H   UNL     1     -71.883  31.092  35.316  0.00  0.00    +0.155 HD
BRANCH  14  15
ATOM     15  C   UNL     1     -73.638  30.111  33.675  0.00  0.00    +0.037 A 
ATOM     16  C   UNL     1     -74.141  29.223  34.727  0.00  0.00    +0.013 A 
ATOM     17  C   UNL     1     -74.402  27.835  34.438  0.00  0.00    +0.005 A 
ATOM     18  C   UNL     1     -74.161  27.326  33.090  0.00  0.00    -0.033 A 
ATOM     28  C   UNL     1     -73.667  28.230  32.064  0.00  0.00    +0.005 A 
ATOM     29  C   UNL     1     -73.409  29.591  32.344  0.00  0.00    +0.013 A 
BRANCH  18  19
ATOM     19  C   UNL     1     -74.392  25.855  32.698  0.00  0.00    +0.119 C 
BRANCH  19  20
ATOM     20  N   UNL     1     -75.588  25.173  33.276  0.00  0.00    -0.302 NA
ATOM     21  C   UNL     1     -75.546  23.657  33.060  0.00  0.00    +0.066 C 
ATOM     22  C   UNL     1     -76.793  22.957  33.690  0.00  0.00    -0.064 C 
ATOM     23  N   UNL     1     -78.067  23.555  33.090  0.00  0.00    +0.379 N 
ATOM     24  C   UNL     1     -79.241  22.859  33.638  0.00  0.00    -0.096 C 
ATOM     25  H   UNL     1     -78.044  23.366  31.992  0.00  0.00    -0.082 HD
ATOM     26  C   UNL     1     -78.116  25.062  33.299  0.00  0.00    -0.064 C 
ATOM     27  C   UNL     1     -76.857  25.744  32.694  0.00  0.00    +0.066 C 
ENDBRANCH  19  20
ENDBRANCH  18  19
ENDBRANCH  14  15
ENDBRANCH  12  13
TORSDOF 6
ENDMDL
MODEL 4
REMARK VINA RESULT:      -7.6     25.131     28.316
REMARK  Name = C:\Users\Docking\Desktop\test protocol\1iep_ligandH.pdb
REMARK  8 active torsions:
REMARK  status: ('A' for Active; 'I' for Inactive)
REMARK    1  A    between atoms: _5  and  _11
REMARK    2  A    between atoms: _19  and  _21
REMARK    3  A    between atoms: _22  and  _66
REMARK    4  A    between atoms: _27  and  _30
REMARK    5  A    between atoms: _32  and  _33
REMARK    6  A    between atoms: _38  and  _43
REMARK    7  A    between atoms: _43  and  _46
REMARK    8  A    between atoms: _53  and  _55
REMARK                            x       y       z     vdW  Elec       q    Type
REMARK                         _______ _______ _______ _____ _____    ______ ____
ROOT
ATOM     10  C   UNL     1     -44.838  -7.630   8.453  0.00  0.00    +0.038 A 
ATOM     11  C   UNL     1     -44.525  -6.952   9.658  0.00  0.00    +0.047 A 
ATOM     12  C   UNL     1     -43.145  -6.754  10.074  0.00  0.00    +0.035 A 
ATOM     32  C   UNL     1     -42.108  -7.259   9.236  0.00  0.00    +0.024 A 
ATOM     33  C   UNL     1     -42.408  -7.952   8.007  0.00  0.00    +0.007 A 
ATOM     34  C   UNL     1     -43.768  -8.152   7.594  0.00  0.00    -0.029 A 
ATOM     35  C   UNL     1     -44.031  -8.907   6.270  0.00  0.00    +0.045 C 
ENDROOT
BRANCH  10   9
ATOM      4  C   UNL     1     -48.901 -10.182   8.322  0.00  0.00    +0.077 A 
ATOM      5  C   UNL     1     -48.291 -11.298   8.985  0.00  0.00    +0.048 A 
ATOM      6  C   UNL     1     -46.927 -11.178   9.336  0.00  0.00    +0.116 A 
ATOM      7  N   UNL     1     -46.236 -10.023   9.042  0.00  0.00    -0.223 NA
ATOM      8  C   UNL     1     -46.854  -8.966   8.400  0.00  0.00    +0.220 A 
ATOM      9  N   UNL     1     -46.180  -7.792   8.102  0.00  0.00    -0.283 N 
ATOM     36  H   UNL     1     -46.670  -7.037   7.622  0.00  0.00    +0.155 HD
ATOM     37  N   UNL     1     -48.155  -9.056   8.053  0.00  0.00    -0.214 NA
BRANCH   4   3
ATOM      1  C   UNL     1     -52.811 -10.089   8.365  0.00  0.00    +0.020 A 
ATOM      2  C   UNL     1     -51.445 -10.113   8.834  0.00  0.00    +0.013 A 
ATOM      3  C   UNL     1     -50.334 -10.155   7.891  0.00  0.00    +0.019 A 
ATOM     38  C   UNL     1     -50.643 -10.170   6.469  0.00  0.00    +0.120 A 
ATOM     39  N   UNL     1     -51.969 -10.147   6.047  0.00  0.00    -0.263 NA
ATOM     40  C   UNL     1     -53.046 -10.109   6.945  0.00  0.00    +0.111 A 
ENDBRANCH   4   3
ENDBRANCH  10   9
BRANCH  12  13
ATOM     13  N   UNL     1     -42.766  -6.080  11.291  0.00  0.00    -0.281 N 
ATOM     14  C   UNL     1     -42.424  -6.648  12.508  0.00  0.00    +0.248 C 
ATOM     30  O   UNL     1     -42.599  -7.822  12.796  0.00  0.00    -0.270 OA
ATOM     31  H   UNL     1     -42.748  -5.061  11.251  0.00  0.00    +0.155 HD
BRANCH  14  15
ATOM     15  C   UNL     1     -41.812  -5.782  13.561  0.00  0.00    +0.037 A 
ATOM     16  C   UNL     1     -41.643  -6.262  14.935  0.00  0.00    +0.013 A 
ATOM     17  C   UNL     1     -41.065  -5.401  15.936  0.00  0.00    +0.005 A 
ATOM     18  C   UNL     1     -40.650  -4.050  15.566  0.00  0.00    -0.033 A 
ATOM     28  C   UNL     1     -40.824  -3.602  14.194  0.00  0.00    +0.005 A 
ATOM     29  C   UNL     1     -41.391  -4.443  13.210  0.00  0.00    +0.013 A 
BRANCH  18  19
ATOM     19  C   UNL     1     -40.044  -3.056  16.573  0.00  0.00    +0.119 C 
BRANCH  19  20
ATOM     20  N   UNL     1     -39.933  -3.503  17.994  0.00  0.00    -0.302 NA
ATOM     21  C   UNL     1     -41.272  -3.413  18.730  0.00  0.00    +0.066 C 
ATOM     22  C   UNL     1     -41.143  -3.906  20.208  0.00  0.00    -0.064 C 
ATOM     23  N   UNL     1     -40.074  -3.082  20.927  0.00  0.00    +0.379 N 
ATOM     24  C   UNL     1     -39.991  -3.504  22.332  0.00  0.00    -0.096 C 
ATOM     25  H   UNL     1     -40.402  -2.017  20.912  0.00  0.00    -0.082 HD
ATOM     26  C   UNL     1     -38.739  -3.164  20.199  0.00  0.00    -0.064 C 
ATOM     27  C   UNL     1     -38.885  -2.699  18.723  0.00  0.00    +0.066 C 
ENDBRANCH  19  20
ENDBRANCH  18  19
ENDBRANCH  14  15
ENDBRANCH  12  13
TORSDOF 6
ENDMDL
MODEL 5
REMARK VINA RESULT:      -7.6      1.848      2.636
REMARK  Name = C:\Users\Docking\Desktop\test protocol\1iep_ligandH.pdb
REMARK  8 active torsions:
REMARK  status: ('A' for Active; 'I' for Inactive)
REMARK    1  A    between atoms: _5  and  _11
REMARK    2  A    between atoms: _19  and  _21
REMARK    3  A    between atoms: _22  and  _66
REMARK    4  A    between atoms: _27  and  _30
REMARK    5  A    between atoms: _32  and  _33
REMARK    6  A    between atoms: _38  and  _43
REMARK    7  A    between atoms: _43  and  _46
REMARK    8  A    between atoms: _53  and  _55
REMARK                            x       y       z     vdW  Elec       q    Type
REMARK                         _______ _______ _______ _____ _____    ______ ____
ROOT
ATOM     10  C   UNL     1     -65.559   8.220  15.737  0.00  0.00    +0.038 A 
ATOM     11  C   UNL     1     -65.832   7.328  16.805  0.00  0.00    +0.047 A 
ATOM     12  C   UNL     1     -64.929   6.232  17.120  0.00  0.00    +0.035 A 
ATOM     32  C   UNL     1     -63.755   6.075  16.327  0.00  0.00    +0.024 A 
ATOM     33  C   UNL     1     -63.463   6.972  15.236  0.00  0.00    +0.007 A 
ATOM     34  C   UNL     1     -64.351   8.053  14.920  0.00  0.00    -0.029 A 
ATOM     35  C   UNL     1     -63.991   8.980  13.735  0.00  0.00    +0.045 C 
ENDROOT
BRANCH  10   9
ATOM      4  C   UNL     1     -67.197  12.677  16.431  0.00  0.00    +0.077 A 
ATOM      5  C   UNL     1     -66.188  12.959  17.411  0.00  0.00    +0.048 A 
ATOM      6  C   UNL     1     -65.271  11.928  17.712  0.00  0.00    +0.116 A 
ATOM      7  N   UNL     1     -65.365  10.709  17.075  0.00  0.00    -0.223 NA
ATOM      8  C   UNL     1     -66.352  10.470  16.137  0.00  0.00    +0.220 A 
ATOM      9  N   UNL     1     -66.461   9.255  15.479  0.00  0.00    -0.283 N 
ATOM     36  H   UNL     1     -67.207   9.115  14.798  0.00  0.00    +0.155 HD
ATOM     37  N   UNL     1     -67.241  11.438  15.832  0.00  0.00    -0.214 NA
BRANCH   4   3
ATOM      1  C   UNL     1     -70.056  14.466  14.449  0.00  0.00    +0.020 A 
ATOM      2  C   UNL     1     -69.066  13.481  14.818  0.00  0.00    +0.013 A 
ATOM      3  C   UNL     1     -68.237  13.666  16.003  0.00  0.00    +0.019 A 
ATOM     38  C   UNL     1     -68.436  14.869  16.798  0.00  0.00    +0.120 A 
ATOM     39  N   UNL     1     -69.396  15.801  16.416  0.00  0.00    -0.263 NA
ATOM     40  C   UNL     1     -70.199  15.634  15.278  0.00  0.00    +0.111 A 
ENDBRANCH   4   3
ENDBRANCH  10   9
BRANCH  12  13
ATOM     13  N   UNL     1     -65.158   5.290  18.188  0.00  0.00    -0.281 N 
ATOM     14  C   UNL     1     -66.170   4.351  18.292  0.00  0.00    +0.248 C 
ATOM     30  O   UNL     1     -67.162   4.321  17.579  0.00  0.00    -0.270 OA
ATOM     31  H   UNL     1     -64.493   5.321  18.961  0.00  0.00    +0.155 HD
BRANCH  14  15
ATOM     15  C   UNL     1     -66.073   3.300  19.350  0.00  0.00    +0.037 A 
ATOM     16  C   UNL     1     -65.048   3.365  20.395  0.00  0.00    +0.013 A 
ATOM     17  C   UNL     1     -64.966   2.329  21.394  0.00  0.00    +0.005 A 
ATOM     18  C   UNL     1     -65.914   1.219  21.354  0.00  0.00    -0.033 A 
ATOM     28  C   UNL     1     -66.925   1.181  20.309  0.00  0.00    +0.005 A 
ATOM     29  C   UNL     1     -67.007   2.194  19.328  0.00  0.00    +0.013 A 
BRANCH  18  19
ATOM     19  C   UNL     1     -65.888   0.059  22.366  0.00  0.00    +0.119 C 
BRANCH  19  20
ATOM     20  N   UNL     1     -64.740  -0.894  22.285  0.00  0.00    -0.302 NA
ATOM     21  C   UNL     1     -64.650  -1.569  20.913  0.00  0.00    +0.066 C 
ATOM     22  C   UNL     1     -63.431  -2.545  20.838  0.00  0.00    -0.064 C 
ATOM     23  N   UNL     1     -63.548  -3.589  21.949  0.00  0.00    +0.379 N 
ATOM     24  C   UNL     1     -62.434  -4.543  21.846  0.00  0.00    -0.096 C 
ATOM     25  H   UNL     1     -64.495  -4.155  21.783  0.00  0.00    -0.082 HD
ATOM     26  C   UNL     1     -63.641  -2.926  23.316  0.00  0.00    -0.064 C 
ATOM     27  C   UNL     1     -64.838  -1.937  23.371  0.00  0.00    +0.066 C 
ENDBRANCH  19  20
ENDBRANCH  18  19
ENDBRANCH  14  15
ENDBRANCH  12  13
TORSDOF 6
ENDMDL
