MODEL 1
REMARK VINA RESULT:     -10.3      0.000      0.000
REMARK  Name = C:\Users\Docking\Desktop\test protocol\1iep_ligandH.pdb
REMARK  8 active torsions:
REMARK  status: ('A' for Active; 'I' for Inactive)
REMARK    1  A    between atoms: _5  and  _11
REMARK    2  A    between atoms: _19  and  _21
REMARK    3  A    between atoms: _22  and  _66
REMARK    4  A    between atoms: _27  and  _30
REMARK    5  A    between atoms: _32  and  _33
REMARK    6  A    between atoms: _38  and  _43
REMARK    7  A    between atoms: _43  and  _46
REMARK    8  A    between atoms: _53  and  _55
REMARK                            x       y       z     vdW  Elec       q    Type
REMARK                         _______ _______ _______ _____ _____    ______ ____
ROOT
ATOM     10  C   UNL     1       7.926 -40.749 -63.002  0.00  0.00    +0.038 A 
ATOM     11  C   UNL     1       7.363 -39.738 -62.181  0.00  0.00    +0.047 A 
ATOM     12  C   UNL     1       6.625 -40.074 -60.973  0.00  0.00    +0.035 A 
ATOM     32  C   UNL     1       6.481 -41.450 -60.630  0.00  0.00    +0.024 A 
ATOM     33  C   UNL     1       7.046 -42.490 -61.454  0.00  0.00    +0.007 A 
ATOM     34  C   UNL     1       7.773 -42.165 -62.647  0.00  0.00    -0.029 A 
ATOM     35  C   UNL     1       8.351 -43.322 -63.496  0.00  0.00    +0.045 C 
ENDROOT
BRANCH  10   9
ATOM      4  C   UNL     1       8.112 -39.604 -67.659  0.00  0.00    +0.077 A 
ATOM      5  C   UNL     1       6.701 -39.803 -67.825  0.00  0.00    +0.048 A 
ATOM      6  C   UNL     1       5.964 -40.208 -66.689  0.00  0.00    +0.116 A 
ATOM      7  N   UNL     1       6.602 -40.395 -65.482  0.00  0.00    -0.223 NA
ATOM      8  C   UNL     1       7.964 -40.195 -65.356  0.00  0.00    +0.220 A 
ATOM      9  N   UNL     1       8.625 -40.370 -64.150  0.00  0.00    -0.283 N 
ATOM     36  H   UNL     1       9.632 -40.220 -64.100  0.00  0.00    +0.155 HD
ATOM     37  N   UNL     1       8.690 -39.810 -66.427  0.00  0.00    -0.214 NA
BRANCH   4   3
ATOM      1  C   UNL     1      11.122 -39.398 -70.148  0.00  0.00    +0.020 A 
ATOM      2  C   UNL     1      10.277 -39.854 -69.069  0.00  0.00    +0.013 A 
ATOM      3  C   UNL     1       9.025 -39.173 -68.765  0.00  0.00    +0.019 A 
ATOM     38  C   UNL     1       8.653 -38.026 -69.580  0.00  0.00    +0.120 A 
ATOM     39  N   UNL     1       9.488 -37.609 -70.612  0.00  0.00    -0.263 NA
ATOM     40  C   UNL     1      10.697 -38.255 -70.912  0.00  0.00    +0.111 A 
ENDBRANCH   4   3
ENDBRANCH  10   9
BRANCH  12  13
ATOM     13  N   UNL     1       6.025 -39.092 -60.105  0.00  0.00    -0.281 N 
ATOM     14  C   UNL     1       4.677 -38.844 -59.903  0.00  0.00    +0.248 C 
ATOM     30  O   UNL     1       3.780 -39.290 -60.602  0.00  0.00    -0.270 OA
ATOM     31  H   UNL     1       6.672 -38.508 -59.576  0.00  0.00    +0.155 HD
BRANCH  14  15
ATOM     15  C   UNL     1       4.267 -37.963 -58.767  0.00  0.00    +0.037 A 
ATOM     16  C   UNL     1       4.339 -36.503 -58.874  0.00  0.00    +0.013 A 
ATOM     17  C   UNL     1       3.954 -35.677 -57.758  0.00  0.00    +0.005 A 
ATOM     18  C   UNL     1       3.492 -36.308 -56.525  0.00  0.00    -0.033 A 
ATOM     28  C   UNL     1       3.425 -37.758 -56.448  0.00  0.00    +0.005 A 
ATOM     29  C   UNL     1       3.803 -38.572 -57.539  0.00  0.00    +0.013 A 
BRANCH  18  19
ATOM     19  C   UNL     1       3.081 -35.505 -55.276  0.00  0.00    +0.119 C 
BRANCH  19  20
ATOM     20  N   UNL     1       2.322 -36.232 -54.215  0.00  0.00    -0.302 NA
ATOM     21  C   UNL     1       1.006 -35.529 -53.867  0.00  0.00    +0.066 C 
ATOM     22  C   UNL     1       0.214 -36.315 -52.771  0.00  0.00    -0.064 C 
ATOM     23  N   UNL     1       1.090 -36.472 -51.527  0.00  0.00    +0.379 N 
ATOM     24  C   UNL     1       0.328 -37.159 -50.474  0.00  0.00    -0.096 C 
ATOM     25  H   UNL     1       1.335 -35.450 -51.155  0.00  0.00    -0.082 HD
ATOM     26  C   UNL     1       2.402 -37.167 -51.865  0.00  0.00    -0.064 C 
ATOM     27  C   UNL     1       3.167 -36.394 -52.975  0.00  0.00    +0.066 C 
ENDBRANCH  19  20
ENDBRANCH  18  19
ENDBRANCH  14  15
ENDBRANCH  12  13
TORSDOF 6
ENDMDL
MODEL 2
REMARK VINA RESULT:     -10.3      1.703      2.461
REMARK  Name = C:\Users\Docking\Desktop\test protocol\1iep_ligandH.pdb
REMARK  8 active torsions:
REMARK  status: ('A' for Active; 'I' for Inactive)
REMARK    1  A    between atoms: _5  and  _11
REMARK    2  A    between atoms: _19  and  _21
REMARK    3  A    between atoms: _22  and  _66
REMARK    4  A    between atoms: _27  and  _30
REMARK    5  A    between atoms: _32  and  _33
REMARK    6  A    between atoms: _38  and  _43
REMARK    7  A    between atoms: _43  and  _46
REMARK    8  A    between atoms: _53  and  _55
REMARK                            x       y       z     vdW  Elec       q    Type
REMARK                         _______ _______ _______ _____ _____    ______ ____
ROOT
ATOM     10  C   UNL     1       8.048 -40.713 -63.226  0.00  0.00    +0.038 A 
ATOM     11  C   UNL     1       7.411 -39.776 -62.374  0.00  0.00    +0.047 A 
ATOM     12  C   UNL     1       6.750 -40.200 -61.149  0.00  0.00    +0.035 A 
ATOM     32  C   UNL     1       6.759 -41.587 -60.822  0.00  0.00    +0.024 A 
ATOM     33  C   UNL     1       7.402 -42.554 -61.678  0.00  0.00    +0.007 A 
ATOM     34  C   UNL     1       8.053 -42.142 -62.888  0.00  0.00    -0.029 A 
ATOM     35  C   UNL     1       8.720 -43.222 -63.771  0.00  0.00    +0.045 C 
ENDROOT
BRANCH  10   9
ATOM      4  C   UNL     1       7.957 -39.465 -67.860  0.00  0.00    +0.077 A 
ATOM      5  C   UNL     1       6.565 -39.786 -67.980  0.00  0.00    +0.048 A 
ATOM      6  C   UNL     1       5.910 -40.277 -66.828  0.00  0.00    +0.116 A 
ATOM      7  N   UNL     1       6.606 -40.430 -65.649  0.00  0.00    -0.223 NA
ATOM      8  C   UNL     1       7.949 -40.112 -65.567  0.00  0.00    +0.220 A 
ATOM      9  N   UNL     1       8.667 -40.251 -64.390  0.00  0.00    -0.283 N 
ATOM     36  H   UNL     1       9.658 -40.012 -64.372  0.00  0.00    +0.155 HD
ATOM     37  N   UNL     1       8.598 -39.643 -66.654  0.00  0.00    -0.214 NA
BRANCH   4   3
ATOM      1  C   UNL     1      10.867 -38.906 -70.414  0.00  0.00    +0.020 A 
ATOM      2  C   UNL     1      10.107 -39.455 -69.314  0.00  0.00    +0.013 A 
ATOM      3  C   UNL     1       8.787 -38.933 -68.987  0.00  0.00    +0.019 A 
ATOM     38  C   UNL     1       8.259 -37.846 -69.799  0.00  0.00    +0.120 A 
ATOM     39  N   UNL     1       9.014 -37.337 -70.851  0.00  0.00    -0.263 NA
ATOM     40  C   UNL     1      10.287 -37.831 -71.174  0.00  0.00    +0.111 A 
ENDBRANCH   4   3
ENDBRANCH  10   9
BRANCH  12  13
ATOM     13  N   UNL     1       6.079 -39.295 -60.249  0.00  0.00    -0.281 N 
ATOM     14  C   UNL     1       4.716 -39.110 -60.086  0.00  0.00    +0.248 C 
ATOM     30  O   UNL     1       3.864 -39.546 -60.845  0.00  0.00    -0.270 OA
ATOM     31  H   UNL     1       6.683 -38.720 -59.661  0.00  0.00    +0.155 HD
BRANCH  14  15
ATOM     15  C   UNL     1       4.230 -38.315 -58.917  0.00  0.00    +0.037 A 
ATOM     16  C   UNL     1       3.751 -38.971 -57.698  0.00  0.00    +0.013 A 
ATOM     17  C   UNL     1       3.271 -38.181 -56.592  0.00  0.00    +0.005 A 
ATOM     18  C   UNL     1       3.271 -36.724 -56.700  0.00  0.00    -0.033 A 
ATOM     28  C   UNL     1       3.757 -36.099 -57.919  0.00  0.00    +0.005 A 
ATOM     29  C   UNL     1       4.226 -36.870 -59.006  0.00  0.00    +0.013 A 
BRANCH  18  19
ATOM     19  C   UNL     1       2.758 -35.802 -55.578  0.00  0.00    +0.119 C 
BRANCH  19  20
ATOM     20  N   UNL     1       3.636 -34.664 -55.173  0.00  0.00    -0.302 NA
ATOM     21  C   UNL     1       5.042 -35.132 -54.789  0.00  0.00    +0.066 C 
ATOM     22  C   UNL     1       5.954 -33.926 -54.389  0.00  0.00    -0.064 C 
ATOM     23  N   UNL     1       5.304 -33.159 -53.236  0.00  0.00    +0.379 N 
ATOM     24  C   UNL     1       6.187 -32.059 -52.820  0.00  0.00    -0.096 C 
ATOM     25  H   UNL     1       5.209 -33.861 -52.375  0.00  0.00    -0.082 HD
ATOM     26  C   UNL     1       3.904 -32.692 -53.609  0.00  0.00    -0.064 C 
ATOM     27  C   UNL     1       3.015 -33.895 -54.033  0.00  0.00    +0.066 C 
ENDBRANCH  19  20
ENDBRANCH  18  19
ENDBRANCH  14  15
ENDBRANCH  12  13
TORSDOF 6
ENDMDL
MODEL 3
REMARK VINA RESULT:      -9.9      2.583     14.478
REMARK  Name = C:\Users\Docking\Desktop\test protocol\1iep_ligandH.pdb
REMARK  8 active torsions:
REMARK  status: ('A' for Active; 'I' for Inactive)
REMARK    1  A    between atoms: _5  and  _11
REMARK    2  A    between atoms: _19  and  _21
REMARK    3  A    between atoms: _22  and  _66
REMARK    4  A    between atoms: _27  and  _30
REMARK    5  A    between atoms: _32  and  _33
REMARK    6  A    between atoms: _38  and  _43
REMARK    7  A    between atoms: _43  and  _46
REMARK    8  A    between atoms: _53  and  _55
REMARK                            x       y       z     vdW  Elec       q    Type
REMARK                         _______ _______ _______ _____ _____    ______ ____
ROOT
ATOM     10  C   UNL     1       2.236 -35.692 -54.563  0.00  0.00    +0.038 A 
ATOM     11  C   UNL     1       2.338 -36.713 -55.542  0.00  0.00    +0.047 A 
ATOM     12  C   UNL     1       3.464 -36.765 -56.461  0.00  0.00    +0.035 A 
ATOM     32  C   UNL     1       4.471 -35.762 -56.353  0.00  0.00    +0.024 A 
ATOM     33  C   UNL     1       4.384 -34.716 -55.364  0.00  0.00    +0.007 A 
ATOM     34  C   UNL     1       3.274 -34.658 -54.457  0.00  0.00    -0.029 A 
ATOM     35  C   UNL     1       3.228 -33.511 -53.421  0.00  0.00    +0.045 C 
ENDROOT
BRANCH  10   9
ATOM      4  C   UNL     1      -1.214 -37.943 -52.101  0.00  0.00    +0.077 A 
ATOM      5  C   UNL     1      -0.802 -39.229 -52.584  0.00  0.00    +0.048 A 
ATOM      6  C   UNL     1       0.298 -39.267 -53.470  0.00  0.00    +0.116 A 
ATOM      7  N   UNL     1       0.931 -38.100 -53.838  0.00  0.00    -0.223 NA
ATOM      8  C   UNL     1       0.507 -36.876 -53.355  0.00  0.00    +0.220 A 
ATOM      9  N   UNL     1       1.134 -35.690 -53.706  0.00  0.00    -0.283 N 
ATOM     36  H   UNL     1       0.786 -34.806 -53.334  0.00  0.00    +0.155 HD
ATOM     37  N   UNL     1      -0.542 -36.812 -52.509  0.00  0.00    -0.214 NA
BRANCH   4   3
ATOM      1  C   UNL     1      -3.986 -36.279 -49.899  0.00  0.00    +0.020 A 
ATOM      2  C   UNL     1      -2.880 -36.421 -50.817  0.00  0.00    +0.013 A 
ATOM      3  C   UNL     1      -2.358 -37.739 -51.156  0.00  0.00    +0.019 A 
ATOM     38  C   UNL     1      -2.984 -38.902 -50.546  0.00  0.00    +0.120 A 
ATOM     39  N   UNL     1      -4.047 -38.735 -49.664  0.00  0.00    -0.263 NA
ATOM     40  C   UNL     1      -4.557 -37.471 -49.329  0.00  0.00    +0.111 A 
ENDBRANCH   4   3
ENDBRANCH  10   9
BRANCH  12  13
ATOM     13  N   UNL     1       3.616 -37.772 -57.481  0.00  0.00    -0.281 N 
ATOM     14  C   UNL     1       3.115 -37.760 -58.773  0.00  0.00    +0.248 C 
ATOM     30  O   UNL     1       2.275 -36.971 -59.180  0.00  0.00    -0.270 OA
ATOM     31  H   UNL     1       4.159 -38.595 -57.220  0.00  0.00    +0.155 HD
BRANCH  14  15
ATOM     15  C   UNL     1       3.608 -38.779 -59.749  0.00  0.00    +0.037 A 
ATOM     16  C   UNL     1       5.039 -38.947 -60.015  0.00  0.00    +0.013 A 
ATOM     17  C   UNL     1       5.486 -39.926 -60.974  0.00  0.00    +0.005 A 
ATOM     18  C   UNL     1       4.500 -40.746 -61.673  0.00  0.00    -0.033 A 
ATOM     28  C   UNL     1       3.087 -40.562 -61.386  0.00  0.00    +0.005 A 
ATOM     29  C   UNL     1       2.645 -39.603 -60.447  0.00  0.00    +0.013 A 
BRANCH  18  19
ATOM     19  C   UNL     1       4.886 -41.801 -62.727  0.00  0.00    +0.119 C 
BRANCH  19  20
ATOM     20  N   UNL     1       5.518 -41.308 -63.987  0.00  0.00    -0.302 NA
ATOM     21  C   UNL     1       4.597 -41.479 -65.198  0.00  0.00    +0.066 C 
ATOM     22  C   UNL     1       5.266 -40.938 -66.503  0.00  0.00    -0.064 C 
ATOM     23  N   UNL     1       6.595 -41.660 -66.728  0.00  0.00    +0.379 N 
ATOM     24  C   UNL     1       7.199 -41.195 -67.986  0.00  0.00    -0.096 C 
ATOM     25  H   UNL     1       6.375 -42.747 -66.840  0.00  0.00    -0.082 HD
ATOM     26  C   UNL     1       7.517 -41.497 -65.528  0.00  0.00    -0.064 C 
ATOM     27  C   UNL     1       6.831 -42.011 -64.231  0.00  0.00    +0.066 C 
ENDBRANCH  19  20
ENDBRANCH  18  19
ENDBRANCH  14  15
ENDBRANCH  12  13
TORSDOF 6
ENDMDL
MODEL 4
REMARK VINA RESULT:      -9.9     11.611     18.328
REMARK  Name = C:\Users\Docking\Desktop\test protocol\1iep_ligandH.pdb
REMARK  8 active torsions:
REMARK  status: ('A' for Active; 'I' for Inactive)
REMARK    1  A    between atoms: _5  and  _11
REMARK    2  A    between atoms: _19  and  _21
REMARK    3  A    between atoms: _22  and  _66
REMARK    4  A    between atoms: _27  and  _30
REMARK    5  A    between atoms: _32  and  _33
REMARK    6  A    between atoms: _38  and  _43
REMARK    7  A    between atoms: _43  and  _46
REMARK    8  A    between atoms: _53  and  _55
REMARK                            x       y       z     vdW  Elec       q    Type
REMARK                         _______ _______ _______ _____ _____    ______ ____
ROOT
ATOM     10  C   UNL     1      -6.169 -40.172 -52.233  0.00  0.00    +0.038 A 
ATOM     11  C   UNL     1      -7.123 -39.233 -52.700  0.00  0.00    +0.047 A 
ATOM     12  C   UNL     1      -8.542 -39.402 -52.426  0.00  0.00    +0.035 A 
ATOM     32  C   UNL     1      -8.953 -40.539 -51.671  0.00  0.00    +0.024 A 
ATOM     33  C   UNL     1      -7.997 -41.504 -51.190  0.00  0.00    +0.007 A 
ATOM     34  C   UNL     1      -6.596 -41.344 -51.459  0.00  0.00    -0.029 A 
ATOM     35  C   UNL     1      -5.616 -42.414 -50.924  0.00  0.00    +0.045 C 
ENDROOT
BRANCH  10   9
ATOM      4  C   UNL     1      -2.029 -37.816 -51.640  0.00  0.00    +0.077 A 
ATOM      5  C   UNL     1      -2.611 -36.914 -50.688  0.00  0.00    +0.048 A 
ATOM      6  C   UNL     1      -3.980 -37.086 -50.384  0.00  0.00    +0.116 A 
ATOM      7  N   UNL     1      -4.704 -38.088 -50.992  0.00  0.00    -0.223 NA
ATOM      8  C   UNL     1      -4.113 -38.940 -51.907  0.00  0.00    +0.220 A 
ATOM      9  N   UNL     1      -4.820 -39.961 -52.525  0.00  0.00    -0.283 N 
ATOM     36  H   UNL     1      -4.349 -40.563 -53.200  0.00  0.00    +0.155 HD
ATOM     37  N   UNL     1      -2.807 -38.796 -52.216  0.00  0.00    -0.214 NA
BRANCH   4   3
ATOM      1  C   UNL     1       1.749 -36.842 -51.913  0.00  0.00    +0.020 A 
ATOM      2  C   UNL     1       0.374 -36.852 -51.469  0.00  0.00    +0.013 A 
ATOM      3  C   UNL     1      -0.594 -37.765 -52.063  0.00  0.00    +0.019 A 
ATOM     38  C   UNL     1      -0.135 -38.663 -53.112  0.00  0.00    +0.120 A 
ATOM     39  N   UNL     1       1.195 -38.630 -53.520  0.00  0.00    -0.263 NA
ATOM     40  C   UNL     1       2.135 -37.755 -52.957  0.00  0.00    +0.111 A 
ENDBRANCH   4   3
ENDBRANCH  10   9
BRANCH  12  13
ATOM     13  N   UNL     1      -9.558 -38.485 -52.881  0.00  0.00    -0.281 N 
ATOM     14  C   UNL     1     -10.159 -38.431 -54.128  0.00  0.00    +0.248 C 
ATOM     30  O   UNL     1      -9.759 -39.031 -55.115  0.00  0.00    -0.270 OA
ATOM     31  H   UNL     1      -9.872 -37.792 -52.202  0.00  0.00    +0.155 HD
BRANCH  14  15
ATOM     15  C   UNL     1     -11.372 -37.576 -54.308  0.00  0.00    +0.037 A 
ATOM     16  C   UNL     1     -12.675 -38.163 -54.630  0.00  0.00    +0.013 A 
ATOM     17  C   UNL     1     -13.825 -37.314 -54.815  0.00  0.00    +0.005 A 
ATOM     18  C   UNL     1     -13.676 -35.867 -54.677  0.00  0.00    -0.033 A 
ATOM     28  C   UNL     1     -12.373 -35.312 -54.352  0.00  0.00    +0.005 A 
ATOM     29  C   UNL     1     -11.244 -36.141 -54.171  0.00  0.00    +0.013 A 
BRANCH  18  19
ATOM     19  C   UNL     1     -14.845 -34.884 -54.879  0.00  0.00    +0.119 C 
BRANCH  19  20
ATOM     20  N   UNL     1     -15.595 -34.968 -56.167  0.00  0.00    -0.302 NA
ATOM     21  C   UNL     1     -15.326 -33.759 -57.068  0.00  0.00    +0.066 C 
ATOM     22  C   UNL     1     -16.101 -33.874 -58.421  0.00  0.00    -0.064 C 
ATOM     23  N   UNL     1     -17.597 -34.016 -58.138  0.00  0.00    +0.379 N 
ATOM     24  C   UNL     1     -18.334 -34.066 -59.409  0.00  0.00    -0.096 C 
ATOM     25  H   UNL     1     -17.926 -33.102 -57.592  0.00  0.00    -0.082 HD
ATOM     26  C   UNL     1     -17.873 -35.214 -57.241  0.00  0.00    -0.064 C 
ATOM     27  C   UNL     1     -17.075 -35.104 -55.911  0.00  0.00    +0.066 C 
ENDBRANCH  19  20
ENDBRANCH  18  19
ENDBRANCH  14  15
ENDBRANCH  12  13
TORSDOF 6
ENDMDL
MODEL 5
REMARK VINA RESULT:      -9.6      3.945      5.961
REMARK  Name = C:\Users\Docking\Desktop\test protocol\1iep_ligandH.pdb
REMARK  8 active torsions:
REMARK  status: ('A' for Active; 'I' for Inactive)
REMARK    1  A    between atoms: _5  and  _11
REMARK    2  A    between atoms: _19  and  _21
REMARK    3  A    between atoms: _22  and  _66
REMARK    4  A    between atoms: _27  and  _30
REMARK    5  A    between atoms: _32  and  _33
REMARK    6  A    between atoms: _38  and  _43
REMARK    7  A    between atoms: _43  and  _46
REMARK    8  A    between atoms: _53  and  _55
REMARK                            x       y       z     vdW  Elec       q    Type
REMARK                         _______ _______ _______ _____ _____    ______ ____
ROOT
ATOM     10  C   UNL     1       5.048 -40.704 -62.516  0.00  0.00    +0.038 A 
ATOM     11  C   UNL     1       4.547 -40.179 -61.297  0.00  0.00    +0.047 A 
ATOM     12  C   UNL     1       5.422 -39.498 -60.355  0.00  0.00    +0.035 A 
ATOM     32  C   UNL     1       6.802 -39.368 -60.688  0.00  0.00    +0.024 A 
ATOM     33  C   UNL     1       7.328 -39.897 -61.922  0.00  0.00    +0.007 A 
ATOM     34  C   UNL     1       6.470 -40.571 -62.854  0.00  0.00    -0.029 A 
ATOM     35  C   UNL     1       7.089 -41.124 -64.158  0.00  0.00    +0.045 C 
ENDROOT
BRANCH  10   9
ATOM      4  C   UNL     1       2.902 -44.648 -64.213  0.00  0.00    +0.077 A 
ATOM      5  C   UNL     1       3.625 -45.500 -63.314  0.00  0.00    +0.048 A 
ATOM      6  C   UNL     1       4.545 -44.885 -62.435  0.00  0.00    +0.116 A 
ATOM      7  N   UNL     1       4.720 -43.518 -62.463  0.00  0.00    -0.223 NA
ATOM      8  C   UNL     1       4.008 -42.725 -63.344  0.00  0.00    +0.220 A 
ATOM      9  N   UNL     1       4.163 -41.348 -63.383  0.00  0.00    -0.283 N 
ATOM     36  H   UNL     1       3.624 -40.799 -64.053  0.00  0.00    +0.155 HD
ATOM     37  N   UNL     1       3.125 -43.289 -64.194  0.00  0.00    -0.214 NA
BRANCH   4   3
ATOM      1  C   UNL     1       1.246 -46.336 -67.329  0.00  0.00    +0.020 A 
ATOM      2  C   UNL     1       2.260 -45.873 -66.409  0.00  0.00    +0.013 A 
ATOM      3  C   UNL     1       1.893 -45.148 -65.199  0.00  0.00    +0.019 A 
ATOM     38  C   UNL     1       0.480 -44.906 -64.947  0.00  0.00    +0.120 A 
ATOM     39  N   UNL     1      -0.474 -45.362 -65.851  0.00  0.00    -0.263 NA
ATOM     40  C   UNL     1      -0.133 -46.059 -67.020  0.00  0.00    +0.111 A 
ENDBRANCH   4   3
ENDBRANCH  10   9
BRANCH  12  13
ATOM     13  N   UNL     1       4.972 -38.951 -59.099  0.00  0.00    -0.281 N 
ATOM     14  C   UNL     1       4.178 -37.836 -58.892  0.00  0.00    +0.248 C 
ATOM     30  O   UNL     1       3.908 -37.010 -59.751  0.00  0.00    -0.270 OA
ATOM     31  H   UNL     1       5.276 -39.447 -58.261  0.00  0.00    +0.155 HD
BRANCH  14  15
ATOM     15  C   UNL     1       3.613 -37.595 -57.529  0.00  0.00    +0.037 A 
ATOM     16  C   UNL     1       3.872 -36.345 -56.809  0.00  0.00    +0.013 A 
ATOM     17  C   UNL     1       3.329 -36.145 -55.489  0.00  0.00    +0.005 A 
ATOM     18  C   UNL     1       2.521 -37.199 -54.880  0.00  0.00    -0.033 A 
ATOM     28  C   UNL     1       2.276 -38.426 -55.618  0.00  0.00    +0.005 A 
ATOM     29  C   UNL     1       2.807 -38.626 -56.912  0.00  0.00    +0.013 A 
BRANCH  18  19
ATOM     19  C   UNL     1       1.919 -37.080 -53.467  0.00  0.00    +0.119 C 
BRANCH  19  20
ATOM     20  N   UNL     1       0.471 -37.410 -53.310  0.00  0.00    -0.302 NA
ATOM     21  C   UNL     1      -0.219 -36.495 -52.294  0.00  0.00    +0.066 C 
ATOM     22  C   UNL     1      -1.738 -36.839 -52.159  0.00  0.00    -0.064 C 
ATOM     23  N   UNL     1      -1.892 -38.307 -51.759  0.00  0.00    +0.379 N 
ATOM     24  C   UNL     1      -3.317 -38.619 -51.575  0.00  0.00    -0.096 C 
ATOM     25  H   UNL     1      -1.386 -38.444 -50.775  0.00  0.00    -0.082 HD
ATOM     26  C   UNL     1      -1.206 -39.223 -52.762  0.00  0.00    -0.064 C 
ATOM     27  C   UNL     1       0.296 -38.854 -52.910  0.00  0.00    +0.066 C 
ENDBRANCH  19  20
ENDBRANCH  18  19
ENDBRANCH  14  15
ENDBRANCH  12  13
TORSDOF 6
ENDMDL
