MODEL 1
REMARK VINA RESULT:      -9.0      0.000      0.000
REMARK  Name = C:\Users\Docking\Desktop\test protocol\1iep_ligandH.pdb
REMARK  8 active torsions:
REMARK  status: ('A' for Active; 'I' for Inactive)
REMARK    1  A    between atoms: _5  and  _11
REMARK    2  A    between atoms: _19  and  _21
REMARK    3  A    between atoms: _22  and  _66
REMARK    4  A    between atoms: _27  and  _30
REMARK    5  A    between atoms: _32  and  _33
REMARK    6  A    between atoms: _38  and  _43
REMARK    7  A    between atoms: _43  and  _46
REMARK    8  A    between atoms: _53  and  _55
REMARK                            x       y       z     vdW  Elec       q    Type
REMARK                         _______ _______ _______ _____ _____    ______ ____
ROOT
ATOM     10  C   UNL     1     -82.035 -21.441  13.958  0.00  0.00    +0.038 A 
ATOM     11  C   UNL     1     -81.827 -22.825  13.730  0.00  0.00    +0.047 A 
ATOM     12  C   UNL     1     -80.678 -23.517  14.294  0.00  0.00    +0.035 A 
ATOM     32  C   UNL     1     -79.762 -22.768  15.088  0.00  0.00    +0.024 A 
ATOM     33  C   UNL     1     -79.957 -21.360  15.329  0.00  0.00    +0.007 A 
ATOM     34  C   UNL     1     -81.087 -20.672  14.773  0.00  0.00    -0.029 A 
ATOM     35  C   UNL     1     -81.242 -19.160  15.059  0.00  0.00    +0.045 C 
ENDROOT
BRANCH  10   9
ATOM      4  C   UNL     1     -86.566 -19.874  14.180  0.00  0.00    +0.077 A 
ATOM      5  C   UNL     1     -86.724 -20.340  15.528  0.00  0.00    +0.048 A 
ATOM      6  C   UNL     1     -85.617 -20.985  16.125  0.00  0.00    +0.116 A 
ATOM      7  N   UNL     1     -84.445 -21.145  15.418  0.00  0.00    -0.223 NA
ATOM      8  C   UNL     1     -84.327 -20.684  14.120  0.00  0.00    +0.220 A 
ATOM      9  N   UNL     1     -83.155 -20.827  13.393  0.00  0.00    -0.283 N 
ATOM     36  H   UNL     1     -83.110 -20.481  12.435  0.00  0.00    +0.155 HD
ATOM     37  N   UNL     1     -85.370 -20.067  13.527  0.00  0.00    -0.214 NA
BRANCH   4   3
ATOM      1  C   UNL     1     -90.063 -18.670  12.906  0.00  0.00    +0.020 A 
ATOM      2  C   UNL     1     -89.063 -19.375  13.675  0.00  0.00    +0.013 A 
ATOM      3  C   UNL     1     -87.643 -19.170  13.414  0.00  0.00    +0.019 A 
ATOM     38  C   UNL     1     -87.267 -18.239  12.362  0.00  0.00    +0.120 A 
ATOM     39  N   UNL     1     -88.252 -17.576  11.638  0.00  0.00    -0.263 NA
ATOM     40  C   UNL     1     -89.621 -17.766  11.878  0.00  0.00    +0.111 A 
ENDBRANCH   4   3
ENDBRANCH  10   9
BRANCH  12  13
ATOM     13  N   UNL     1     -80.411 -24.919  14.090  0.00  0.00    -0.281 N 
ATOM     14  C   UNL     1     -81.300 -25.907  13.699  0.00  0.00    +0.248 C 
ATOM     30  O   UNL     1     -82.514 -25.773  13.671  0.00  0.00    -0.270 OA
ATOM     31  H   UNL     1     -79.450 -25.220  14.253  0.00  0.00    +0.155 HD
BRANCH  14  15
ATOM     15  C   UNL     1     -80.763 -27.242  13.293  0.00  0.00    +0.037 A 
ATOM     16  C   UNL     1     -79.374 -27.401  12.854  0.00  0.00    +0.013 A 
ATOM     17  C   UNL     1     -78.887 -28.696  12.452  0.00  0.00    +0.005 A 
ATOM     18  C   UNL     1     -79.790 -29.844  12.488  0.00  0.00    -0.033 A 
ATOM     28  C   UNL     1     -81.161 -29.659  12.933  0.00  0.00    +0.005 A 
ATOM     29  C   UNL     1     -81.643 -28.391  13.327  0.00  0.00    +0.013 A 
BRANCH  18  19
ATOM     19  C   UNL     1     -79.361 -31.259  12.057  0.00  0.00    +0.119 C 
BRANCH  19  20
ATOM     20  N   UNL     1     -78.536 -32.047  13.021  0.00  0.00    -0.302 NA
ATOM     21  C   UNL     1     -77.128 -32.318  12.484  0.00  0.00    +0.066 C 
ATOM     22  C   UNL     1     -76.271 -33.124  13.514  0.00  0.00    -0.064 C 
ATOM     23  N   UNL     1     -76.984 -34.435  13.851  0.00  0.00    +0.379 N 
ATOM     24  C   UNL     1     -76.154 -35.222  14.775  0.00  0.00    -0.096 C 
ATOM     25  H   UNL     1     -77.084 -35.018  12.906  0.00  0.00    -0.082 HD
ATOM     26  C   UNL     1     -78.386 -34.175  14.383  0.00  0.00    -0.064 C 
ATOM     27  C   UNL     1     -79.219 -33.348  13.364  0.00  0.00    +0.066 C 
ENDBRANCH  19  20
ENDBRANCH  18  19
ENDBRANCH  14  15
ENDBRANCH  12  13
TORSDOF 6
ENDMDL
MODEL 2
REMARK VINA RESULT:      -8.7      7.021      8.123
REMARK  Name = C:\Users\Docking\Desktop\test protocol\1iep_ligandH.pdb
REMARK  8 active torsions:
REMARK  status: ('A' for Active; 'I' for Inactive)
REMARK    1  A    between atoms: _5  and  _11
REMARK    2  A    between atoms: _19  and  _21
REMARK    3  A    between atoms: _22  and  _66
REMARK    4  A    between atoms: _27  and  _30
REMARK    5  A    between atoms: _32  and  _33
REMARK    6  A    between atoms: _38  and  _43
REMARK    7  A    between atoms: _43  and  _46
REMARK    8  A    between atoms: _53  and  _55
REMARK                            x       y       z     vdW  Elec       q    Type
REMARK                         _______ _______ _______ _____ _____    ______ ____
ROOT
ATOM     10  C   UNL     1     -84.399 -20.323  13.766  0.00  0.00    +0.038 A 
ATOM     11  C   UNL     1     -82.982 -20.270  13.745  0.00  0.00    +0.047 A 
ATOM     12  C   UNL     1     -82.205 -20.405  14.967  0.00  0.00    +0.035 A 
ATOM     32  C   UNL     1     -82.904 -20.596  16.194  0.00  0.00    +0.024 A 
ATOM     33  C   UNL     1     -84.344 -20.652  16.235  0.00  0.00    +0.007 A 
ATOM     34  C   UNL     1     -85.116 -20.517  15.032  0.00  0.00    -0.029 A 
ATOM     35  C   UNL     1     -86.658 -20.578  15.136  0.00  0.00    +0.045 C 
ENDROOT
BRANCH  10   9
ATOM      4  C   UNL     1     -86.402 -17.661  10.312  0.00  0.00    +0.077 A 
ATOM      5  C   UNL     1     -86.057 -16.436  10.974  0.00  0.00    +0.048 A 
ATOM      6  C   UNL     1     -85.371 -16.535  12.205  0.00  0.00    +0.116 A 
ATOM      7  N   UNL     1     -85.058 -17.772  12.725  0.00  0.00    -0.223 NA
ATOM      8  C   UNL     1     -85.406 -18.934  12.062  0.00  0.00    +0.220 A 
ATOM      9  N   UNL     1     -85.094 -20.188  12.563  0.00  0.00    -0.283 N 
ATOM     36  H   UNL     1     -85.376 -21.021  12.047  0.00  0.00    +0.155 HD
ATOM     37  N   UNL     1     -86.064 -18.866  10.885  0.00  0.00    -0.214 NA
BRANCH   4   3
ATOM      1  C   UNL     1     -89.223 -17.666   7.602  0.00  0.00    +0.020 A 
ATOM      2  C   UNL     1     -88.574 -17.602   8.891  0.00  0.00    +0.013 A 
ATOM      3  C   UNL     1     -87.125 -17.721   9.002  0.00  0.00    +0.019 A 
ATOM     38  C   UNL     1     -86.357 -17.905   7.780  0.00  0.00    +0.120 A 
ATOM     39  N   UNL     1     -87.010 -17.965   6.553  0.00  0.00    -0.263 NA
ATOM     40  C   UNL     1     -88.403 -17.853   6.434  0.00  0.00    +0.111 A 
ENDBRANCH   4   3
ENDBRANCH  10   9
BRANCH  12  13
ATOM     13  N   UNL     1     -80.764 -20.350  15.008  0.00  0.00    -0.281 N 
ATOM     14  C   UNL     1     -79.961 -19.262  15.307  0.00  0.00    +0.248 C 
ATOM     30  O   UNL     1     -80.359 -18.108  15.378  0.00  0.00    -0.270 OA
ATOM     31  H   UNL     1     -80.278 -21.220  14.790  0.00  0.00    +0.155 HD
BRANCH  14  15
ATOM     15  C   UNL     1     -78.504 -19.485  15.550  0.00  0.00    +0.037 A 
ATOM     16  C   UNL     1     -77.605 -19.886  14.464  0.00  0.00    +0.013 A 
ATOM     17  C   UNL     1     -76.206 -20.111  14.729  0.00  0.00    +0.005 A 
ATOM     18  C   UNL     1     -75.697 -19.934  16.086  0.00  0.00    -0.033 A 
ATOM     28  C   UNL     1     -76.609 -19.531  17.143  0.00  0.00    +0.005 A 
ATOM     29  C   UNL     1     -77.981 -19.310  16.888  0.00  0.00    +0.013 A 
BRANCH  18  19
ATOM     19  C   UNL     1     -74.223 -20.173  16.464  0.00  0.00    +0.119 C 
BRANCH  19  20
ATOM     20  N   UNL     1     -73.951 -21.094  17.608  0.00  0.00    -0.302 NA
ATOM     21  C   UNL     1     -72.466 -21.127  17.978  0.00  0.00    +0.066 C 
ATOM     22  C   UNL     1     -72.202 -22.078  19.191  0.00  0.00    -0.064 C 
ATOM     23  N   UNL     1     -72.707 -23.482  18.853  0.00  0.00    +0.379 N 
ATOM     24  C   UNL     1     -72.409 -24.392  19.968  0.00  0.00    -0.096 C 
ATOM     25  H   UNL     1     -72.140 -23.840  17.963  0.00  0.00    -0.082 HD
ATOM     26  C   UNL     1     -74.183 -23.459  18.480  0.00  0.00    -0.064 C 
ATOM     27  C   UNL     1     -74.438 -22.488  17.294  0.00  0.00    +0.066 C 
ENDBRANCH  19  20
ENDBRANCH  18  19
ENDBRANCH  14  15
ENDBRANCH  12  13
TORSDOF 6
ENDMDL
MODEL 3
REMARK VINA RESULT:      -8.7     15.312     18.579
REMARK  Name = C:\Users\Docking\Desktop\test protocol\1iep_ligandH.pdb
REMARK  8 active torsions:
REMARK  status: ('A' for Active; 'I' for Inactive)
REMARK    1  A    between atoms: _5  and  _11
REMARK    2  A    between atoms: _19  and  _21
REMARK    3  A    between atoms: _22  and  _66
REMARK    4  A    between atoms: _27  and  _30
REMARK    5  A    between atoms: _32  and  _33
REMARK    6  A    between atoms: _38  and  _43
REMARK    7  A    between atoms: _43  and  _46
REMARK    8  A    between atoms: _53  and  _55
REMARK                            x       y       z     vdW  Elec       q    Type
REMARK                         _______ _______ _______ _____ _____    ______ ____
ROOT
ATOM     10  C   UNL     1     -67.124 -24.288  15.952  0.00  0.00    +0.038 A 
ATOM     11  C   UNL     1     -66.030 -25.173  15.778  0.00  0.00    +0.047 A 
ATOM     12  C   UNL     1     -66.024 -26.492  16.393  0.00  0.00    +0.035 A 
ATOM     32  C   UNL     1     -67.150 -26.876  17.177  0.00  0.00    +0.024 A 
ATOM     33  C   UNL     1     -68.270 -25.988  17.366  0.00  0.00    +0.007 A 
ATOM     34  C   UNL     1     -68.281 -24.686  16.763  0.00  0.00    -0.029 A 
ATOM     35  C   UNL     1     -69.505 -23.772  17.005  0.00  0.00    +0.045 C 
ENDROOT
BRANCH  10   9
ATOM      4  C   UNL     1     -65.813 -19.671  15.850  0.00  0.00    +0.077 A 
ATOM      5  C   UNL     1     -65.192 -19.758  17.140  0.00  0.00    +0.048 A 
ATOM      6  C   UNL     1     -65.239 -21.007  17.800  0.00  0.00    +0.116 A 
ATOM      7  N   UNL     1     -65.862 -22.082  17.205  0.00  0.00    -0.223 NA
ATOM      8  C   UNL     1     -66.452 -21.964  15.960  0.00  0.00    +0.220 A 
ATOM      9  N   UNL     1     -67.077 -23.034  15.338  0.00  0.00    -0.283 N 
ATOM     36  H   UNL     1     -67.508 -22.904  14.423  0.00  0.00    +0.155 HD
ATOM     37  N   UNL     1     -66.423 -20.782  15.310  0.00  0.00    -0.214 NA
BRANCH   4   3
ATOM      1  C   UNL     1     -65.314 -17.103  12.942  0.00  0.00    +0.020 A 
ATOM      2  C   UNL     1     -65.256 -18.334  13.696  0.00  0.00    +0.013 A 
ATOM      3  C   UNL     1     -65.845 -18.421  15.027  0.00  0.00    +0.019 A 
ATOM     38  C   UNL     1     -66.491 -17.236  15.569  0.00  0.00    +0.120 A 
ATOM     39  N   UNL     1     -66.530 -16.064  14.821  0.00  0.00    -0.263 NA
ATOM     40  C   UNL     1     -65.966 -15.967  13.540  0.00  0.00    +0.111 A 
ENDBRANCH   4   3
ENDBRANCH  10   9
BRANCH  12  13
ATOM     13  N   UNL     1     -64.938 -27.431  16.258  0.00  0.00    -0.281 N 
ATOM     14  C   UNL     1     -63.681 -27.367  16.835  0.00  0.00    +0.248 C 
ATOM     30  O   UNL     1     -63.223 -26.378  17.388  0.00  0.00    -0.270 OA
ATOM     31  H   UNL     1     -65.119 -28.241  15.665  0.00  0.00    +0.155 HD
BRANCH  14  15
ATOM     15  C   UNL     1     -62.798 -28.572  16.778  0.00  0.00    +0.037 A 
ATOM     16  C   UNL     1     -61.393 -28.505  17.189  0.00  0.00    +0.013 A 
ATOM     17  C   UNL     1     -60.559 -29.678  17.107  0.00  0.00    +0.005 A 
ATOM     18  C   UNL     1     -61.129 -30.929  16.614  0.00  0.00    -0.033 A 
ATOM     28  C   UNL     1     -62.528 -30.969  16.218  0.00  0.00    +0.005 A 
ATOM     29  C   UNL     1     -63.348 -29.821  16.296  0.00  0.00    +0.013 A 
BRANCH  18  19
ATOM     19  C   UNL     1     -60.308 -32.225  16.474  0.00  0.00    +0.119 C 
BRANCH  19  20
ATOM     20  N   UNL     1     -60.476 -33.259  17.538  0.00  0.00    -0.302 NA
ATOM     21  C   UNL     1     -61.932 -33.712  17.674  0.00  0.00    +0.066 C 
ATOM     22  C   UNL     1     -62.086 -34.811  18.776  0.00  0.00    -0.064 C 
ATOM     23  N   UNL     1     -61.559 -34.271  20.107  0.00  0.00    +0.379 N 
ATOM     24  C   UNL     1     -61.756 -35.281  21.157  0.00  0.00    -0.096 C 
ATOM     25  H   UNL     1     -62.172 -33.379  20.376  0.00  0.00    -0.082 HD
ATOM     26  C   UNL     1     -60.113 -33.816  19.979  0.00  0.00    -0.064 C 
ATOM     27  C   UNL     1     -59.966 -32.746  18.862  0.00  0.00    +0.066 C 
ENDBRANCH  19  20
ENDBRANCH  18  19
ENDBRANCH  14  15
ENDBRANCH  12  13
TORSDOF 6
ENDMDL
MODEL 4
REMARK VINA RESULT:      -8.2      6.706      8.588
REMARK  Name = C:\Users\Docking\Desktop\test protocol\1iep_ligandH.pdb
REMARK  8 active torsions:
REMARK  status: ('A' for Active; 'I' for Inactive)
REMARK    1  A    between atoms: _5  and  _11
REMARK    2  A    between atoms: _19  and  _21
REMARK    3  A    between atoms: _22  and  _66
REMARK    4  A    between atoms: _27  and  _30
REMARK    5  A    between atoms: _32  and  _33
REMARK    6  A    between atoms: _38  and  _43
REMARK    7  A    between atoms: _43  and  _46
REMARK    8  A    between atoms: _53  and  _55
REMARK                            x       y       z     vdW  Elec       q    Type
REMARK                         _______ _______ _______ _____ _____    ______ ____
ROOT
ATOM     10  C   UNL     1     -85.922 -20.581  13.796  0.00  0.00    +0.038 A 
ATOM     11  C   UNL     1     -84.526 -20.819  13.873  0.00  0.00    +0.047 A 
ATOM     12  C   UNL     1     -83.874 -21.063  15.151  0.00  0.00    +0.035 A 
ATOM     32  C   UNL     1     -84.675 -21.059  16.330  0.00  0.00    +0.024 A 
ATOM     33  C   UNL     1     -86.095 -20.817  16.269  0.00  0.00    +0.007 A 
ATOM     34  C   UNL     1     -86.744 -20.574  15.012  0.00  0.00    -0.029 A 
ATOM     35  C   UNL     1     -88.268 -20.315  15.008  0.00  0.00    +0.045 C 
ENDROOT
BRANCH  10   9
ATOM      4  C   UNL     1     -87.013 -17.724  10.097  0.00  0.00    +0.077 A 
ATOM      5  C   UNL     1     -86.412 -16.582  10.724  0.00  0.00    +0.048 A 
ATOM      6  C   UNL     1     -85.839 -16.771  12.002  0.00  0.00    +0.116 A 
ATOM      7  N   UNL     1     -85.871 -18.013  12.598  0.00  0.00    -0.223 NA
ATOM      8  C   UNL     1     -86.460 -19.093  11.966  0.00  0.00    +0.220 A 
ATOM      9  N   UNL     1     -86.496 -20.353  12.543  0.00  0.00    -0.283 N 
ATOM     36  H   UNL     1     -86.947 -21.122  12.047  0.00  0.00    +0.155 HD
ATOM     37  N   UNL     1     -87.015 -18.938  10.746  0.00  0.00    -0.214 NA
BRANCH   4   3
ATOM      1  C   UNL     1     -89.669 -17.552   7.230  0.00  0.00    +0.020 A 
ATOM      2  C   UNL     1     -89.098 -17.587   8.557  0.00  0.00    +0.013 A 
ATOM      3  C   UNL     1     -87.656 -17.684   8.745  0.00  0.00    +0.019 A 
ATOM     38  C   UNL     1     -86.813 -17.744   7.561  0.00  0.00    +0.120 A 
ATOM     39  N   UNL     1     -87.390 -17.710   6.296  0.00  0.00    -0.263 NA
ATOM     40  C   UNL     1     -88.777 -17.618   6.102  0.00  0.00    +0.111 A 
ENDBRANCH   4   3
ENDBRANCH  10   9
BRANCH  12  13
ATOM     13  N   UNL     1     -82.459 -21.303  15.292  0.00  0.00    -0.281 N 
ATOM     14  C   UNL     1     -81.441 -20.367  15.374  0.00  0.00    +0.248 C 
ATOM     30  O   UNL     1     -81.572 -19.178  15.123  0.00  0.00    -0.270 OA
ATOM     31  H   UNL     1     -82.174 -22.281  15.337  0.00  0.00    +0.155 HD
BRANCH  14  15
ATOM     15  C   UNL     1     -80.076 -20.820  15.781  0.00  0.00    +0.037 A 
ATOM     16  C   UNL     1     -79.888 -21.988  16.646  0.00  0.00    +0.013 A 
ATOM     17  C   UNL     1     -78.561 -22.393  17.036  0.00  0.00    +0.005 A 
ATOM     18  C   UNL     1     -77.410 -21.629  16.560  0.00  0.00    -0.033 A 
ATOM     28  C   UNL     1     -77.624 -20.478  15.699  0.00  0.00    +0.005 A 
ATOM     29  C   UNL     1     -78.924 -20.077  15.315  0.00  0.00    +0.013 A 
BRANCH  18  19
ATOM     19  C   UNL     1     -75.960 -21.977  16.944  0.00  0.00    +0.119 C 
BRANCH  19  20
ATOM     20  N   UNL     1     -75.064 -20.845  17.326  0.00  0.00    -0.302 NA
ATOM     21  C   UNL     1     -73.598 -21.134  16.990  0.00  0.00    +0.066 C 
ATOM     22  C   UNL     1     -72.677 -19.930  17.376  0.00  0.00    -0.064 C 
ATOM     23  N   UNL     1     -72.841 -19.623  18.865  0.00  0.00    +0.379 N 
ATOM     24  C   UNL     1     -71.934 -18.530  19.243  0.00  0.00    -0.096 C 
ATOM     25  H   UNL     1     -72.532 -20.531  19.434  0.00  0.00    -0.082 HD
ATOM     26  C   UNL     1     -74.296 -19.337  19.208  0.00  0.00    -0.064 C 
ATOM     27  C   UNL     1     -75.206 -20.527  18.794  0.00  0.00    +0.066 C 
ENDBRANCH  19  20
ENDBRANCH  18  19
ENDBRANCH  14  15
ENDBRANCH  12  13
TORSDOF 6
ENDMDL
MODEL 5
REMARK VINA RESULT:      -8.2     29.363     33.149
REMARK  Name = C:\Users\Docking\Desktop\test protocol\1iep_ligandH.pdb
REMARK  8 active torsions:
REMARK  status: ('A' for Active; 'I' for Inactive)
REMARK    1  A    between atoms: _5  and  _11
REMARK    2  A    between atoms: _19  and  _21
REMARK    3  A    between atoms: _22  and  _66
REMARK    4  A    between atoms: _27  and  _30
REMARK    5  A    between atoms: _32  and  _33
REMARK    6  A    between atoms: _38  and  _43
REMARK    7  A    between atoms: _43  and  _46
REMARK    8  A    between atoms: _53  and  _55
REMARK                            x       y       z     vdW  Elec       q    Type
REMARK                         _______ _______ _______ _____ _____    ______ ____
ROOT
ATOM     10  C   UNL     1     -79.199  -5.794 -11.760  0.00  0.00    +0.038 A 
ATOM     11  C   UNL     1     -77.894  -5.400 -11.371  0.00  0.00    +0.047 A 
ATOM     12  C   UNL     1     -76.984  -4.772 -12.317  0.00  0.00    +0.035 A 
ATOM     32  C   UNL     1     -77.439  -4.558 -13.651  0.00  0.00    +0.024 A 
ATOM     33  C   UNL     1     -78.762  -4.953 -14.064  0.00  0.00    +0.007 A 
ATOM     34  C   UNL     1     -79.663  -5.576 -13.136  0.00  0.00    -0.029 A 
ATOM     35  C   UNL     1     -81.068  -5.985 -13.635  0.00  0.00    +0.045 C 
ENDROOT
BRANCH  10   9
ATOM      4  C   UNL     1     -82.251  -5.568  -8.062  0.00  0.00    +0.077 A 
ATOM      5  C   UNL     1     -82.161  -4.138  -7.999  0.00  0.00    +0.048 A 
ATOM      6  C   UNL     1     -81.312  -3.499  -8.931  0.00  0.00    +0.116 A 
ATOM      7  N   UNL     1     -80.611  -4.245  -9.853  0.00  0.00    -0.223 NA
ATOM      8  C   UNL     1     -80.720  -5.623  -9.886  0.00  0.00    +0.220 A 
ATOM      9  N   UNL     1     -80.031  -6.393 -10.811  0.00  0.00    -0.283 N 
ATOM     36  H   UNL     1     -80.132  -7.408 -10.798  0.00  0.00    +0.155 HD
ATOM     37  N   UNL     1     -81.523  -6.257  -9.006  0.00  0.00    -0.214 NA
BRANCH   4   3
ATOM      1  C   UNL     1     -85.225  -6.797  -5.838  0.00  0.00    +0.020 A 
ATOM      2  C   UNL     1     -84.438  -5.969  -6.723  0.00  0.00    +0.013 A 
ATOM      3  C   UNL     1     -83.108  -6.387  -7.147  0.00  0.00    +0.019 A 
ATOM     38  C   UNL     1     -82.599  -7.658  -6.655  0.00  0.00    +0.120 A 
ATOM     39  N   UNL     1     -83.379  -8.434  -5.803  0.00  0.00    -0.263 NA
ATOM     40  C   UNL     1     -84.660  -8.042  -5.386  0.00  0.00    +0.111 A 
ENDBRANCH   4   3
ENDBRANCH  10   9
BRANCH  12  13
ATOM     13  N   UNL     1     -75.645  -4.357 -11.982  0.00  0.00    -0.281 N 
ATOM     14  C   UNL     1     -75.220  -3.686 -10.847  0.00  0.00    +0.248 C 
ATOM     30  O   UNL     1     -75.966  -3.148 -10.042  0.00  0.00    -0.270 OA
ATOM     31  H   UNL     1     -74.922  -4.587 -12.664  0.00  0.00    +0.155 HD
BRANCH  14  15
ATOM     15  C   UNL     1     -73.754  -3.585 -10.574  0.00  0.00    +0.037 A 
ATOM     16  C   UNL     1     -72.963  -4.766 -10.220  0.00  0.00    +0.013 A 
ATOM     17  C   UNL     1     -71.554  -4.638  -9.945  0.00  0.00    +0.005 A 
ATOM     18  C   UNL     1     -70.926  -3.322 -10.025  0.00  0.00    -0.033 A 
ATOM     28  C   UNL     1     -71.732  -2.167 -10.384  0.00  0.00    +0.005 A 
ATOM     29  C   UNL     1     -73.114  -2.289 -10.653  0.00  0.00    +0.013 A 
BRANCH  18  19
ATOM     19  C   UNL     1     -69.433  -3.088  -9.728  0.00  0.00    +0.119 C 
BRANCH  19  20
ATOM     20  N   UNL     1     -68.554  -2.728 -10.881  0.00  0.00    -0.302 NA
ATOM     21  C   UNL     1     -68.466  -1.213 -11.084  0.00  0.00    +0.066 C 
ATOM     22  C   UNL     1     -67.525  -0.853 -12.280  0.00  0.00    -0.064 C 
ATOM     23  N   UNL     1     -68.031  -1.541 -13.549  0.00  0.00    +0.379 N 
ATOM     24  C   UNL     1     -67.182  -1.158 -14.686  0.00  0.00    -0.096 C 
ATOM     25  H   UNL     1     -69.060  -1.162 -13.751  0.00  0.00    -0.082 HD
ATOM     26  C   UNL     1     -68.124  -3.048 -13.354  0.00  0.00    -0.064 C 
ATOM     27  C   UNL     1     -69.038  -3.394 -12.145  0.00  0.00    +0.066 C 
ENDBRANCH  19  20
ENDBRANCH  18  19
ENDBRANCH  14  15
ENDBRANCH  12  13
TORSDOF 6
ENDMDL
