MODEL 1
REMARK VINA RESULT:      -8.1      0.000      0.000
REMARK  Name = C:\Users\Docking\Desktop\test protocol\1iep_ligandH.pdb
REMARK  8 active torsions:
REMARK  status: ('A' for Active; 'I' for Inactive)
REMARK    1  A    between atoms: _5  and  _11
REMARK    2  A    between atoms: _19  and  _21
REMARK    3  A    between atoms: _22  and  _66
REMARK    4  A    between atoms: _27  and  _30
REMARK    5  A    between atoms: _32  and  _33
REMARK    6  A    between atoms: _38  and  _43
REMARK    7  A    between atoms: _43  and  _46
REMARK    8  A    between atoms: _53  and  _55
REMARK                            x       y       z     vdW  Elec       q    Type
REMARK                         _______ _______ _______ _____ _____    ______ ____
ROOT
ATOM     10  C   UNL     1      -8.185  31.823   0.309  0.00  0.00    +0.038 A 
ATOM     11  C   UNL     1      -9.461  31.738  -0.304  0.00  0.00    +0.047 A 
ATOM     12  C   UNL     1      -9.728  30.768  -1.354  0.00  0.00    +0.035 A 
ATOM     32  C   UNL     1      -8.673  29.897  -1.754  0.00  0.00    +0.024 A 
ATOM     33  C   UNL     1      -7.369  29.971  -1.143  0.00  0.00    +0.007 A 
ATOM     34  C   UNL     1      -7.099  30.928  -0.108  0.00  0.00    -0.029 A 
ATOM     35  C   UNL     1      -5.681  30.966   0.507  0.00  0.00    +0.045 C 
ENDROOT
BRANCH  10   9
ATOM      4  C   UNL     1      -8.272  33.212   4.903  0.00  0.00    +0.077 A 
ATOM      5  C   UNL     1      -8.788  31.945   5.337  0.00  0.00    +0.048 A 
ATOM      6  C   UNL     1      -9.023  30.966   4.346  0.00  0.00    +0.116 A 
ATOM      7  N   UNL     1      -8.759  31.243   3.022  0.00  0.00    -0.223 NA
ATOM      8  C   UNL     1      -8.264  32.476   2.637  0.00  0.00    +0.220 A 
ATOM      9  N   UNL     1      -7.984  32.774   1.312  0.00  0.00    -0.283 N 
ATOM     36  H   UNL     1      -7.626  33.697   1.068  0.00  0.00    +0.155 HD
ATOM     37  N   UNL     1      -8.032  33.428   3.564  0.00  0.00    -0.214 NA
BRANCH   4   3
ATOM      1  C   UNL     1      -8.060  35.478   8.084  0.00  0.00    +0.020 A 
ATOM      2  C   UNL     1      -8.379  34.358   7.229  0.00  0.00    +0.013 A 
ATOM      3  C   UNL     1      -7.969  34.346   5.831  0.00  0.00    +0.019 A 
ATOM     38  C   UNL     1      -7.230  35.493   5.324  0.00  0.00    +0.120 A 
ATOM     39  N   UNL     1      -6.938  36.559   6.170  0.00  0.00    -0.263 NA
ATOM     40  C   UNL     1      -7.330  36.581   7.517  0.00  0.00    +0.111 A 
ENDBRANCH   4   3
ENDBRANCH  10   9
BRANCH  12  13
ATOM     13  N   UNL     1     -11.002  30.640  -2.018  0.00  0.00    -0.281 N 
ATOM     14  C   UNL     1     -11.490  31.392  -3.075  0.00  0.00    +0.248 C 
ATOM     30  O   UNL     1     -10.990  32.434  -3.471  0.00  0.00    -0.270 OA
ATOM     31  H   UNL     1     -11.618  29.907  -1.667  0.00  0.00    +0.155 HD
BRANCH  14  15
ATOM     15  C   UNL     1     -12.721  30.927  -3.783  0.00  0.00    +0.037 A 
ATOM     16  C   UNL     1     -12.713  29.713  -4.603  0.00  0.00    +0.013 A 
ATOM     17  C   UNL     1     -13.910  29.296  -5.290  0.00  0.00    +0.005 A 
ATOM     18  C   UNL     1     -15.126  30.094  -5.158  0.00  0.00    -0.033 A 
ATOM     28  C   UNL     1     -15.108  31.291  -4.334  0.00  0.00    +0.005 A 
ATOM     29  C   UNL     1     -13.936  31.703  -3.660  0.00  0.00    +0.013 A 
BRANCH  18  19
ATOM     19  C   UNL     1     -16.443  29.735  -5.872  0.00  0.00    +0.119 C 
BRANCH  19  20
ATOM     20  N   UNL     1     -17.577  29.268  -5.020  0.00  0.00    -0.302 NA
ATOM     21  C   UNL     1     -18.445  30.431  -4.531  0.00  0.00    +0.066 C 
ATOM     22  C   UNL     1     -19.640  29.922  -3.660  0.00  0.00    -0.064 C 
ATOM     23  N   UNL     1     -19.099  29.115  -2.479  0.00  0.00    +0.379 N 
ATOM     24  C   UNL     1     -20.217  28.684  -1.626  0.00  0.00    -0.096 C 
ATOM     25  H   UNL     1     -18.454  29.793  -1.874  0.00  0.00    -0.082 HD
ATOM     26  C   UNL     1     -18.232  27.958  -2.956  0.00  0.00    -0.064 C 
ATOM     27  C   UNL     1     -17.065  28.472  -3.845  0.00  0.00    +0.066 C 
ENDBRANCH  19  20
ENDBRANCH  18  19
ENDBRANCH  14  15
ENDBRANCH  12  13
TORSDOF 6
ENDMDL
MODEL 2
REMARK VINA RESULT:      -8.1      6.228     10.998
REMARK  Name = C:\Users\Docking\Desktop\test protocol\1iep_ligandH.pdb
REMARK  8 active torsions:
REMARK  status: ('A' for Active; 'I' for Inactive)
REMARK    1  A    between atoms: _5  and  _11
REMARK    2  A    between atoms: _19  and  _21
REMARK    3  A    between atoms: _22  and  _66
REMARK    4  A    between atoms: _27  and  _30
REMARK    5  A    between atoms: _32  and  _33
REMARK    6  A    between atoms: _38  and  _43
REMARK    7  A    between atoms: _43  and  _46
REMARK    8  A    between atoms: _53  and  _55
REMARK                            x       y       z     vdW  Elec       q    Type
REMARK                         _______ _______ _______ _____ _____    ______ ____
ROOT
ATOM     10  C   UNL     1      -8.702  31.140   1.731  0.00  0.00    +0.038 A 
ATOM     11  C   UNL     1      -7.976  29.948   1.986  0.00  0.00    +0.047 A 
ATOM     12  C   UNL     1      -8.379  28.681   1.396  0.00  0.00    +0.035 A 
ATOM     32  C   UNL     1      -9.524  28.664   0.548  0.00  0.00    +0.024 A 
ATOM     33  C   UNL     1     -10.274  29.866   0.279  0.00  0.00    +0.007 A 
ATOM     34  C   UNL     1      -9.883  31.118   0.861  0.00  0.00    -0.029 A 
ATOM     35  C   UNL     1     -10.728  32.374   0.543  0.00  0.00    +0.045 C 
ENDROOT
BRANCH  10   9
ATOM      4  C   UNL     1      -8.047  33.969   5.553  0.00  0.00    +0.077 A 
ATOM      5  C   UNL     1      -8.639  33.009   6.439  0.00  0.00    +0.048 A 
ATOM      6  C   UNL     1      -9.105  31.802   5.871  0.00  0.00    +0.116 A 
ATOM      7  N   UNL     1      -8.984  31.583   4.516  0.00  0.00    -0.223 NA
ATOM      8  C   UNL     1      -8.410  32.531   3.689  0.00  0.00    +0.220 A 
ATOM      9  N   UNL     1      -8.270  32.328   2.324  0.00  0.00    -0.283 N 
ATOM     36  H   UNL     1      -7.848  33.055   1.747  0.00  0.00    +0.155 HD
ATOM     37  N   UNL     1      -7.958  33.692   4.207  0.00  0.00    -0.214 NA
BRANCH   4   3
ATOM      1  C   UNL     1      -6.419  37.526   5.572  0.00  0.00    +0.020 A 
ATOM      2  C   UNL     1      -6.929  36.264   5.085  0.00  0.00    +0.013 A 
ATOM      3  C   UNL     1      -7.504  35.290   6.003  0.00  0.00    +0.019 A 
ATOM     38  C   UNL     1      -7.550  35.625   7.419  0.00  0.00    +0.120 A 
ATOM     39  N   UNL     1      -7.050  36.847   7.858  0.00  0.00    -0.263 NA
ATOM     40  C   UNL     1      -6.492  37.792   6.984  0.00  0.00    +0.111 A 
ENDBRANCH   4   3
ENDBRANCH  10   9
BRANCH  12  13
ATOM     13  N   UNL     1      -7.686  27.437   1.625  0.00  0.00    -0.281 N 
ATOM     14  C   UNL     1      -6.513  26.995   1.036  0.00  0.00    +0.248 C 
ATOM     30  O   UNL     1      -5.993  27.512   0.058  0.00  0.00    -0.270 OA
ATOM     31  H   UNL     1      -8.112  26.807   2.305  0.00  0.00    +0.155 HD
BRANCH  14  15
ATOM     15  C   UNL     1      -5.827  25.795   1.605  0.00  0.00    +0.037 A 
ATOM     16  C   UNL     1      -4.679  25.933   2.505  0.00  0.00    +0.013 A 
ATOM     17  C   UNL     1      -4.024  24.759   3.027  0.00  0.00    +0.005 A 
ATOM     18  C   UNL     1      -4.518  23.437   2.651  0.00  0.00    -0.033 A 
ATOM     28  C   UNL     1      -5.662  23.330   1.760  0.00  0.00    +0.005 A 
ATOM     29  C   UNL     1      -6.305  24.477   1.246  0.00  0.00    +0.013 A 
BRANCH  18  19
ATOM     19  C   UNL     1      -3.868  22.130   3.143  0.00  0.00    +0.119 C 
BRANCH  19  20
ATOM     20  N   UNL     1      -2.925  22.228   4.297  0.00  0.00    -0.302 NA
ATOM     21  C   UNL     1      -2.062  20.971   4.442  0.00  0.00    +0.066 C 
ATOM     22  C   UNL     1      -1.066  21.100   5.640  0.00  0.00    -0.064 C 
ATOM     23  N   UNL     1      -1.850  21.370   6.925  0.00  0.00    +0.379 N 
ATOM     24  C   UNL     1      -0.921  21.433   8.063  0.00  0.00    -0.096 C 
ATOM     25  H   UNL     1      -2.532  20.504   7.093  0.00  0.00    -0.082 HD
ATOM     26  C   UNL     1      -2.713  22.616   6.789  0.00  0.00    -0.064 C 
ATOM     27  C   UNL     1      -3.679  22.490   5.577  0.00  0.00    +0.066 C 
ENDBRANCH  19  20
ENDBRANCH  18  19
ENDBRANCH  14  15
ENDBRANCH  12  13
TORSDOF 6
ENDMDL
MODEL 3
REMARK VINA RESULT:      -7.8      6.928     11.246
REMARK  Name = C:\Users\Docking\Desktop\test protocol\1iep_ligandH.pdb
REMARK  8 active torsions:
REMARK  status: ('A' for Active; 'I' for Inactive)
REMARK    1  A    between atoms: _5  and  _11
REMARK    2  A    between atoms: _19  and  _21
REMARK    3  A    between atoms: _22  and  _66
REMARK    4  A    between atoms: _27  and  _30
REMARK    5  A    between atoms: _32  and  _33
REMARK    6  A    between atoms: _38  and  _43
REMARK    7  A    between atoms: _43  and  _46
REMARK    8  A    between atoms: _53  and  _55
REMARK                            x       y       z     vdW  Elec       q    Type
REMARK                         _______ _______ _______ _____ _____    ______ ____
ROOT
ATOM     10  C   UNL     1      -7.829  30.628   2.125  0.00  0.00    +0.038 A 
ATOM     11  C   UNL     1      -7.056  29.493   2.482  0.00  0.00    +0.047 A 
ATOM     12  C   UNL     1      -7.369  28.173   1.958  0.00  0.00    +0.035 A 
ATOM     32  C   UNL     1      -8.477  28.045   1.070  0.00  0.00    +0.024 A 
ATOM     33  C   UNL     1      -9.274  29.187   0.697  0.00  0.00    +0.007 A 
ATOM     34  C   UNL     1      -8.971  30.491   1.213  0.00  0.00    -0.029 A 
ATOM     35  C   UNL     1      -9.864  31.679   0.784  0.00  0.00    +0.045 C 
ENDROOT
BRANCH  10   9
ATOM      4  C   UNL     1      -8.013  33.949   5.585  0.00  0.00    +0.077 A 
ATOM      5  C   UNL     1      -8.895  33.150   6.387  0.00  0.00    +0.048 A 
ATOM      6  C   UNL     1      -9.283  31.894   5.869  0.00  0.00    +0.116 A 
ATOM      7  N   UNL     1      -8.817  31.478   4.641  0.00  0.00    -0.223 NA
ATOM      8  C   UNL     1      -7.970  32.273   3.892  0.00  0.00    +0.220 A 
ATOM      9  N   UNL     1      -7.483  31.871   2.658  0.00  0.00    -0.283 N 
ATOM     36  H   UNL     1      -6.866  32.490   2.134  0.00  0.00    +0.155 HD
ATOM     37  N   UNL     1      -7.586  33.478   4.364  0.00  0.00    -0.214 NA
BRANCH   4   3
ATOM      1  C   UNL     1      -7.134  37.119   7.701  0.00  0.00    +0.020 A 
ATOM      2  C   UNL     1      -7.636  35.809   7.356  0.00  0.00    +0.013 A 
ATOM      3  C   UNL     1      -7.511  35.298   5.996  0.00  0.00    +0.019 A 
ATOM     38  C   UNL     1      -6.868  36.145   5.003  0.00  0.00    +0.120 A 
ATOM     39  N   UNL     1      -6.396  37.402   5.364  0.00  0.00    -0.263 NA
ATOM     40  C   UNL     1      -6.511  37.905   6.669  0.00  0.00    +0.111 A 
ENDBRANCH   4   3
ENDBRANCH  10   9
BRANCH  12  13
ATOM     13  N   UNL     1      -6.625  26.984   2.291  0.00  0.00    -0.281 N 
ATOM     14  C   UNL     1      -5.434  26.542   1.739  0.00  0.00    +0.248 C 
ATOM     30  O   UNL     1      -4.935  26.995   0.720  0.00  0.00    -0.270 OA
ATOM     31  H   UNL     1      -7.025  26.397   3.023  0.00  0.00    +0.155 HD
BRANCH  14  15
ATOM     15  C   UNL     1      -4.698  25.426   2.408  0.00  0.00    +0.037 A 
ATOM     16  C   UNL     1      -3.234  25.390   2.435  0.00  0.00    +0.013 A 
ATOM     17  C   UNL     1      -2.549  24.293   3.072  0.00  0.00    +0.005 A 
ATOM     18  C   UNL     1      -3.329  23.224   3.689  0.00  0.00    -0.033 A 
ATOM     28  C   UNL     1      -4.781  23.287   3.653  0.00  0.00    +0.005 A 
ATOM     29  C   UNL     1      -5.456  24.360   3.028  0.00  0.00    +0.013 A 
BRANCH  18  19
ATOM     19  C   UNL     1      -2.683  22.004   4.373  0.00  0.00    +0.119 C 
BRANCH  19  20
ATOM     20  N   UNL     1      -2.996  20.658   3.808  0.00  0.00    -0.302 NA
ATOM     21  C   UNL     1      -1.989  19.597   4.258  0.00  0.00    +0.066 C 
ATOM     22  C   UNL     1      -2.345  18.190   3.677  0.00  0.00    -0.064 C 
ATOM     23  N   UNL     1      -2.399  18.271   2.150  0.00  0.00    +0.379 N 
ATOM     24  C   UNL     1      -2.676  16.938   1.597  0.00  0.00    -0.096 C 
ATOM     25  H   UNL     1      -1.390  18.583   1.792  0.00  0.00    -0.082 HD
ATOM     26  C   UNL     1      -3.397  19.326   1.693  0.00  0.00    -0.064 C 
ATOM     27  C   UNL     1      -3.051  20.714   2.301  0.00  0.00    +0.066 C 
ENDBRANCH  19  20
ENDBRANCH  18  19
ENDBRANCH  14  15
ENDBRANCH  12  13
TORSDOF 6
ENDMDL
MODEL 4
REMARK VINA RESULT:      -7.7      8.299     12.433
REMARK  Name = C:\Users\Docking\Desktop\test protocol\1iep_ligandH.pdb
REMARK  8 active torsions:
REMARK  status: ('A' for Active; 'I' for Inactive)
REMARK    1  A    between atoms: _5  and  _11
REMARK    2  A    between atoms: _19  and  _21
REMARK    3  A    between atoms: _22  and  _66
REMARK    4  A    between atoms: _27  and  _30
REMARK    5  A    between atoms: _32  and  _33
REMARK    6  A    between atoms: _38  and  _43
REMARK    7  A    between atoms: _43  and  _46
REMARK    8  A    between atoms: _53  and  _55
REMARK                            x       y       z     vdW  Elec       q    Type
REMARK                         _______ _______ _______ _____ _____    ______ ____
ROOT
ATOM     10  C   UNL     1      -3.912  29.862   2.775  0.00  0.00    +0.038 A 
ATOM     11  C   UNL     1      -3.866  28.525   3.247  0.00  0.00    +0.047 A 
ATOM     12  C   UNL     1      -3.440  27.436   2.382  0.00  0.00    +0.035 A 
ATOM     32  C   UNL     1      -3.065  27.745   1.042  0.00  0.00    +0.024 A 
ATOM     33  C   UNL     1      -3.107  29.097   0.546  0.00  0.00    +0.007 A 
ATOM     34  C   UNL     1      -3.528  30.176   1.394  0.00  0.00    -0.029 A 
ATOM     35  C   UNL     1      -3.560  31.606   0.806  0.00  0.00    +0.045 C 
ENDROOT
BRANCH  10   9
ATOM      4  C   UNL     1      -7.334  32.388   4.998  0.00  0.00    +0.077 A 
ATOM      5  C   UNL     1      -8.381  31.658   4.343  0.00  0.00    +0.048 A 
ATOM      6  C   UNL     1      -7.996  30.645   3.436  0.00  0.00    +0.116 A 
ATOM      7  N   UNL     1      -6.661  30.390   3.209  0.00  0.00    -0.223 NA
ATOM      8  C   UNL     1      -5.677  31.114   3.856  0.00  0.00    +0.220 A 
ATOM      9  N   UNL     1      -4.328  30.869   3.649  0.00  0.00    -0.283 N 
ATOM     36  H   UNL     1      -3.632  31.430   4.140  0.00  0.00    +0.155 HD
ATOM     37  N   UNL     1      -6.018  32.087   4.726  0.00  0.00    -0.214 NA
BRANCH   4   3
ATOM      1  C   UNL     1      -8.973  34.640   7.745  0.00  0.00    +0.020 A 
ATOM      2  C   UNL     1      -8.783  33.559   6.806  0.00  0.00    +0.013 A 
ATOM      3  C   UNL     1      -7.581  33.486   5.986  0.00  0.00    +0.019 A 
ATOM     38  C   UNL     1      -6.580  34.531   6.143  0.00  0.00    +0.120 A 
ATOM     39  N   UNL     1      -6.790  35.561   7.055  0.00  0.00    -0.263 NA
ATOM     40  C   UNL     1      -7.945  35.642   7.848  0.00  0.00    +0.111 A 
ENDBRANCH   4   3
ENDBRANCH  10   9
BRANCH  12  13
ATOM     13  N   UNL     1      -3.381  26.058   2.804  0.00  0.00    -0.281 N 
ATOM     14  C   UNL     1      -4.374  25.097   2.713  0.00  0.00    +0.248 C 
ATOM     30  O   UNL     1      -5.543  25.333   2.448  0.00  0.00    -0.270 OA
ATOM     31  H   UNL     1      -2.500  25.755   3.219  0.00  0.00    +0.155 HD
BRANCH  14  15
ATOM     15  C   UNL     1      -4.020  23.667   2.966  0.00  0.00    +0.037 A 
ATOM     16  C   UNL     1      -4.638  22.913   4.060  0.00  0.00    +0.013 A 
ATOM     17  C   UNL     1      -4.265  21.540   4.293  0.00  0.00    +0.005 A 
ATOM     18  C   UNL     1      -3.270  20.911   3.428  0.00  0.00    -0.033 A 
ATOM     28  C   UNL     1      -2.677  21.681   2.347  0.00  0.00    +0.005 A 
ATOM     29  C   UNL     1      -3.038  23.027   2.116  0.00  0.00    +0.013 A 
BRANCH  18  19
ATOM     19  C   UNL     1      -2.797  19.458   3.617  0.00  0.00    +0.119 C 
BRANCH  19  20
ATOM     20  N   UNL     1      -2.209  18.770   2.428  0.00  0.00    -0.302 NA
ATOM     21  C   UNL     1      -2.912  17.443   2.127  0.00  0.00    +0.066 C 
ATOM     22  C   UNL     1      -2.299  16.749   0.867  0.00  0.00    -0.064 C 
ATOM     23  N   UNL     1      -0.801  16.531   1.086  0.00  0.00    +0.379 N 
ATOM     24  C   UNL     1      -0.233  15.826  -0.072  0.00  0.00    -0.096 C 
ATOM     25  H   UNL     1      -0.682  15.870   1.976  0.00  0.00    -0.082 HD
ATOM     26  C   UNL     1      -0.095  17.845   1.390  0.00  0.00    -0.064 C 
ATOM     27  C   UNL     1      -0.731  18.542   2.625  0.00  0.00    +0.066 C 
ENDBRANCH  19  20
ENDBRANCH  18  19
ENDBRANCH  14  15
ENDBRANCH  12  13
TORSDOF 6
ENDMDL
MODEL 5
REMARK VINA RESULT:      -7.6      5.839     11.181
REMARK  Name = C:\Users\Docking\Desktop\test protocol\1iep_ligandH.pdb
REMARK  8 active torsions:
REMARK  status: ('A' for Active; 'I' for Inactive)
REMARK    1  A    between atoms: _5  and  _11
REMARK    2  A    between atoms: _19  and  _21
REMARK    3  A    between atoms: _22  and  _66
REMARK    4  A    between atoms: _27  and  _30
REMARK    5  A    between atoms: _32  and  _33
REMARK    6  A    between atoms: _38  and  _43
REMARK    7  A    between atoms: _43  and  _46
REMARK    8  A    between atoms: _53  and  _55
REMARK                            x       y       z     vdW  Elec       q    Type
REMARK                         _______ _______ _______ _____ _____    ______ ____
ROOT
ATOM     10  C   UNL     1      -8.083  40.055   7.544  0.00  0.00    +0.038 A 
ATOM     11  C   UNL     1      -8.245  38.806   6.891  0.00  0.00    +0.047 A 
ATOM     12  C   UNL     1      -7.216  37.781   6.963  0.00  0.00    +0.035 A 
ATOM     32  C   UNL     1      -6.035  38.059   7.711  0.00  0.00    +0.024 A 
ATOM     33  C   UNL     1      -5.854  39.324   8.380  0.00  0.00    +0.007 A 
ATOM     34  C   UNL     1      -6.864  40.340   8.310  0.00  0.00    -0.029 A 
ATOM     35  C   UNL     1      -6.613  41.679   9.042  0.00  0.00    +0.045 C 
ENDROOT
BRANCH  10   9
ATOM      4  C   UNL     1     -10.140  43.849   5.443  0.00  0.00    +0.077 A 
ATOM      5  C   UNL     1      -9.079  43.968   4.484  0.00  0.00    +0.048 A 
ATOM      6  C   UNL     1      -8.020  43.037   4.570  0.00  0.00    +0.116 A 
ATOM      7  N   UNL     1      -8.030  42.064   5.547  0.00  0.00    -0.223 NA
ATOM      8  C   UNL     1      -9.068  41.979   6.457  0.00  0.00    +0.220 A 
ATOM      9  N   UNL     1      -9.103  41.004   7.442  0.00  0.00    -0.283 N 
ATOM     36  H   UNL     1      -9.882  40.979   8.099  0.00  0.00    +0.155 HD
ATOM     37  N   UNL     1     -10.091  42.857   6.396  0.00  0.00    -0.214 NA
BRANCH   4   3
ATOM      1  C   UNL     1     -12.902  46.337   6.660  0.00  0.00    +0.020 A 
ATOM      2  C   UNL     1     -11.744  45.473   6.679  0.00  0.00    +0.013 A 
ATOM      3  C   UNL     1     -11.331  44.756   5.479  0.00  0.00    +0.019 A 
ATOM     38  C   UNL     1     -12.117  44.936   4.268  0.00  0.00    +0.120 A 
ATOM     39  N   UNL     1     -13.228  45.773   4.281  0.00  0.00    -0.263 NA
ATOM     40  C   UNL     1     -13.636  46.468   5.429  0.00  0.00    +0.111 A 
ENDBRANCH   4   3
ENDBRANCH  10   9
BRANCH  12  13
ATOM     13  N   UNL     1      -7.322  36.497   6.314  0.00  0.00    -0.281 N 
ATOM     14  C   UNL     1      -7.930  35.348   6.793  0.00  0.00    +0.248 C 
ATOM     30  O   UNL     1      -8.293  35.189   7.949  0.00  0.00    -0.270 OA
ATOM     31  H   UNL     1      -6.896  36.427   5.390  0.00  0.00    +0.155 HD
BRANCH  14  15
ATOM     15  C   UNL     1      -8.156  34.207   5.855  0.00  0.00    +0.037 A 
ATOM     16  C   UNL     1      -7.699  34.264   4.464  0.00  0.00    +0.013 A 
ATOM     17  C   UNL     1      -7.945  33.155   3.576  0.00  0.00    +0.005 A 
ATOM     18  C   UNL     1      -8.650  31.979   4.078  0.00  0.00    -0.033 A 
ATOM     28  C   UNL     1      -9.088  31.946   5.463  0.00  0.00    +0.005 A 
ATOM     29  C   UNL     1      -8.850  33.031   6.336  0.00  0.00    +0.013 A 
BRANCH  18  19
ATOM     19  C   UNL     1      -8.974  30.758   3.195  0.00  0.00    +0.119 C 
BRANCH  19  20
ATOM     20  N   UNL     1      -9.214  31.009   1.743  0.00  0.00    -0.302 NA
ATOM     21  C   UNL     1     -10.558  31.701   1.493  0.00  0.00    +0.066 C 
ATOM     22  C   UNL     1     -10.782  31.976  -0.029  0.00  0.00    -0.064 C 
ATOM     23  N   UNL     1     -10.700  30.658  -0.800  0.00  0.00    +0.379 N 
ATOM     24  C   UNL     1     -10.969  30.905  -2.225  0.00  0.00    -0.096 C 
ATOM     25  H   UNL     1     -11.506  29.991  -0.415  0.00  0.00    -0.082 HD
ATOM     26  C   UNL     1      -9.369  29.962  -0.556  0.00  0.00    -0.064 C 
ATOM     27  C   UNL     1      -9.142  29.720   0.962  0.00  0.00    +0.066 C 
ENDBRANCH  19  20
ENDBRANCH  18  19
ENDBRANCH  14  15
ENDBRANCH  12  13
TORSDOF 6
ENDMDL
