MODEL 1
REMARK VINA RESULT:     -10.2      0.000      0.000
REMARK  Name = C:\Users\Docking\Desktop\test protocol\1iep_ligandH.pdb
REMARK  8 active torsions:
REMARK  status: ('A' for Active; 'I' for Inactive)
REMARK    1  A    between atoms: _5  and  _11
REMARK    2  A    between atoms: _19  and  _21
REMARK    3  A    between atoms: _22  and  _66
REMARK    4  A    between atoms: _27  and  _30
REMARK    5  A    between atoms: _32  and  _33
REMARK    6  A    between atoms: _38  and  _43
REMARK    7  A    between atoms: _43  and  _46
REMARK    8  A    between atoms: _53  and  _55
REMARK                            x       y       z     vdW  Elec       q    Type
REMARK                         _______ _______ _______ _____ _____    ______ ____
ROOT
ATOM     10  C   UNL     1     -53.192  35.467 -47.587  0.00  0.00    +0.038 A 
ATOM     11  C   UNL     1     -54.009  36.518 -48.076  0.00  0.00    +0.047 A 
ATOM     12  C   UNL     1     -53.466  37.554 -48.940  0.00  0.00    +0.035 A 
ATOM     32  C   UNL     1     -52.086  37.488 -49.289  0.00  0.00    +0.024 A 
ATOM     33  C   UNL     1     -51.240  36.427 -48.801  0.00  0.00    +0.007 A 
ATOM     34  C   UNL     1     -51.770  35.404 -47.946  0.00  0.00    -0.029 A 
ATOM     35  C   UNL     1     -50.815  34.294 -47.446  0.00  0.00    +0.045 C 
ENDROOT
BRANCH  10   9
ATOM      4  C   UNL     1     -56.079  31.705 -46.849  0.00  0.00    +0.077 A 
ATOM      5  C   UNL     1     -56.500  31.684 -48.220  0.00  0.00    +0.048 A 
ATOM      6  C   UNL     1     -55.956  32.663 -49.081  0.00  0.00    +0.116 A 
ATOM      7  N   UNL     1     -55.057  33.588 -48.596  0.00  0.00    -0.223 NA
ATOM      8  C   UNL     1     -54.674  33.582 -47.268  0.00  0.00    +0.220 A 
ATOM      9  N   UNL     1     -53.766  34.499 -46.761  0.00  0.00    -0.283 N 
ATOM     36  H   UNL     1     -53.514  34.465 -45.773  0.00  0.00    +0.155 HD
ATOM     37  N   UNL     1     -55.180  32.658 -46.425  0.00  0.00    -0.214 NA
BRANCH   4   3
ATOM      1  C   UNL     1     -58.332  29.801 -44.280  0.00  0.00    +0.020 A 
ATOM      2  C   UNL     1     -57.915  30.762 -45.275  0.00  0.00    +0.013 A 
ATOM      3  C   UNL     1     -56.563  30.733 -45.817  0.00  0.00    +0.019 A 
ATOM     38  C   UNL     1     -55.650  29.711 -45.329  0.00  0.00    +0.120 A 
ATOM     39  N   UNL     1     -56.079  28.799 -44.370  0.00  0.00    -0.263 NA
ATOM     40  C   UNL     1     -57.378  28.818 -43.839  0.00  0.00    +0.111 A 
ENDBRANCH   4   3
ENDBRANCH  10   9
BRANCH  12  13
ATOM     13  N   UNL     1     -54.246  38.650 -49.460  0.00  0.00    -0.281 N 
ATOM     14  C   UNL     1     -54.143  39.995 -49.143  0.00  0.00    +0.248 C 
ATOM     30  O   UNL     1     -53.503  40.435 -48.199  0.00  0.00    -0.270 OA
ATOM     31  H   UNL     1     -54.960  38.405 -50.146  0.00  0.00    +0.155 HD
BRANCH  14  15
ATOM     15  C   UNL     1     -54.866  40.993 -49.988  0.00  0.00    +0.037 A 
ATOM     16  C   UNL     1     -56.265  40.791 -50.373  0.00  0.00    +0.013 A 
ATOM     17  C   UNL     1     -56.934  41.762 -51.203  0.00  0.00    +0.005 A 
ATOM     18  C   UNL     1     -56.203  42.945 -51.651  0.00  0.00    -0.033 A 
ATOM     28  C   UNL     1     -54.818  43.124 -51.249  0.00  0.00    +0.005 A 
ATOM     29  C   UNL     1     -54.159  42.174 -50.437  0.00  0.00    +0.013 A 
BRANCH  18  19
ATOM     19  C   UNL     1     -56.831  44.022 -52.556  0.00  0.00    +0.119 C 
BRANCH  19  20
ATOM     20  N   UNL     1     -56.992  45.391 -51.980  0.00  0.00    -0.302 NA
ATOM     21  C   UNL     1     -58.381  45.972 -52.259  0.00  0.00    +0.066 C 
ATOM     22  C   UNL     1     -58.539  47.395 -51.630  0.00  0.00    -0.064 C 
ATOM     23  N   UNL     1     -57.447  48.315 -52.176  0.00  0.00    +0.379 N 
ATOM     24  C   UNL     1     -57.628  49.669 -51.631  0.00  0.00    -0.096 C 
ATOM     25  H   UNL     1     -57.577  48.376 -53.282  0.00  0.00    -0.082 HD
ATOM     26  C   UNL     1     -56.062  47.743 -51.905  0.00  0.00    -0.064 C 
ATOM     27  C   UNL     1     -55.925  46.318 -52.509  0.00  0.00    +0.066 C 
ENDBRANCH  19  20
ENDBRANCH  18  19
ENDBRANCH  14  15
ENDBRANCH  12  13
TORSDOF 6
ENDMDL
MODEL 2
REMARK VINA RESULT:      -9.6      4.499     13.229
REMARK  Name = C:\Users\Docking\Desktop\test protocol\1iep_ligandH.pdb
REMARK  8 active torsions:
REMARK  status: ('A' for Active; 'I' for Inactive)
REMARK    1  A    between atoms: _5  and  _11
REMARK    2  A    between atoms: _19  and  _21
REMARK    3  A    between atoms: _22  and  _66
REMARK    4  A    between atoms: _27  and  _30
REMARK    5  A    between atoms: _32  and  _33
REMARK    6  A    between atoms: _38  and  _43
REMARK    7  A    between atoms: _43  and  _46
REMARK    8  A    between atoms: _53  and  _55
REMARK                            x       y       z     vdW  Elec       q    Type
REMARK                         _______ _______ _______ _____ _____    ______ ____
ROOT
ATOM     10  C   UNL     1     -53.775  39.856 -51.590  0.00  0.00    +0.038 A 
ATOM     11  C   UNL     1     -53.671  38.538 -51.077  0.00  0.00    +0.047 A 
ATOM     12  C   UNL     1     -54.635  38.027 -50.115  0.00  0.00    +0.035 A 
ATOM     32  C   UNL     1     -55.694  38.886 -49.699  0.00  0.00    +0.024 A 
ATOM     33  C   UNL     1     -55.814  40.229 -50.210  0.00  0.00    +0.007 A 
ATOM     34  C   UNL     1     -54.864  40.739 -51.157  0.00  0.00    -0.029 A 
ATOM     35  C   UNL     1     -55.038  42.189 -51.666  0.00  0.00    +0.045 C 
ENDROOT
BRANCH  10   9
ATOM      4  C   UNL     1     -51.805  39.854 -55.967  0.00  0.00    +0.077 A 
ATOM      5  C   UNL     1     -52.738  38.877 -56.451  0.00  0.00    +0.048 A 
ATOM      6  C   UNL     1     -53.704  38.395 -55.540  0.00  0.00    +0.116 A 
ATOM      7  N   UNL     1     -53.727  38.863 -54.244  0.00  0.00    -0.223 NA
ATOM      8  C   UNL     1     -52.812  39.804 -53.809  0.00  0.00    +0.220 A 
ATOM      9  N   UNL     1     -52.821  40.294 -52.512  0.00  0.00    -0.283 N 
ATOM     36  H   UNL     1     -52.125  40.982 -52.228  0.00  0.00    +0.155 HD
ATOM     37  N   UNL     1     -51.878  40.279 -54.660  0.00  0.00    -0.214 NA
BRANCH   4   3
ATOM      1  C   UNL     1     -49.035  42.260 -57.321  0.00  0.00    +0.020 A 
ATOM      2  C   UNL     1     -50.070  41.717 -56.473  0.00  0.00    +0.013 A 
ATOM      3  C   UNL     1     -50.727  40.461 -56.811  0.00  0.00    +0.019 A 
ATOM     38  C   UNL     1     -50.309  39.773 -58.023  0.00  0.00    +0.120 A 
ATOM     39  N   UNL     1     -49.310  40.321 -58.822  0.00  0.00    -0.263 NA
ATOM     40  C   UNL     1     -48.672  41.530 -58.507  0.00  0.00    +0.111 A 
ENDBRANCH   4   3
ENDBRANCH  10   9
BRANCH  12  13
ATOM     13  N   UNL     1     -54.577  36.701 -49.553  0.00  0.00    -0.281 N 
ATOM     14  C   UNL     1     -54.322  36.343 -48.239  0.00  0.00    +0.248 C 
ATOM     30  O   UNL     1     -53.893  37.105 -47.386  0.00  0.00    -0.270 OA
ATOM     31  H   UNL     1     -54.743  35.932 -50.202  0.00  0.00    +0.155 HD
BRANCH  14  15
ATOM     15  C   UNL     1     -54.566  34.930 -47.815  0.00  0.00    +0.037 A 
ATOM     16  C   UNL     1     -55.868  34.290 -48.019  0.00  0.00    +0.013 A 
ATOM     17  C   UNL     1     -56.082  32.932 -47.585  0.00  0.00    +0.005 A 
ATOM     18  C   UNL     1     -54.990  32.204 -46.944  0.00  0.00    -0.033 A 
ATOM     28  C   UNL     1     -53.707  32.862 -46.759  0.00  0.00    +0.005 A 
ATOM     29  C   UNL     1     -53.494  34.193 -47.182  0.00  0.00    +0.013 A 
BRANCH  18  19
ATOM     19  C   UNL     1     -55.134  30.760 -46.431  0.00  0.00    +0.119 C 
BRANCH  19  20
ATOM     20  N   UNL     1     -56.061  30.532 -45.282  0.00  0.00    -0.302 NA
ATOM     21  C   UNL     1     -55.869  29.148 -44.654  0.00  0.00    +0.066 C 
ATOM     22  C   UNL     1     -56.830  28.936 -43.440  0.00  0.00    -0.064 C 
ATOM     23  N   UNL     1     -58.277  29.126 -43.899  0.00  0.00    +0.379 N 
ATOM     24  C   UNL     1     -59.186  28.869 -42.772  0.00  0.00    -0.096 C 
ATOM     25  H   UNL     1     -58.486  28.362 -44.683  0.00  0.00    -0.082 HD
ATOM     26  C   UNL     1     -58.476  30.498 -44.526  0.00  0.00    -0.064 C 
ATOM     27  C   UNL     1     -57.496  30.711 -45.714  0.00  0.00    +0.066 C 
ENDBRANCH  19  20
ENDBRANCH  18  19
ENDBRANCH  14  15
ENDBRANCH  12  13
TORSDOF 6
ENDMDL
MODEL 3
REMARK VINA RESULT:      -9.5      1.604      2.373
REMARK  Name = C:\Users\Docking\Desktop\test protocol\1iep_ligandH.pdb
REMARK  8 active torsions:
REMARK  status: ('A' for Active; 'I' for Inactive)
REMARK    1  A    between atoms: _5  and  _11
REMARK    2  A    between atoms: _19  and  _21
REMARK    3  A    between atoms: _22  and  _66
REMARK    4  A    between atoms: _27  and  _30
REMARK    5  A    between atoms: _32  and  _33
REMARK    6  A    between atoms: _38  and  _43
REMARK    7  A    between atoms: _43  and  _46
REMARK    8  A    between atoms: _53  and  _55
REMARK                            x       y       z     vdW  Elec       q    Type
REMARK                         _______ _______ _______ _____ _____    ______ ____
ROOT
ATOM     10  C   UNL     1     -53.168  35.643 -47.687  0.00  0.00    +0.038 A 
ATOM     11  C   UNL     1     -53.997  36.703 -48.134  0.00  0.00    +0.047 A 
ATOM     12  C   UNL     1     -53.476  37.751 -48.998  0.00  0.00    +0.035 A 
ATOM     32  C   UNL     1     -52.108  37.686 -49.390  0.00  0.00    +0.024 A 
ATOM     33  C   UNL     1     -51.251  36.616 -48.944  0.00  0.00    +0.007 A 
ATOM     34  C   UNL     1     -51.758  35.581 -48.089  0.00  0.00    -0.029 A 
ATOM     35  C   UNL     1     -50.792  34.461 -47.636  0.00  0.00    +0.045 C 
ENDROOT
BRANCH  10   9
ATOM      4  C   UNL     1     -55.964  31.813 -46.942  0.00  0.00    +0.077 A 
ATOM      5  C   UNL     1     -56.382  31.778 -48.314  0.00  0.00    +0.048 A 
ATOM      6  C   UNL     1     -55.860  32.767 -49.177  0.00  0.00    +0.116 A 
ATOM      7  N   UNL     1     -54.986  33.716 -48.693  0.00  0.00    -0.223 NA
ATOM      8  C   UNL     1     -54.604  33.723 -47.364  0.00  0.00    +0.220 A 
ATOM      9  N   UNL     1     -53.720  34.663 -46.858  0.00  0.00    -0.283 N 
ATOM     36  H   UNL     1     -53.469  34.639 -45.870  0.00  0.00    +0.155 HD
ATOM     37  N   UNL     1     -55.090  32.790 -46.519  0.00  0.00    -0.214 NA
BRANCH   4   3
ATOM      1  C   UNL     1     -58.150  29.913 -44.313  0.00  0.00    +0.020 A 
ATOM      2  C   UNL     1     -57.753  30.883 -45.307  0.00  0.00    +0.013 A 
ATOM      3  C   UNL     1     -56.426  30.834 -45.908  0.00  0.00    +0.019 A 
ATOM     38  C   UNL     1     -55.518  29.781 -45.479  0.00  0.00    +0.120 A 
ATOM     39  N   UNL     1     -55.927  28.861 -44.518  0.00  0.00    -0.263 NA
ATOM     40  C   UNL     1     -57.201  28.900 -43.931  0.00  0.00    +0.111 A 
ENDBRANCH   4   3
ENDBRANCH  10   9
BRANCH  12  13
ATOM     13  N   UNL     1     -54.268  38.857 -49.477  0.00  0.00    -0.281 N 
ATOM     14  C   UNL     1     -54.157  40.195 -49.135  0.00  0.00    +0.248 C 
ATOM     30  O   UNL     1     -53.496  40.616 -48.197  0.00  0.00    -0.270 OA
ATOM     31  H   UNL     1     -54.998  38.626 -50.151  0.00  0.00    +0.155 HD
BRANCH  14  15
ATOM     15  C   UNL     1     -54.900  41.211 -49.942  0.00  0.00    +0.037 A 
ATOM     16  C   UNL     1     -56.318  41.036 -50.264  0.00  0.00    +0.013 A 
ATOM     17  C   UNL     1     -57.006  42.023 -51.059  0.00  0.00    +0.005 A 
ATOM     18  C   UNL     1     -56.276  43.195 -51.535  0.00  0.00    -0.033 A 
ATOM     28  C   UNL     1     -54.871  43.346 -51.196  0.00  0.00    +0.005 A 
ATOM     29  C   UNL     1     -54.193  42.380 -50.418  0.00  0.00    +0.013 A 
BRANCH  18  19
ATOM     19  C   UNL     1     -56.924  44.287 -52.406  0.00  0.00    +0.119 C 
BRANCH  19  20
ATOM     20  N   UNL     1     -57.879  43.841 -53.464  0.00  0.00    -0.302 NA
ATOM     21  C   UNL     1     -57.268  43.930 -54.865  0.00  0.00    +0.066 C 
ATOM     22  C   UNL     1     -58.273  43.439 -55.957  0.00  0.00    -0.064 C 
ATOM     23  N   UNL     1     -59.558  44.265 -55.873  0.00  0.00    +0.379 N 
ATOM     24  C   UNL     1     -60.482  43.844 -56.936  0.00  0.00    -0.096 C 
ATOM     25  H   UNL     1     -59.287  45.330 -56.061  0.00  0.00    -0.082 HD
ATOM     26  C   UNL     1     -60.171  44.184 -54.482  0.00  0.00    -0.064 C 
ATOM     27  C   UNL     1     -59.154  44.647 -53.401  0.00  0.00    +0.066 C 
ENDBRANCH  19  20
ENDBRANCH  18  19
ENDBRANCH  14  15
ENDBRANCH  12  13
TORSDOF 6
ENDMDL
MODEL 4
REMARK VINA RESULT:      -9.1      5.677     13.345
REMARK  Name = C:\Users\Docking\Desktop\test protocol\1iep_ligandH.pdb
REMARK  8 active torsions:
REMARK  status: ('A' for Active; 'I' for Inactive)
REMARK    1  A    between atoms: _5  and  _11
REMARK    2  A    between atoms: _19  and  _21
REMARK    3  A    between atoms: _22  and  _66
REMARK    4  A    between atoms: _27  and  _30
REMARK    5  A    between atoms: _32  and  _33
REMARK    6  A    between atoms: _38  and  _43
REMARK    7  A    between atoms: _43  and  _46
REMARK    8  A    between atoms: _53  and  _55
REMARK                            x       y       z     vdW  Elec       q    Type
REMARK                         _______ _______ _______ _____ _____    ______ ____
ROOT
ATOM     10  C   UNL     1     -56.966  35.979 -50.375  0.00  0.00    +0.038 A 
ATOM     11  C   UNL     1     -57.177  35.135 -49.254  0.00  0.00    +0.047 A 
ATOM     12  C   UNL     1     -56.130  34.248 -48.773  0.00  0.00    +0.035 A 
ATOM     32  C   UNL     1     -54.879  34.247 -49.456  0.00  0.00    +0.024 A 
ATOM     33  C   UNL     1     -54.648  35.097 -50.597  0.00  0.00    +0.007 A 
ATOM     34  C   UNL     1     -55.678  35.973 -51.078  0.00  0.00    -0.029 A 
ATOM     35  C   UNL     1     -55.377  36.857 -52.310  0.00  0.00    +0.045 C 
ENDROOT
BRANCH  10   9
ATOM      4  C   UNL     1     -60.790  36.920 -53.119  0.00  0.00    +0.077 A 
ATOM      5  C   UNL     1     -60.690  35.658 -53.794  0.00  0.00    +0.048 A 
ATOM      6  C   UNL     1     -59.637  34.799 -53.410  0.00  0.00    +0.116 A 
ATOM      7  N   UNL     1     -58.755  35.183 -52.424  0.00  0.00    -0.223 NA
ATOM      8  C   UNL     1     -58.878  36.408 -51.794  0.00  0.00    +0.220 A 
ATOM      9  N   UNL     1     -58.007  36.811 -50.794  0.00  0.00    -0.283 N 
ATOM     36  H   UNL     1     -58.127  37.726 -50.359  0.00  0.00    +0.155 HD
ATOM     37  N   UNL     1     -59.875  37.247 -52.144  0.00  0.00    -0.214 NA
BRANCH   4   3
ATOM      1  C   UNL     1     -63.300  39.265 -54.991  0.00  0.00    +0.020 A 
ATOM      2  C   UNL     1     -62.270  38.277 -54.764  0.00  0.00    +0.013 A 
ATOM      3  C   UNL     1     -61.851  37.936 -53.411  0.00  0.00    +0.019 A 
ATOM     38  C   UNL     1     -62.499  38.616 -52.300  0.00  0.00    +0.120 A 
ATOM     39  N   UNL     1     -63.487  39.564 -52.550  0.00  0.00    -0.263 NA
ATOM     40  C   UNL     1     -63.897  39.902 -53.848  0.00  0.00    +0.111 A 
ENDBRANCH   4   3
ENDBRANCH  10   9
BRANCH  12  13
ATOM     13  N   UNL     1     -56.288  33.363 -47.646  0.00  0.00    -0.281 N 
ATOM     14  C   UNL     1     -56.407  31.983 -47.656  0.00  0.00    +0.248 C 
ATOM     30  O   UNL     1     -56.609  31.314 -48.659  0.00  0.00    -0.270 OA
ATOM     31  H   UNL     1     -56.317  33.808 -46.728  0.00  0.00    +0.155 HD
BRANCH  14  15
ATOM     15  C   UNL     1     -56.299  31.239 -46.364  0.00  0.00    +0.037 A 
ATOM     16  C   UNL     1     -55.054  30.573 -45.972  0.00  0.00    +0.013 A 
ATOM     17  C   UNL     1     -54.982  29.848 -44.728  0.00  0.00    +0.005 A 
ATOM     18  C   UNL     1     -56.160  29.787 -43.866  0.00  0.00    -0.033 A 
ATOM     28  C   UNL     1     -57.380  30.461 -44.277  0.00  0.00    +0.005 A 
ATOM     29  C   UNL     1     -57.455  31.172 -45.496  0.00  0.00    +0.013 A 
BRANCH  18  19
ATOM     19  C   UNL     1     -56.180  29.018 -42.531  0.00  0.00    +0.119 C 
BRANCH  19  20
ATOM     20  N   UNL     1     -54.905  28.959 -41.757  0.00  0.00    -0.302 NA
ATOM     21  C   UNL     1     -55.142  28.618 -40.283  0.00  0.00    +0.066 C 
ATOM     22  C   UNL     1     -53.796  28.538 -39.493  0.00  0.00    -0.064 C 
ATOM     23  N   UNL     1     -53.049  29.866 -39.628  0.00  0.00    +0.379 N 
ATOM     24  C   UNL     1     -51.810  29.814 -38.838  0.00  0.00    -0.096 C 
ATOM     25  H   UNL     1     -53.696  30.663 -39.191  0.00  0.00    -0.082 HD
ATOM     26  C   UNL     1     -52.811  30.215 -41.090  0.00  0.00    -0.064 C 
ATOM     27  C   UNL     1     -54.153  30.262 -41.873  0.00  0.00    +0.066 C 
ENDBRANCH  19  20
ENDBRANCH  18  19
ENDBRANCH  14  15
ENDBRANCH  12  13
TORSDOF 6
ENDMDL
MODEL 5
REMARK VINA RESULT:      -9.1      4.609     13.545
REMARK  Name = C:\Users\Docking\Desktop\test protocol\1iep_ligandH.pdb
REMARK  8 active torsions:
REMARK  status: ('A' for Active; 'I' for Inactive)
REMARK    1  A    between atoms: _5  and  _11
REMARK    2  A    between atoms: _19  and  _21
REMARK    3  A    between atoms: _22  and  _66
REMARK    4  A    between atoms: _27  and  _30
REMARK    5  A    between atoms: _32  and  _33
REMARK    6  A    between atoms: _38  and  _43
REMARK    7  A    between atoms: _43  and  _46
REMARK    8  A    between atoms: _53  and  _55
REMARK                            x       y       z     vdW  Elec       q    Type
REMARK                         _______ _______ _______ _____ _____    ______ ____
ROOT
ATOM     10  C   UNL     1     -54.834  38.660 -51.745  0.00  0.00    +0.038 A 
ATOM     11  C   UNL     1     -54.634  37.395 -51.134  0.00  0.00    +0.047 A 
ATOM     12  C   UNL     1     -55.677  36.773 -50.334  0.00  0.00    +0.035 A 
ATOM     32  C   UNL     1     -56.913  37.465 -50.179  0.00  0.00    +0.024 A 
ATOM     33  C   UNL     1     -57.133  38.752 -50.792  0.00  0.00    +0.007 A 
ATOM     34  C   UNL     1     -56.107  39.372 -51.580  0.00  0.00    -0.029 A 
ATOM     35  C   UNL     1     -56.395  40.755 -52.208  0.00  0.00    +0.045 C 
ENDROOT
BRANCH  10   9
ATOM      4  C   UNL     1     -52.526  39.340 -55.898  0.00  0.00    +0.077 A 
ATOM      5  C   UNL     1     -53.447  38.506 -56.614  0.00  0.00    +0.048 A 
ATOM      6  C   UNL     1     -54.497  37.914 -55.876  0.00  0.00    +0.116 A 
ATOM      7  N   UNL     1     -54.607  38.147 -54.522  0.00  0.00    -0.223 NA
ATOM      8  C   UNL     1     -53.701  38.956 -53.861  0.00  0.00    +0.220 A 
ATOM      9  N   UNL     1     -53.798  39.211 -52.502  0.00  0.00    -0.283 N 
ATOM     36  H   UNL     1     -53.105  39.807 -52.050  0.00  0.00    +0.155 HD
ATOM     37  N   UNL     1     -52.689  39.532 -54.544  0.00  0.00    -0.214 NA
BRANCH   4   3
ATOM      1  C   UNL     1     -49.471  40.161 -58.198  0.00  0.00    +0.020 A 
ATOM      2  C   UNL     1     -50.580  39.444 -57.612  0.00  0.00    +0.013 A 
ATOM      3  C   UNL     1     -51.367  40.038 -56.539  0.00  0.00    +0.019 A 
ATOM     38  C   UNL     1     -51.004  41.370 -56.079  0.00  0.00    +0.120 A 
ATOM     39  N   UNL     1     -49.929  42.035 -56.661  0.00  0.00    -0.263 NA
ATOM     40  C   UNL     1     -49.163  41.473 -57.693  0.00  0.00    +0.111 A 
ENDBRANCH   4   3
ENDBRANCH  10   9
BRANCH  12  13
ATOM     13  N   UNL     1     -55.529  35.494 -49.684  0.00  0.00    -0.281 N 
ATOM     14  C   UNL     1     -54.702  35.171 -48.621  0.00  0.00    +0.248 C 
ATOM     30  O   UNL     1     -53.802  35.884 -48.203  0.00  0.00    -0.270 OA
ATOM     31  H   UNL     1     -56.104  34.736 -50.051  0.00  0.00    +0.155 HD
BRANCH  14  15
ATOM     15  C   UNL     1     -54.893  33.859 -47.930  0.00  0.00    +0.037 A 
ATOM     16  C   UNL     1     -56.120  33.078 -48.109  0.00  0.00    +0.013 A 
ATOM     17  C   UNL     1     -56.286  31.824 -47.418  0.00  0.00    +0.005 A 
ATOM     18  C   UNL     1     -55.221  31.342 -46.542  0.00  0.00    -0.033 A 
ATOM     28  C   UNL     1     -54.012  32.134 -46.387  0.00  0.00    +0.005 A 
ATOM     29  C   UNL     1     -53.846  33.365 -47.062  0.00  0.00    +0.013 A 
BRANCH  18  19
ATOM     19  C   UNL     1     -55.321  30.025 -45.749  0.00  0.00    +0.119 C 
BRANCH  19  20
ATOM     20  N   UNL     1     -54.514  29.918 -44.497  0.00  0.00    -0.302 NA
ATOM     21  C   UNL     1     -53.866  28.539 -44.348  0.00  0.00    +0.066 C 
ATOM     22  C   UNL     1     -53.008  28.452 -43.044  0.00  0.00    -0.064 C 
ATOM     23  N   UNL     1     -53.888  28.770 -41.834  0.00  0.00    +0.379 N 
ATOM     24  C   UNL     1     -53.098  28.632 -40.602  0.00  0.00    -0.096 C 
ATOM     25  H   UNL     1     -54.703  28.011 -41.801  0.00  0.00    -0.082 HD
ATOM     26  C   UNL     1     -54.539  30.139 -41.976  0.00  0.00    -0.064 C 
ATOM     27  C   UNL     1     -55.365  30.225 -43.290  0.00  0.00    +0.066 C 
ENDBRANCH  19  20
ENDBRANCH  18  19
ENDBRANCH  14  15
ENDBRANCH  12  13
TORSDOF 6
ENDMDL
