MODEL 1
REMARK VINA RESULT:     -10.9      0.000      0.000
REMARK  Name = C:\Users\Docking\Desktop\test protocol\1iep_ligandH.pdb
REMARK  8 active torsions:
REMARK  status: ('A' for Active; 'I' for Inactive)
REMARK    1  A    between atoms: _5  and  _11
REMARK    2  A    between atoms: _19  and  _21
REMARK    3  A    between atoms: _22  and  _66
REMARK    4  A    between atoms: _27  and  _30
REMARK    5  A    between atoms: _32  and  _33
REMARK    6  A    between atoms: _38  and  _43
REMARK    7  A    between atoms: _43  and  _46
REMARK    8  A    between atoms: _53  and  _55
REMARK                            x       y       z     vdW  Elec       q    Type
REMARK                         _______ _______ _______ _____ _____    ______ ____
ROOT
ATOM     10  C   UNL     1      58.644  14.932  50.046  0.00  0.00    +0.038 A 
ATOM     11  C   UNL     1      58.522  14.406  51.358  0.00  0.00    +0.047 A 
ATOM     12  C   UNL     1      57.809  13.163  51.608  0.00  0.00    +0.035 A 
ATOM     32  C   UNL     1      57.234  12.479  50.497  0.00  0.00    +0.024 A 
ATOM     33  C   UNL     1      57.348  12.999  49.157  0.00  0.00    +0.007 A 
ATOM     34  C   UNL     1      58.048  14.226  48.905  0.00  0.00    -0.029 A 
ATOM     35  C   UNL     1      58.133  14.740  47.449  0.00  0.00    +0.045 C 
ENDROOT
BRANCH  10   9
ATOM      4  C   UNL     1      62.700  17.413  49.391  0.00  0.00    +0.077 A 
ATOM      5  C   UNL     1      63.504  16.226  49.443  0.00  0.00    +0.048 A 
ATOM      6  C   UNL     1      62.836  14.998  49.647  0.00  0.00    +0.116 A 
ATOM      7  N   UNL     1      61.465  14.970  49.787  0.00  0.00    -0.223 NA
ATOM      8  C   UNL     1      60.720  16.134  49.734  0.00  0.00    +0.220 A 
ATOM      9  N   UNL     1      59.340  16.129  49.864  0.00  0.00    -0.283 N 
ATOM     36  H   UNL     1      58.827  17.009  49.827  0.00  0.00    +0.155 HD
ATOM     37  N   UNL     1      61.335  17.319  49.541  0.00  0.00    -0.214 NA
BRANCH   4   3
ATOM      1  C   UNL     1      63.259  21.053  48.074  0.00  0.00    +0.020 A 
ATOM      2  C   UNL     1      62.681  19.740  48.242  0.00  0.00    +0.013 A 
ATOM      3  C   UNL     1      63.259  18.785  49.179  0.00  0.00    +0.019 A 
ATOM     38  C   UNL     1      64.432  19.194  49.937  0.00  0.00    +0.120 A 
ATOM     39  N   UNL     1      64.968  20.465  49.754  0.00  0.00    -0.263 NA
ATOM     40  C   UNL     1      64.421  21.391  48.854  0.00  0.00    +0.111 A 
ENDBRANCH   4   3
ENDBRANCH  10   9
BRANCH  12  13
ATOM     13  N   UNL     1      57.646  12.586  52.919  0.00  0.00    -0.281 N 
ATOM     14  C   UNL     1      57.230  13.215  54.081  0.00  0.00    +0.248 C 
ATOM     30  O   UNL     1      57.139  14.426  54.216  0.00  0.00    -0.270 OA
ATOM     31  H   UNL     1      57.864  11.593  53.000  0.00  0.00    +0.155 HD
BRANCH  14  15
ATOM     15  C   UNL     1      56.878  12.379  55.268  0.00  0.00    +0.037 A 
ATOM     16  C   UNL     1      56.088  11.153  55.127  0.00  0.00    +0.013 A 
ATOM     17  C   UNL     1      55.748  10.373  56.291  0.00  0.00    +0.005 A 
ATOM     18  C   UNL     1      56.199  10.818  57.608  0.00  0.00    -0.033 A 
ATOM     28  C   UNL     1      56.986  12.035  57.718  0.00  0.00    +0.005 A 
ATOM     29  C   UNL     1      57.320  12.802  56.580  0.00  0.00    +0.013 A 
BRANCH  18  19
ATOM     19  C   UNL     1      55.865  10.060  58.906  0.00  0.00    +0.119 C 
BRANCH  19  20
ATOM     20  N   UNL     1      56.750   8.916  59.277  0.00  0.00    -0.302 NA
ATOM     21  C   UNL     1      58.222   9.206  58.974  0.00  0.00    +0.066 C 
ATOM     22  C   UNL     1      59.136   8.007  59.389  0.00  0.00    -0.064 C 
ATOM     23  N   UNL     1      58.673   6.742  58.665  0.00  0.00    +0.379 N 
ATOM     24  C   UNL     1      59.565   5.626  59.008  0.00  0.00    -0.096 C 
ATOM     25  H   UNL     1      58.767   6.926  57.569  0.00  0.00    -0.082 HD
ATOM     26  C   UNL     1      57.208   6.448  58.960  0.00  0.00    -0.064 C 
ATOM     27  C   UNL     1      56.312   7.657  58.571  0.00  0.00    +0.066 C 
ENDBRANCH  19  20
ENDBRANCH  18  19
ENDBRANCH  14  15
ENDBRANCH  12  13
TORSDOF 6
ENDMDL
MODEL 2
REMARK VINA RESULT:     -10.3      2.780      3.544
REMARK  Name = C:\Users\Docking\Desktop\test protocol\1iep_ligandH.pdb
REMARK  8 active torsions:
REMARK  status: ('A' for Active; 'I' for Inactive)
REMARK    1  A    between atoms: _5  and  _11
REMARK    2  A    between atoms: _19  and  _21
REMARK    3  A    between atoms: _22  and  _66
REMARK    4  A    between atoms: _27  and  _30
REMARK    5  A    between atoms: _32  and  _33
REMARK    6  A    between atoms: _38  and  _43
REMARK    7  A    between atoms: _43  and  _46
REMARK    8  A    between atoms: _53  and  _55
REMARK                            x       y       z     vdW  Elec       q    Type
REMARK                         _______ _______ _______ _____ _____    ______ ____
ROOT
ATOM     10  C   UNL     1      58.951  15.432  49.352  0.00  0.00    +0.038 A 
ATOM     11  C   UNL     1      58.402  14.948  50.567  0.00  0.00    +0.047 A 
ATOM     12  C   UNL     1      57.523  13.789  50.587  0.00  0.00    +0.035 A 
ATOM     32  C   UNL     1      57.228  13.144  49.351  0.00  0.00    +0.024 A 
ATOM     33  C   UNL     1      57.777  13.623  48.106  0.00  0.00    +0.007 A 
ATOM     34  C   UNL     1      58.642  14.768  48.080  0.00  0.00    -0.029 A 
ATOM     35  C   UNL     1      59.196  15.241  46.716  0.00  0.00    +0.045 C 
ENDROOT
BRANCH  10   9
ATOM      4  C   UNL     1      63.288  17.461  49.680  0.00  0.00    +0.077 A 
ATOM      5  C   UNL     1      63.939  16.189  49.811  0.00  0.00    +0.048 A 
ATOM      6  C   UNL     1      63.120  15.037  49.796  0.00  0.00    +0.116 A 
ATOM      7  N   UNL     1      61.755  15.160  49.660  0.00  0.00    -0.223 NA
ATOM      8  C   UNL     1      61.159  16.402  49.537  0.00  0.00    +0.220 A 
ATOM      9  N   UNL     1      59.788  16.549  49.391  0.00  0.00    -0.283 N 
ATOM     36  H   UNL     1      59.387  17.483  49.311  0.00  0.00    +0.155 HD
ATOM     37  N   UNL     1      61.919  17.517  49.550  0.00  0.00    -0.214 NA
BRANCH   4   3
ATOM      1  C   UNL     1      65.864  20.302  50.448  0.00  0.00    +0.020 A 
ATOM      2  C   UNL     1      65.197  19.022  50.491  0.00  0.00    +0.013 A 
ATOM      3  C   UNL     1      64.017  18.768  49.674  0.00  0.00    +0.019 A 
ATOM     38  C   UNL     1      63.535  19.840  48.816  0.00  0.00    +0.120 A 
ATOM     39  N   UNL     1      64.197  21.064  48.796  0.00  0.00    -0.263 NA
ATOM     40  C   UNL     1      65.333  21.320  49.580  0.00  0.00    +0.111 A 
ENDBRANCH   4   3
ENDBRANCH  10   9
BRANCH  12  13
ATOM     13  N   UNL     1      56.929  13.258  51.789  0.00  0.00    -0.281 N 
ATOM     14  C   UNL     1      57.574  12.755  52.907  0.00  0.00    +0.248 C 
ATOM     30  O   UNL     1      58.766  12.489  52.956  0.00  0.00    -0.270 OA
ATOM     31  H   UNL     1      55.910  13.251  51.818  0.00  0.00    +0.155 HD
BRANCH  14  15
ATOM     15  C   UNL     1      56.778  12.499  54.145  0.00  0.00    +0.037 A 
ATOM     16  C   UNL     1      56.076  11.229  54.348  0.00  0.00    +0.013 A 
ATOM     17  C   UNL     1      55.301  11.014  55.544  0.00  0.00    +0.005 A 
ATOM     18  C   UNL     1      55.225  12.072  56.548  0.00  0.00    -0.033 A 
ATOM     28  C   UNL     1      55.935  13.320  56.324  0.00  0.00    +0.005 A 
ATOM     29  C   UNL     1      56.695  13.535  55.152  0.00  0.00    +0.013 A 
BRANCH  18  19
ATOM     19  C   UNL     1      54.404  11.938  57.844  0.00  0.00    +0.119 C 
BRANCH  19  20
ATOM     20  N   UNL     1      53.292  10.941  57.849  0.00  0.00    -0.302 NA
ATOM     21  C   UNL     1      52.003  11.514  57.253  0.00  0.00    +0.066 C 
ATOM     22  C   UNL     1      50.857  10.451  57.245  0.00  0.00    -0.064 C 
ATOM     23  N   UNL     1      50.618   9.953  58.671  0.00  0.00    +0.379 N 
ATOM     24  C   UNL     1      49.502   8.996  58.676  0.00  0.00    -0.096 C 
ATOM     25  H   UNL     1      50.315  10.829  59.289  0.00  0.00    -0.082 HD
ATOM     26  C   UNL     1      51.895   9.383  59.273  0.00  0.00    -0.064 C 
ATOM     27  C   UNL     1      53.036  10.438  59.249  0.00  0.00    +0.066 C 
ENDBRANCH  19  20
ENDBRANCH  18  19
ENDBRANCH  14  15
ENDBRANCH  12  13
TORSDOF 6
ENDMDL
MODEL 3
REMARK VINA RESULT:     -10.2      2.418      2.947
REMARK  Name = C:\Users\Docking\Desktop\test protocol\1iep_ligandH.pdb
REMARK  8 active torsions:
REMARK  status: ('A' for Active; 'I' for Inactive)
REMARK    1  A    between atoms: _5  and  _11
REMARK    2  A    between atoms: _19  and  _21
REMARK    3  A    between atoms: _22  and  _66
REMARK    4  A    between atoms: _27  and  _30
REMARK    5  A    between atoms: _32  and  _33
REMARK    6  A    between atoms: _38  and  _43
REMARK    7  A    between atoms: _43  and  _46
REMARK    8  A    between atoms: _53  and  _55
REMARK                            x       y       z     vdW  Elec       q    Type
REMARK                         _______ _______ _______ _____ _____    ______ ____
ROOT
ATOM     10  C   UNL     1      58.809  15.296  49.389  0.00  0.00    +0.038 A 
ATOM     11  C   UNL     1      58.290  14.829  50.624  0.00  0.00    +0.047 A 
ATOM     12  C   UNL     1      57.438  13.652  50.685  0.00  0.00    +0.035 A 
ATOM     32  C   UNL     1      57.137  12.973  49.468  0.00  0.00    +0.024 A 
ATOM     33  C   UNL     1      57.655  13.434  48.205  0.00  0.00    +0.007 A 
ATOM     34  C   UNL     1      58.494  14.596  48.138  0.00  0.00    -0.029 A 
ATOM     35  C   UNL     1      59.016  15.049  46.755  0.00  0.00    +0.045 C 
ENDROOT
BRANCH  10   9
ATOM      4  C   UNL     1      63.105  17.426  49.605  0.00  0.00    +0.077 A 
ATOM      5  C   UNL     1      63.785  16.172  49.758  0.00  0.00    +0.048 A 
ATOM      6  C   UNL     1      62.992  15.002  49.784  0.00  0.00    +0.116 A 
ATOM      7  N   UNL     1      61.622  15.093  49.664  0.00  0.00    -0.223 NA
ATOM      8  C   UNL     1      60.998  16.318  49.519  0.00  0.00    +0.220 A 
ATOM      9  N   UNL     1      59.623  16.432  49.389  0.00  0.00    -0.283 N 
ATOM     36  H   UNL     1      59.200  17.355  49.291  0.00  0.00    +0.155 HD
ATOM     37  N   UNL     1      61.733  17.449  49.493  0.00  0.00    -0.214 NA
BRANCH   4   3
ATOM      1  C   UNL     1      64.078  21.103  48.694  0.00  0.00    +0.020 A 
ATOM      2  C   UNL     1      63.366  19.846  48.704  0.00  0.00    +0.013 A 
ATOM      3  C   UNL     1      63.805  18.748  49.556  0.00  0.00    +0.019 A 
ATOM     38  C   UNL     1      64.976  18.957  50.394  0.00  0.00    +0.120 A 
ATOM     39  N   UNL     1      65.642  20.179  50.363  0.00  0.00    -0.263 NA
ATOM     40  C   UNL     1      65.230  21.242  49.546  0.00  0.00    +0.111 A 
ENDBRANCH   4   3
ENDBRANCH  10   9
BRANCH  12  13
ATOM     13  N   UNL     1      56.876  13.136  51.908  0.00  0.00    -0.281 N 
ATOM     14  C   UNL     1      57.549  12.674  53.027  0.00  0.00    +0.248 C 
ATOM     30  O   UNL     1      58.747  12.435  53.062  0.00  0.00    -0.270 OA
ATOM     31  H   UNL     1      55.857  13.108  51.955  0.00  0.00    +0.155 HD
BRANCH  14  15
ATOM     15  C   UNL     1      56.779  12.429  54.284  0.00  0.00    +0.037 A 
ATOM     16  C   UNL     1      56.007  11.199  54.474  0.00  0.00    +0.013 A 
ATOM     17  C   UNL     1      55.258  10.995  55.689  0.00  0.00    +0.005 A 
ATOM     18  C   UNL     1      55.280  12.026  56.725  0.00  0.00    -0.033 A 
ATOM     28  C   UNL     1      56.059  13.235  56.512  0.00  0.00    +0.005 A 
ATOM     29  C   UNL     1      56.792  13.438  55.322  0.00  0.00    +0.013 A 
BRANCH  18  19
ATOM     19  C   UNL     1      54.495  11.902  58.044  0.00  0.00    +0.119 C 
BRANCH  19  20
ATOM     20  N   UNL     1      55.141  12.442  59.278  0.00  0.00    -0.302 NA
ATOM     21  C   UNL     1      56.175  11.472  59.855  0.00  0.00    +0.066 C 
ATOM     22  C   UNL     1      56.858  12.061  61.132  0.00  0.00    -0.064 C 
ATOM     23  N   UNL     1      55.787  12.393  62.172  0.00  0.00    +0.379 N 
ATOM     24  C   UNL     1      56.429  12.893  63.396  0.00  0.00    -0.096 C 
ATOM     25  H   UNL     1      55.261  11.444  62.430  0.00  0.00    -0.082 HD
ATOM     26  C   UNL     1      54.752  13.355  61.606  0.00  0.00    -0.064 C 
ATOM     27  C   UNL     1      54.101  12.772  60.320  0.00  0.00    +0.066 C 
ENDBRANCH  19  20
ENDBRANCH  18  19
ENDBRANCH  14  15
ENDBRANCH  12  13
TORSDOF 6
ENDMDL
MODEL 4
REMARK VINA RESULT:      -8.9      7.562      9.132
REMARK  Name = C:\Users\Docking\Desktop\test protocol\1iep_ligandH.pdb
REMARK  8 active torsions:
REMARK  status: ('A' for Active; 'I' for Inactive)
REMARK    1  A    between atoms: _5  and  _11
REMARK    2  A    between atoms: _19  and  _21
REMARK    3  A    between atoms: _22  and  _66
REMARK    4  A    between atoms: _27  and  _30
REMARK    5  A    between atoms: _32  and  _33
REMARK    6  A    between atoms: _38  and  _43
REMARK    7  A    between atoms: _43  and  _46
REMARK    8  A    between atoms: _53  and  _55
REMARK                            x       y       z     vdW  Elec       q    Type
REMARK                         _______ _______ _______ _____ _____    ______ ____
ROOT
ATOM     10  C   UNL     1      62.659  18.365  48.911  0.00  0.00    +0.038 A 
ATOM     11  C   UNL     1      63.474  18.303  50.070  0.00  0.00    +0.047 A 
ATOM     12  C   UNL     1      64.133  17.066  50.460  0.00  0.00    +0.035 A 
ATOM     32  C   UNL     1      63.942  15.912  49.645  0.00  0.00    +0.024 A 
ATOM     33  C   UNL     1      63.115  15.958  48.465  0.00  0.00    +0.007 A 
ATOM     34  C   UNL     1      62.461  17.174  48.076  0.00  0.00    -0.029 A 
ATOM     35  C   UNL     1      61.581  17.164  46.804  0.00  0.00    +0.045 C 
ENDROOT
BRANCH  10   9
ATOM      4  C   UNL     1      62.839  23.053  47.898  0.00  0.00    +0.077 A 
ATOM      5  C   UNL     1      64.264  23.094  48.062  0.00  0.00    +0.048 A 
ATOM      6  C   UNL     1      64.911  21.889  48.414  0.00  0.00    +0.116 A 
ATOM      7  N   UNL     1      64.179  20.735  48.587  0.00  0.00    -0.223 NA
ATOM      8  C   UNL     1      62.806  20.730  48.422  0.00  0.00    +0.220 A 
ATOM      9  N   UNL     1      62.050  19.579  48.583  0.00  0.00    -0.283 N 
ATOM     36  H   UNL     1      61.039  19.619  48.460  0.00  0.00    +0.155 HD
ATOM     37  N   UNL     1      62.164  21.869  48.087  0.00  0.00    -0.214 NA
BRANCH   4   3
ATOM      1  C   UNL     1      60.191  25.931  47.970  0.00  0.00    +0.020 A 
ATOM      2  C   UNL     1      60.960  24.778  48.378  0.00  0.00    +0.013 A 
ATOM      3  C   UNL     1      62.013  24.244  47.523  0.00  0.00    +0.019 A 
ATOM     38  C   UNL     1      62.265  24.906  46.252  0.00  0.00    +0.120 A 
ATOM     39  N   UNL     1      61.507  26.014  45.885  0.00  0.00    -0.263 NA
ATOM     40  C   UNL     1      60.490  26.535  46.698  0.00  0.00    +0.111 A 
ENDBRANCH   4   3
ENDBRANCH  10   9
BRANCH  12  13
ATOM     13  N   UNL     1      64.966  16.940  51.630  0.00  0.00    -0.281 N 
ATOM     14  C   UNL     1      65.376  17.941  52.496  0.00  0.00    +0.248 C 
ATOM     30  O   UNL     1      65.262  19.137  52.272  0.00  0.00    -0.270 OA
ATOM     31  H   UNL     1      65.294  15.998  51.846  0.00  0.00    +0.155 HD
BRANCH  14  15
ATOM     15  C   UNL     1      66.018  17.558  53.790  0.00  0.00    +0.037 A 
ATOM     16  C   UNL     1      65.607  16.353  54.515  0.00  0.00    +0.013 A 
ATOM     17  C   UNL     1      66.230  16.016  55.770  0.00  0.00    +0.005 A 
ATOM     18  C   UNL     1      67.274  16.886  56.307  0.00  0.00    -0.033 A 
ATOM     28  C   UNL     1      67.666  18.072  55.565  0.00  0.00    +0.005 A 
ATOM     29  C   UNL     1      67.056  18.406  54.335  0.00  0.00    +0.013 A 
BRANCH  18  19
ATOM     19  C   UNL     1      67.979  16.615  57.650  0.00  0.00    +0.119 C 
BRANCH  19  20
ATOM     20  N   UNL     1      67.138  16.649  58.883  0.00  0.00    -0.302 NA
ATOM     21  C   UNL     1      66.400  15.327  59.112  0.00  0.00    +0.066 C 
ATOM     22  C   UNL     1      65.543  15.373  60.419  0.00  0.00    -0.064 C 
ATOM     23  N   UNL     1      64.554  16.538  60.336  0.00  0.00    +0.379 N 
ATOM     24  C   UNL     1      63.707  16.548  61.538  0.00  0.00    -0.096 C 
ATOM     25  H   UNL     1      63.893  16.358  59.457  0.00  0.00    -0.082 HD
ATOM     26  C   UNL     1      65.279  17.856  60.106  0.00  0.00    -0.064 C 
ATOM     27  C   UNL     1      66.152  17.790  58.821  0.00  0.00    +0.066 C 
ENDBRANCH  19  20
ENDBRANCH  18  19
ENDBRANCH  14  15
ENDBRANCH  12  13
TORSDOF 6
ENDMDL
MODEL 5
REMARK VINA RESULT:      -8.8      2.455     13.282
REMARK  Name = C:\Users\Docking\Desktop\test protocol\1iep_ligandH.pdb
REMARK  8 active torsions:
REMARK  status: ('A' for Active; 'I' for Inactive)
REMARK    1  A    between atoms: _5  and  _11
REMARK    2  A    between atoms: _19  and  _21
REMARK    3  A    between atoms: _22  and  _66
REMARK    4  A    between atoms: _27  and  _30
REMARK    5  A    between atoms: _32  and  _33
REMARK    6  A    between atoms: _38  and  _43
REMARK    7  A    between atoms: _43  and  _46
REMARK    8  A    between atoms: _53  and  _55
REMARK                            x       y       z     vdW  Elec       q    Type
REMARK                         _______ _______ _______ _____ _____    ______ ____
ROOT
ATOM     10  C   UNL     1      58.423  13.358  51.533  0.00  0.00    +0.038 A 
ATOM     11  C   UNL     1      59.338  14.434  51.409  0.00  0.00    +0.047 A 
ATOM     12  C   UNL     1      59.267  15.358  50.288  0.00  0.00    +0.035 A 
ATOM     32  C   UNL     1      58.248  15.158  49.312  0.00  0.00    +0.024 A 
ATOM     33  C   UNL     1      57.310  14.069  49.421  0.00  0.00    +0.007 A 
ATOM     34  C   UNL     1      57.377  13.153  50.524  0.00  0.00    -0.029 A 
ATOM     35  C   UNL     1      56.348  12.000  50.587  0.00  0.00    +0.045 C 
ENDROOT
BRANCH  10   9
ATOM      4  C   UNL     1      57.216  11.977  55.968  0.00  0.00    +0.077 A 
ATOM      5  C   UNL     1      56.300  13.070  56.123  0.00  0.00    +0.048 A 
ATOM      6  C   UNL     1      56.174  13.969  55.041  0.00  0.00    +0.116 A 
ATOM      7  N   UNL     1      56.913  13.780  53.894  0.00  0.00    -0.223 NA
ATOM      8  C   UNL     1      57.789  12.716  53.777  0.00  0.00    +0.220 A 
ATOM      9  N   UNL     1      58.537  12.502  52.630  0.00  0.00    -0.283 N 
ATOM     36  H   UNL     1      59.178  11.709  52.586  0.00  0.00    +0.155 HD
ATOM     37  N   UNL     1      57.929  11.844  54.798  0.00  0.00    -0.214 NA
BRANCH   4   3
ATOM      1  C   UNL     1      56.787   8.902  58.348  0.00  0.00    +0.020 A 
ATOM      2  C   UNL     1      56.505   9.878  57.320  0.00  0.00    +0.013 A 
ATOM      3  C   UNL     1      57.457  10.941  57.022  0.00  0.00    +0.019 A 
ATOM     38  C   UNL     1      58.695  10.987  57.786  0.00  0.00    +0.120 A 
ATOM     39  N   UNL     1      58.938  10.034  58.770  0.00  0.00    -0.263 NA
ATOM     40  C   UNL     1      58.029   9.008  59.068  0.00  0.00    +0.111 A 
ENDBRANCH   4   3
ENDBRANCH  10   9
BRANCH  12  13
ATOM     13  N   UNL     1      60.175  16.464  50.105  0.00  0.00    -0.281 N 
ATOM     14  C   UNL     1      61.423  16.451  49.505  0.00  0.00    +0.248 C 
ATOM     30  O   UNL     1      62.043  15.437  49.222  0.00  0.00    -0.270 OA
ATOM     31  H   UNL     1      59.858  17.366  50.462  0.00  0.00    +0.155 HD
BRANCH  14  15
ATOM     15  C   UNL     1      62.084  17.753  49.185  0.00  0.00    +0.037 A 
ATOM     16  C   UNL     1      61.506  18.679  48.208  0.00  0.00    +0.013 A 
ATOM     17  C   UNL     1      62.173  19.920  47.906  0.00  0.00    +0.005 A 
ATOM     18  C   UNL     1      63.426  20.244  48.583  0.00  0.00    -0.033 A 
ATOM     28  C   UNL     1      63.974  19.309  49.552  0.00  0.00    +0.005 A 
ATOM     29  C   UNL     1      63.324  18.091  49.850  0.00  0.00    +0.013 A 
BRANCH  18  19
ATOM     19  C   UNL     1      64.217  21.536  48.307  0.00  0.00    +0.119 C 
BRANCH  19  20
ATOM     20  N   UNL     1      63.670  22.465  47.273  0.00  0.00    -0.302 NA
ATOM     21  C   UNL     1      64.778  23.104  46.432  0.00  0.00    +0.066 C 
ATOM     22  C   UNL     1      64.187  24.055  45.341  0.00  0.00    -0.064 C 
ATOM     23  N   UNL     1      63.331  25.129  46.014  0.00  0.00    +0.379 N 
ATOM     24  C   UNL     1      62.821  26.059  44.996  0.00  0.00    -0.096 C 
ATOM     25  H   UNL     1      63.992  25.707  46.700  0.00  0.00    -0.082 HD
ATOM     26  C   UNL     1      62.228  24.501  46.855  0.00  0.00    -0.064 C 
ATOM     27  C   UNL     1      62.824  23.536  47.917  0.00  0.00    +0.066 C 
ENDBRANCH  19  20
ENDBRANCH  18  19
ENDBRANCH  14  15
ENDBRANCH  12  13
TORSDOF 6
ENDMDL
