MODEL 1
REMARK VINA RESULT:      -9.1      0.000      0.000
REMARK  Name = C:\Users\Docking\Desktop\test protocol\1iep_ligandH.pdb
REMARK  8 active torsions:
REMARK  status: ('A' for Active; 'I' for Inactive)
REMARK    1  A    between atoms: _5  and  _11
REMARK    2  A    between atoms: _19  and  _21
REMARK    3  A    between atoms: _22  and  _66
REMARK    4  A    between atoms: _27  and  _30
REMARK    5  A    between atoms: _32  and  _33
REMARK    6  A    between atoms: _38  and  _43
REMARK    7  A    between atoms: _43  and  _46
REMARK    8  A    between atoms: _53  and  _55
REMARK                            x       y       z     vdW  Elec       q    Type
REMARK                         _______ _______ _______ _____ _____    ______ ____
ROOT
ATOM     10  C   UNL     1      54.642 -50.670  11.699  0.00  0.00    +0.038 A 
ATOM     11  C   UNL     1      54.170 -50.992  10.401  0.00  0.00    +0.047 A 
ATOM     12  C   UNL     1      53.908 -52.370  10.016  0.00  0.00    +0.035 A 
ATOM     32  C   UNL     1      54.134 -53.396  10.980  0.00  0.00    +0.024 A 
ATOM     33  C   UNL     1      54.615 -53.086  12.303  0.00  0.00    +0.007 A 
ATOM     34  C   UNL     1      54.878 -51.729  12.688  0.00  0.00    -0.029 A 
ATOM     35  C   UNL     1      55.398 -51.457  14.119  0.00  0.00    +0.045 C 
ENDROOT
BRANCH  10   9
ATOM      4  C   UNL     1      53.235 -46.419  13.428  0.00  0.00    +0.077 A 
ATOM      5  C   UNL     1      51.912 -46.902  13.700  0.00  0.00    +0.048 A 
ATOM      6  C   UNL     1      51.632 -48.247  13.374  0.00  0.00    +0.116 A 
ATOM      7  N   UNL     1      52.610 -49.043  12.818  0.00  0.00    -0.223 NA
ATOM      8  C   UNL     1      53.876 -48.546  12.567  0.00  0.00    +0.220 A 
ATOM      9  N   UNL     1      54.877 -49.330  12.015  0.00  0.00    -0.283 N 
ATOM     36  H   UNL     1      55.796 -48.924  11.839  0.00  0.00    +0.155 HD
ATOM     37  N   UNL     1      54.168 -47.264  12.868  0.00  0.00    -0.214 NA
BRANCH   4   3
ATOM      1  C   UNL     1      53.443 -42.788  14.868  0.00  0.00    +0.020 A 
ATOM      2  C   UNL     1      52.965 -44.129  14.619  0.00  0.00    +0.013 A 
ATOM      3  C   UNL     1      53.686 -45.022  13.720  0.00  0.00    +0.019 A 
ATOM     38  C   UNL     1      54.896 -44.524  13.085  0.00  0.00    +0.120 A 
ATOM     39  N   UNL     1      55.331 -43.227  13.342  0.00  0.00    -0.263 NA
ATOM     40  C   UNL     1      54.645 -42.358  14.203  0.00  0.00    +0.111 A 
ENDBRANCH   4   3
ENDBRANCH  10   9
BRANCH  12  13
ATOM     13  N   UNL     1      53.436 -52.758   8.710  0.00  0.00    -0.281 N 
ATOM     14  C   UNL     1      54.169 -53.294   7.664  0.00  0.00    +0.248 C 
ATOM     30  O   UNL     1      55.390 -53.323   7.619  0.00  0.00    -0.270 OA
ATOM     31  H   UNL     1      52.440 -52.621   8.535  0.00  0.00    +0.155 HD
BRANCH  14  15
ATOM     15  C   UNL     1      53.441 -53.868   6.492  0.00  0.00    +0.037 A 
ATOM     16  C   UNL     1      54.080 -54.842   5.603  0.00  0.00    +0.013 A 
ATOM     17  C   UNL     1      53.362 -55.367   4.469  0.00  0.00    +0.005 A 
ATOM     18  C   UNL     1      51.993 -54.920   4.219  0.00  0.00    -0.033 A 
ATOM     28  C   UNL     1      51.382 -53.957   5.120  0.00  0.00    +0.005 A 
ATOM     29  C   UNL     1      52.084 -53.439   6.231  0.00  0.00    +0.013 A 
BRANCH  18  19
ATOM     19  C   UNL     1      51.159 -55.412   3.021  0.00  0.00    +0.119 C 
BRANCH  19  20
ATOM     20  N   UNL     1      50.123 -56.453   3.291  0.00  0.00    -0.302 NA
ATOM     21  C   UNL     1      50.104 -57.538   2.210  0.00  0.00    +0.066 C 
ATOM     22  C   UNL     1      49.030 -58.631   2.520  0.00  0.00    -0.064 C 
ATOM     23  N   UNL     1      47.657 -57.971   2.649  0.00  0.00    +0.379 N 
ATOM     24  C   UNL     1      46.636 -59.003   2.882  0.00  0.00    -0.096 C 
ATOM     25  H   UNL     1      47.425 -57.480   1.675  0.00  0.00    -0.082 HD
ATOM     26  C   UNL     1      47.667 -56.889   3.719  0.00  0.00    -0.064 C 
ATOM     27  C   UNL     1      48.758 -55.823   3.417  0.00  0.00    +0.066 C 
ENDBRANCH  19  20
ENDBRANCH  18  19
ENDBRANCH  14  15
ENDBRANCH  12  13
TORSDOF 6
ENDMDL
MODEL 2
REMARK VINA RESULT:      -9.0      5.355      8.907
REMARK  Name = C:\Users\Docking\Desktop\test protocol\1iep_ligandH.pdb
REMARK  8 active torsions:
REMARK  status: ('A' for Active; 'I' for Inactive)
REMARK    1  A    between atoms: _5  and  _11
REMARK    2  A    between atoms: _19  and  _21
REMARK    3  A    between atoms: _22  and  _66
REMARK    4  A    between atoms: _27  and  _30
REMARK    5  A    between atoms: _32  and  _33
REMARK    6  A    between atoms: _38  and  _43
REMARK    7  A    between atoms: _43  and  _46
REMARK    8  A    between atoms: _53  and  _55
REMARK                            x       y       z     vdW  Elec       q    Type
REMARK                         _______ _______ _______ _____ _____    ______ ____
ROOT
ATOM     10  C   UNL     1      48.076 -54.543   6.491  0.00  0.00    +0.038 A 
ATOM     11  C   UNL     1      48.481 -55.547   5.574  0.00  0.00    +0.047 A 
ATOM     12  C   UNL     1      47.536 -56.532   5.071  0.00  0.00    +0.035 A 
ATOM     32  C   UNL     1      46.185 -56.463   5.521  0.00  0.00    +0.024 A 
ATOM     33  C   UNL     1      45.757 -55.450   6.453  0.00  0.00    +0.007 A 
ATOM     34  C   UNL     1      46.685 -54.478   6.955  0.00  0.00    -0.029 A 
ATOM     35  C   UNL     1      46.172 -53.418   7.957  0.00  0.00    +0.045 C 
ENDROOT
BRANCH  10   9
ATOM      4  C   UNL     1      50.891 -50.709   5.851  0.00  0.00    +0.077 A 
ATOM      5  C   UNL     1      50.453 -50.540   4.495  0.00  0.00    +0.048 A 
ATOM      6  C   UNL     1      49.508 -51.465   3.998  0.00  0.00    +0.116 A 
ATOM      7  N   UNL     1      49.042 -52.480   4.806  0.00  0.00    -0.223 NA
ATOM      8  C   UNL     1      49.486 -52.615   6.109  0.00  0.00    +0.220 A 
ATOM      9  N   UNL     1      49.026 -53.623   6.941  0.00  0.00    -0.283 N 
ATOM     36  H   UNL     1      49.384 -53.694   7.894  0.00  0.00    +0.155 HD
ATOM     37  N   UNL     1      50.390 -51.745   6.606  0.00  0.00    -0.214 NA
BRANCH   4   3
ATOM      1  C   UNL     1      53.125 -48.967   8.548  0.00  0.00    +0.020 A 
ATOM      2  C   UNL     1      52.157 -49.857   7.951  0.00  0.00    +0.013 A 
ATOM      3  C   UNL     1      51.883 -49.809   6.520  0.00  0.00    +0.019 A 
ATOM     38  C   UNL     1      52.614 -48.842   5.715  0.00  0.00    +0.120 A 
ATOM     39  N   UNL     1      53.540 -47.996   6.317  0.00  0.00    -0.263 NA
ATOM     40  C   UNL     1      53.810 -48.032   7.693  0.00  0.00    +0.111 A 
ENDBRANCH   4   3
ENDBRANCH  10   9
BRANCH  12  13
ATOM     13  N   UNL     1      47.890 -57.579   4.145  0.00  0.00    -0.281 N 
ATOM     14  C   UNL     1      47.221 -57.960   2.994  0.00  0.00    +0.248 C 
ATOM     30  O   UNL     1      46.093 -57.597   2.697  0.00  0.00    -0.270 OA
ATOM     31  H   UNL     1      48.738 -58.103   4.366  0.00  0.00    +0.155 HD
BRANCH  14  15
ATOM     15  C   UNL     1      47.898 -58.891   2.040  0.00  0.00    +0.037 A 
ATOM     16  C   UNL     1      49.312 -58.728   1.693  0.00  0.00    +0.013 A 
ATOM     17  C   UNL     1      49.936 -59.630   0.758  0.00  0.00    +0.005 A 
ATOM     18  C   UNL     1      49.145 -60.705   0.163  0.00  0.00    -0.033 A 
ATOM     28  C   UNL     1      47.746 -60.847   0.529  0.00  0.00    +0.005 A 
ATOM     29  C   UNL     1      47.131 -59.964   1.445  0.00  0.00    +0.013 A 
BRANCH  18  19
ATOM     19  C   UNL     1      49.723 -61.701  -0.860  0.00  0.00    +0.119 C 
BRANCH  19  20
ATOM     20  N   UNL     1      49.663 -61.312  -2.301  0.00  0.00    -0.302 NA
ATOM     21  C   UNL     1      50.377 -59.985  -2.568  0.00  0.00    +0.066 C 
ATOM     22  C   UNL     1      50.324 -59.605  -4.084  0.00  0.00    -0.064 C 
ATOM     23  N   UNL     1      48.865 -59.536  -4.539  0.00  0.00    +0.379 N 
ATOM     24  C   UNL     1      48.810 -59.123  -5.949  0.00  0.00    -0.096 C 
ATOM     25  H   UNL     1      48.360 -58.748  -3.935  0.00  0.00    -0.082 HD
ATOM     26  C   UNL     1      48.147 -60.852  -4.274  0.00  0.00    -0.064 C 
ATOM     27  C   UNL     1      48.231 -61.235  -2.770  0.00  0.00    +0.066 C 
ENDBRANCH  19  20
ENDBRANCH  18  19
ENDBRANCH  14  15
ENDBRANCH  12  13
TORSDOF 6
ENDMDL
MODEL 3
REMARK VINA RESULT:      -8.9      4.838      8.383
REMARK  Name = C:\Users\Docking\Desktop\test protocol\1iep_ligandH.pdb
REMARK  8 active torsions:
REMARK  status: ('A' for Active; 'I' for Inactive)
REMARK    1  A    between atoms: _5  and  _11
REMARK    2  A    between atoms: _19  and  _21
REMARK    3  A    between atoms: _22  and  _66
REMARK    4  A    between atoms: _27  and  _30
REMARK    5  A    between atoms: _32  and  _33
REMARK    6  A    between atoms: _38  and  _43
REMARK    7  A    between atoms: _43  and  _46
REMARK    8  A    between atoms: _53  and  _55
REMARK                            x       y       z     vdW  Elec       q    Type
REMARK                         _______ _______ _______ _____ _____    ______ ____
ROOT
ATOM     10  C   UNL     1      48.162 -53.792   5.945  0.00  0.00    +0.038 A 
ATOM     11  C   UNL     1      48.460 -54.614   4.829  0.00  0.00    +0.047 A 
ATOM     12  C   UNL     1      47.800 -55.897   4.641  0.00  0.00    +0.035 A 
ATOM     32  C   UNL     1      46.840 -56.310   5.609  0.00  0.00    +0.024 A 
ATOM     33  C   UNL     1      46.525 -55.488   6.751  0.00  0.00    +0.007 A 
ATOM     34  C   UNL     1      47.174 -54.222   6.942  0.00  0.00    -0.029 A 
ATOM     35  C   UNL     1      46.803 -53.385   8.188  0.00  0.00    +0.045 C 
ENDROOT
BRANCH  10   9
ATOM      4  C   UNL     1      51.994 -51.163   7.144  0.00  0.00    +0.077 A 
ATOM      5  C   UNL     1      52.727 -52.319   7.571  0.00  0.00    +0.048 A 
ATOM      6  C   UNL     1      52.080 -53.571   7.473  0.00  0.00    +0.116 A 
ATOM      7  N   UNL     1      50.795 -53.649   6.982  0.00  0.00    -0.223 NA
ATOM      8  C   UNL     1      50.115 -52.514   6.580  0.00  0.00    +0.220 A 
ATOM      9  N   UNL     1      48.825 -52.570   6.075  0.00  0.00    -0.283 N 
ATOM     36  H   UNL     1      48.355 -51.709   5.796  0.00  0.00    +0.155 HD
ATOM     37  N   UNL     1      50.711 -51.306   6.665  0.00  0.00    -0.214 NA
BRANCH   4   3
ATOM      1  C   UNL     1      53.441 -47.755   8.405  0.00  0.00    +0.020 A 
ATOM      2  C   UNL     1      52.915 -49.100   8.422  0.00  0.00    +0.013 A 
ATOM      3  C   UNL     1      52.544 -49.771   7.183  0.00  0.00    +0.019 A 
ATOM     38  C   UNL     1      52.720 -49.047   5.933  0.00  0.00    +0.120 A 
ATOM     39  N   UNL     1      53.228 -47.752   5.947  0.00  0.00    -0.263 NA
ATOM     40  C   UNL     1      53.587 -47.096   7.134  0.00  0.00    +0.111 A 
ENDBRANCH   4   3
ENDBRANCH  10   9
BRANCH  12  13
ATOM     13  N   UNL     1      48.068 -56.778   3.532  0.00  0.00    -0.281 N 
ATOM     14  C   UNL     1      49.081 -57.716   3.414  0.00  0.00    +0.248 C 
ATOM     30  O   UNL     1      50.045 -57.790   4.162  0.00  0.00    -0.270 OA
ATOM     31  H   UNL     1      47.434 -56.701   2.736  0.00  0.00    +0.155 HD
BRANCH  14  15
ATOM     15  C   UNL     1      49.023 -58.705   2.295  0.00  0.00    +0.037 A 
ATOM     16  C   UNL     1      50.220 -59.050   1.523  0.00  0.00    +0.013 A 
ATOM     17  C   UNL     1      50.133 -59.994   0.437  0.00  0.00    +0.005 A 
ATOM     18  C   UNL     1      48.843 -60.602   0.119  0.00  0.00    -0.033 A 
ATOM     28  C   UNL     1      47.673 -60.246   0.904  0.00  0.00    +0.005 A 
ATOM     29  C   UNL     1      47.755 -59.320   1.968  0.00  0.00    +0.013 A 
BRANCH  18  19
ATOM     19  C   UNL     1      48.653 -61.604  -1.036  0.00  0.00    +0.119 C 
BRANCH  19  20
ATOM     20  N   UNL     1      49.025 -61.145  -2.407  0.00  0.00    -0.302 NA
ATOM     21  C   UNL     1      49.218 -59.627  -2.473  0.00  0.00    +0.066 C 
ATOM     22  C   UNL     1      49.629 -59.167  -3.909  0.00  0.00    -0.064 C 
ATOM     23  N   UNL     1      48.566 -59.621  -4.911  0.00  0.00    +0.379 N 
ATOM     24  C   UNL     1      48.920 -59.140  -6.254  0.00  0.00    -0.096 C 
ATOM     25  H   UNL     1      47.603 -59.141  -4.622  0.00  0.00    -0.082 HD
ATOM     26  C   UNL     1      48.366 -61.129  -4.851  0.00  0.00    -0.064 C 
ATOM     27  C   UNL     1      47.987 -61.579  -3.412  0.00  0.00    +0.066 C 
ENDBRANCH  19  20
ENDBRANCH  18  19
ENDBRANCH  14  15
ENDBRANCH  12  13
TORSDOF 6
ENDMDL
MODEL 4
REMARK VINA RESULT:      -8.9      3.845      7.619
REMARK  Name = C:\Users\Docking\Desktop\test protocol\1iep_ligandH.pdb
REMARK  8 active torsions:
REMARK  status: ('A' for Active; 'I' for Inactive)
REMARK    1  A    between atoms: _5  and  _11
REMARK    2  A    between atoms: _19  and  _21
REMARK    3  A    between atoms: _22  and  _66
REMARK    4  A    between atoms: _27  and  _30
REMARK    5  A    between atoms: _32  and  _33
REMARK    6  A    between atoms: _38  and  _43
REMARK    7  A    between atoms: _43  and  _46
REMARK    8  A    between atoms: _53  and  _55
REMARK                            x       y       z     vdW  Elec       q    Type
REMARK                         _______ _______ _______ _____ _____    ______ ____
ROOT
ATOM     10  C   UNL     1      51.583 -52.619   5.752  0.00  0.00    +0.038 A 
ATOM     11  C   UNL     1      51.090 -53.907   5.422  0.00  0.00    +0.047 A 
ATOM     12  C   UNL     1      50.750 -54.253   4.050  0.00  0.00    +0.035 A 
ATOM     32  C   UNL     1      50.928 -53.263   3.040  0.00  0.00    +0.024 A 
ATOM     33  C   UNL     1      51.427 -51.949   3.359  0.00  0.00    +0.007 A 
ATOM     34  C   UNL     1      51.761 -51.601   4.710  0.00  0.00    -0.029 A 
ATOM     35  C   UNL     1      52.286 -50.174   4.995  0.00  0.00    +0.045 C 
ENDROOT
BRANCH  10   9
ATOM      4  C   UNL     1      54.688 -52.308   9.399  0.00  0.00    +0.077 A 
ATOM      5  C   UNL     1      55.779 -52.764   8.587  0.00  0.00    +0.048 A 
ATOM      6  C   UNL     1      55.497 -53.075   7.238  0.00  0.00    +0.116 A 
ATOM      7  N   UNL     1      54.217 -52.936   6.748  0.00  0.00    -0.223 NA
ATOM      8  C   UNL     1      53.187 -52.495   7.559  0.00  0.00    +0.220 A 
ATOM      9  N   UNL     1      51.893 -52.341   7.086  0.00  0.00    -0.283 N 
ATOM     36  H   UNL     1      51.160 -52.020   7.718  0.00  0.00    +0.155 HD
ATOM     37  N   UNL     1      53.430 -52.193   8.851  0.00  0.00    -0.214 NA
BRANCH   4   3
ATOM      1  C   UNL     1      55.015 -52.513  13.292  0.00  0.00    +0.020 A 
ATOM      2  C   UNL     1      54.879 -52.925  11.913  0.00  0.00    +0.013 A 
ATOM      3  C   UNL     1      54.827 -51.937  10.843  0.00  0.00    +0.019 A 
ATOM     38  C   UNL     1      54.916 -50.530  11.204  0.00  0.00    +0.120 A 
ATOM     39  N   UNL     1      55.045 -50.164  12.540  0.00  0.00    -0.263 NA
ATOM     40  C   UNL     1      55.095 -51.105  13.579  0.00  0.00    +0.111 A 
ENDBRANCH   4   3
ENDBRANCH  10   9
BRANCH  12  13
ATOM     13  N   UNL     1      50.238 -55.542   3.655  0.00  0.00    -0.281 N 
ATOM     14  C   UNL     1      48.939 -56.011   3.761  0.00  0.00    +0.248 C 
ATOM     30  O   UNL     1      48.058 -55.466   4.411  0.00  0.00    -0.270 OA
ATOM     31  H   UNL     1      50.916 -56.187   3.249  0.00  0.00    +0.155 HD
BRANCH  14  15
ATOM     15  C   UNL     1      48.567 -57.274   3.054  0.00  0.00    +0.037 A 
ATOM     16  C   UNL     1      47.311 -57.969   3.348  0.00  0.00    +0.013 A 
ATOM     17  C   UNL     1      46.985 -59.195   2.664  0.00  0.00    +0.005 A 
ATOM     18  C   UNL     1      47.917 -59.733   1.677  0.00  0.00    -0.033 A 
ATOM     28  C   UNL     1      49.154 -59.021   1.400  0.00  0.00    +0.005 A 
ATOM     29  C   UNL     1      49.477 -57.820   2.069  0.00  0.00    +0.013 A 
BRANCH  18  19
ATOM     19  C   UNL     1      47.661 -61.047   0.914  0.00  0.00    +0.119 C 
BRANCH  19  20
ATOM     20  N   UNL     1      48.187 -61.141  -0.480  0.00  0.00    -0.302 NA
ATOM     21  C   UNL     1      47.071 -61.393  -1.499  0.00  0.00    +0.066 C 
ATOM     22  C   UNL     1      47.636 -61.467  -2.955  0.00  0.00    -0.064 C 
ATOM     23  N   UNL     1      48.698 -62.565  -3.032  0.00  0.00    +0.379 N 
ATOM     24  C   UNL     1      49.189 -62.676  -4.413  0.00  0.00    -0.096 C 
ATOM     25  H   UNL     1      48.205 -63.530  -2.770  0.00  0.00    -0.082 HD
ATOM     26  C   UNL     1      49.809 -62.324  -2.021  0.00  0.00    -0.064 C 
ATOM     27  C   UNL     1      49.234 -62.223  -0.580  0.00  0.00    +0.066 C 
ENDBRANCH  19  20
ENDBRANCH  18  19
ENDBRANCH  14  15
ENDBRANCH  12  13
TORSDOF 6
ENDMDL
MODEL 5
REMARK VINA RESULT:      -8.7      4.311      8.668
REMARK  Name = C:\Users\Docking\Desktop\test protocol\1iep_ligandH.pdb
REMARK  8 active torsions:
REMARK  status: ('A' for Active; 'I' for Inactive)
REMARK    1  A    between atoms: _5  and  _11
REMARK    2  A    between atoms: _19  and  _21
REMARK    3  A    between atoms: _22  and  _66
REMARK    4  A    between atoms: _27  and  _30
REMARK    5  A    between atoms: _32  and  _33
REMARK    6  A    between atoms: _38  and  _43
REMARK    7  A    between atoms: _43  and  _46
REMARK    8  A    between atoms: _53  and  _55
REMARK                            x       y       z     vdW  Elec       q    Type
REMARK                         _______ _______ _______ _____ _____    ______ ____
ROOT
ATOM     10  C   UNL     1      50.331 -53.386   5.182  0.00  0.00    +0.038 A 
ATOM     11  C   UNL     1      50.263 -54.714   4.690  0.00  0.00    +0.047 A 
ATOM     12  C   UNL     1      49.714 -55.002   3.374  0.00  0.00    +0.035 A 
ATOM     32  C   UNL     1      49.245 -53.911   2.584  0.00  0.00    +0.024 A 
ATOM     33  C   UNL     1      49.305 -52.555   3.070  0.00  0.00    +0.007 A 
ATOM     34  C   UNL     1      49.844 -52.266   4.368  0.00  0.00    -0.029 A 
ATOM     35  C   UNL     1      49.878 -50.794   4.840  0.00  0.00    +0.045 C 
ENDROOT
BRANCH  10   9
ATOM      4  C   UNL     1      54.016 -52.484   8.122  0.00  0.00    +0.077 A 
ATOM      5  C   UNL     1      54.955 -52.475   7.038  0.00  0.00    +0.048 A 
ATOM      6  C   UNL     1      54.450 -52.713   5.740  0.00  0.00    +0.116 A 
ATOM      7  N   UNL     1      53.105 -52.942   5.552  0.00  0.00    -0.223 NA
ATOM      8  C   UNL     1      52.226 -52.947   6.620  0.00  0.00    +0.220 A 
ATOM      9  N   UNL     1      50.868 -53.168   6.453  0.00  0.00    -0.283 N 
ATOM     36  H   UNL     1      50.253 -53.170   7.267  0.00  0.00    +0.155 HD
ATOM     37  N   UNL     1      52.683 -52.723   7.869  0.00  0.00    -0.214 NA
BRANCH   4   3
ATOM      1  C   UNL     1      54.462 -52.901  11.986  0.00  0.00    +0.020 A 
ATOM      2  C   UNL     1      54.072 -53.179  10.623  0.00  0.00    +0.013 A 
ATOM      3  C   UNL     1      54.395 -52.246   9.551  0.00  0.00    +0.019 A 
ATOM     38  C   UNL     1      55.120 -51.032   9.894  0.00  0.00    +0.120 A 
ATOM     39  N   UNL     1      55.481 -50.790  11.216  0.00  0.00    -0.263 NA
ATOM     40  C   UNL     1      55.174 -51.680  12.256  0.00  0.00    +0.111 A 
ENDBRANCH   4   3
ENDBRANCH  10   9
BRANCH  12  13
ATOM     13  N   UNL     1      49.612 -56.331   2.824  0.00  0.00    -0.281 N 
ATOM     14  C   UNL     1      48.552 -57.217   2.928  0.00  0.00    +0.248 C 
ATOM     30  O   UNL     1      47.610 -57.080   3.695  0.00  0.00    -0.270 OA
ATOM     31  H   UNL     1      50.419 -56.659   2.293  0.00  0.00    +0.155 HD
BRANCH  14  15
ATOM     15  C   UNL     1      48.544 -58.438   2.066  0.00  0.00    +0.037 A 
ATOM     16  C   UNL     1      47.341 -59.264   1.931  0.00  0.00    +0.013 A 
ATOM     17  C   UNL     1      47.366 -60.447   1.106  0.00  0.00    +0.005 A 
ATOM     18  C   UNL     1      48.598 -60.808   0.409  0.00  0.00    -0.033 A 
ATOM     28  C   UNL     1      49.774 -59.967   0.557  0.00  0.00    +0.005 A 
ATOM     29  C   UNL     1      49.754 -58.808   1.365  0.00  0.00    +0.013 A 
BRANCH  18  19
ATOM     19  C   UNL     1      48.721 -62.064  -0.475  0.00  0.00    +0.119 C 
BRANCH  19  20
ATOM     20  N   UNL     1      48.956 -61.852  -1.934  0.00  0.00    -0.302 NA
ATOM     21  C   UNL     1      47.739 -61.234  -2.629  0.00  0.00    +0.066 C 
ATOM     22  C   UNL     1      48.011 -60.999  -4.150  0.00  0.00    -0.064 C 
ATOM     23  N   UNL     1      48.395 -62.325  -4.808  0.00  0.00    +0.379 N 
ATOM     24  C   UNL     1      48.595 -62.118  -6.250  0.00  0.00    -0.096 C 
ATOM     25  H   UNL     1      47.536 -63.025  -4.683  0.00  0.00    -0.082 HD
ATOM     26  C   UNL     1      49.602 -62.948  -4.122  0.00  0.00    -0.064 C 
ATOM     27  C   UNL     1      49.332 -63.150  -2.605  0.00  0.00    +0.066 C 
ENDBRANCH  19  20
ENDBRANCH  18  19
ENDBRANCH  14  15
ENDBRANCH  12  13
TORSDOF 6
ENDMDL
