MODEL 1
REMARK VINA RESULT:      -8.1      0.000      0.000
REMARK  Name = C:\Users\Docking\Desktop\test protocol\1iep_ligandH.pdb
REMARK  8 active torsions:
REMARK  status: ('A' for Active; 'I' for Inactive)
REMARK    1  A    between atoms: _5  and  _11
REMARK    2  A    between atoms: _19  and  _21
REMARK    3  A    between atoms: _22  and  _66
REMARK    4  A    between atoms: _27  and  _30
REMARK    5  A    between atoms: _32  and  _33
REMARK    6  A    between atoms: _38  and  _43
REMARK    7  A    between atoms: _43  and  _46
REMARK    8  A    between atoms: _53  and  _55
REMARK                            x       y       z     vdW  Elec       q    Type
REMARK                         _______ _______ _______ _____ _____    ______ ____
ROOT
ATOM     10  C   UNL     1       8.027  20.829  17.879  0.00  0.00    +0.038 A 
ATOM     11  C   UNL     1       6.685  21.073  18.267  0.00  0.00    +0.047 A 
ATOM     12  C   UNL     1       5.591  20.277  17.731  0.00  0.00    +0.035 A 
ATOM     32  C   UNL     1       5.901  19.240  16.804  0.00  0.00    +0.024 A 
ATOM     33  C   UNL     1       7.259  18.980  16.398  0.00  0.00    +0.007 A 
ATOM     34  C   UNL     1       8.342  19.763  16.921  0.00  0.00    -0.029 A 
ATOM     35  C   UNL     1       9.779  19.444  16.445  0.00  0.00    +0.045 C 
ENDROOT
BRANCH  10   9
ATOM      4  C   UNL     1      10.872  24.695  17.817  0.00  0.00    +0.077 A 
ATOM      5  C   UNL     1      10.314  25.159  16.579  0.00  0.00    +0.048 A 
ATOM      6  C   UNL     1       9.303  24.369  15.987  0.00  0.00    +0.116 A 
ATOM      7  N   UNL     1       8.887  23.206  16.597  0.00  0.00    -0.223 NA
ATOM      8  C   UNL     1       9.447  22.786  17.790  0.00  0.00    +0.220 A 
ATOM      9  N   UNL     1       9.039  21.623  18.424  0.00  0.00    -0.283 N 
ATOM     36  H   UNL     1       9.481  21.345  19.300  0.00  0.00    +0.155 HD
ATOM     37  N   UNL     1      10.415  23.522  18.374  0.00  0.00    -0.214 NA
BRANCH   4   3
ATOM      1  C   UNL     1      13.839  25.512  20.231  0.00  0.00    +0.020 A 
ATOM      2  C   UNL     1      12.817  24.766  19.534  0.00  0.00    +0.013 A 
ATOM      3  C   UNL     1      11.945  25.421  18.567  0.00  0.00    +0.019 A 
ATOM     38  C   UNL     1      12.137  26.843  18.324  0.00  0.00    +0.120 A 
ATOM     39  N   UNL     1      13.128  27.536  19.011  0.00  0.00    -0.263 NA
ATOM     40  C   UNL     1      13.972  26.917  19.946  0.00  0.00    +0.111 A 
ENDBRANCH   4   3
ENDBRANCH  10   9
BRANCH  12  13
ATOM     13  N   UNL     1       4.208  20.484  18.082  0.00  0.00    -0.281 N 
ATOM     14  C   UNL     1       3.362  19.618  18.757  0.00  0.00    +0.248 C 
ATOM     30  O   UNL     1       3.609  18.441  18.975  0.00  0.00    -0.270 OA
ATOM     31  H   UNL     1       3.803  21.376  17.798  0.00  0.00    +0.155 HD
BRANCH  14  15
ATOM     15  C   UNL     1       2.047  20.130  19.248  0.00  0.00    +0.037 A 
ATOM     16  C   UNL     1       1.796  21.567  19.391  0.00  0.00    +0.013 A 
ATOM     17  C   UNL     1       0.524  22.033  19.883  0.00  0.00    +0.005 A 
ATOM     18  C   UNL     1      -0.508  21.061  20.234  0.00  0.00    -0.033 A 
ATOM     28  C   UNL     1      -0.235  19.642  20.077  0.00  0.00    +0.005 A 
ATOM     29  C   UNL     1       1.011  19.181  19.596  0.00  0.00    +0.013 A 
BRANCH  18  19
ATOM     19  C   UNL     1      -1.887  21.468  20.786  0.00  0.00    +0.119 C 
BRANCH  19  20
ATOM     20  N   UNL     1      -1.946  21.931  22.205  0.00  0.00    -0.302 NA
ATOM     21  C   UNL     1      -1.619  23.421  22.337  0.00  0.00    +0.066 C 
ATOM     22  C   UNL     1      -1.708  23.893  23.825  0.00  0.00    -0.064 C 
ATOM     23  N   UNL     1      -0.758  23.053  24.681  0.00  0.00    +0.379 N 
ATOM     24  C   UNL     1      -0.796  23.533  26.070  0.00  0.00    -0.096 C 
ATOM     25  H   UNL     1       0.275  23.213  24.296  0.00  0.00    -0.082 HD
ATOM     26  C   UNL     1      -1.074  21.569  24.553  0.00  0.00    -0.064 C 
ATOM     27  C   UNL     1      -1.013  21.117  23.068  0.00  0.00    +0.066 C 
ENDBRANCH  19  20
ENDBRANCH  18  19
ENDBRANCH  14  15
ENDBRANCH  12  13
TORSDOF 6
ENDMDL
MODEL 2
REMARK VINA RESULT:      -7.8      4.135     12.317
REMARK  Name = C:\Users\Docking\Desktop\test protocol\1iep_ligandH.pdb
REMARK  8 active torsions:
REMARK  status: ('A' for Active; 'I' for Inactive)
REMARK    1  A    between atoms: _5  and  _11
REMARK    2  A    between atoms: _19  and  _21
REMARK    3  A    between atoms: _22  and  _66
REMARK    4  A    between atoms: _27  and  _30
REMARK    5  A    between atoms: _32  and  _33
REMARK    6  A    between atoms: _38  and  _43
REMARK    7  A    between atoms: _43  and  _46
REMARK    8  A    between atoms: _53  and  _55
REMARK                            x       y       z     vdW  Elec       q    Type
REMARK                         _______ _______ _______ _____ _____    ______ ____
ROOT
ATOM     10  C   UNL     1       0.812  18.180  21.970  0.00  0.00    +0.038 A 
ATOM     11  C   UNL     1       2.087  18.324  21.367  0.00  0.00    +0.047 A 
ATOM     12  C   UNL     1       2.973  17.183  21.198  0.00  0.00    +0.035 A 
ATOM     32  C   UNL     1       2.527  15.908  21.653  0.00  0.00    +0.024 A 
ATOM     33  C   UNL     1       1.234  15.744  22.269  0.00  0.00    +0.007 A 
ATOM     34  C   UNL     1       0.357  16.866  22.440  0.00  0.00    -0.029 A 
ATOM     35  C   UNL     1      -1.016  16.632  23.113  0.00  0.00    +0.045 C 
ENDROOT
BRANCH  10   9
ATOM      4  C   UNL     1      -0.747  21.999  24.424  0.00  0.00    +0.077 A 
ATOM      5  C   UNL     1       0.105  21.704  25.539  0.00  0.00    +0.048 A 
ATOM      6  C   UNL     1       0.924  20.557  25.445  0.00  0.00    +0.116 A 
ATOM      7  N   UNL     1       0.886  19.770  24.314  0.00  0.00    -0.223 NA
ATOM      8  C   UNL     1       0.051  20.082  23.257  0.00  0.00    +0.220 A 
ATOM      9  N   UNL     1       0.001  19.309  22.106  0.00  0.00    -0.283 N 
ATOM     36  H   UNL     1      -0.633  19.569  21.352  0.00  0.00    +0.155 HD
ATOM     37  N   UNL     1      -0.742  21.172  23.323  0.00  0.00    -0.214 NA
BRANCH   4   3
ATOM      1  C   UNL     1      -2.840  25.148  25.426  0.00  0.00    +0.020 A 
ATOM      2  C   UNL     1      -1.943  24.020  25.530  0.00  0.00    +0.013 A 
ATOM      3  C   UNL     1      -1.668  23.178  24.372  0.00  0.00    +0.019 A 
ATOM     38  C   UNL     1      -2.322  23.508  23.115  0.00  0.00    +0.120 A 
ATOM     39  N   UNL     1      -3.182  24.599  23.045  0.00  0.00    -0.263 NA
ATOM     40  C   UNL     1      -3.456  25.415  24.153  0.00  0.00    +0.111 A 
ENDBRANCH   4   3
ENDBRANCH  10   9
BRANCH  12  13
ATOM     13  N   UNL     1       4.283  17.271  20.601  0.00  0.00    -0.281 N 
ATOM     14  C   UNL     1       4.621  17.128  19.265  0.00  0.00    +0.248 C 
ATOM     30  O   UNL     1       3.871  16.689  18.406  0.00  0.00    -0.270 OA
ATOM     31  H   UNL     1       5.054  17.461  21.240  0.00  0.00    +0.155 HD
BRANCH  14  15
ATOM     15  C   UNL     1       5.995  17.515  18.822  0.00  0.00    +0.037 A 
ATOM     16  C   UNL     1       6.414  18.918  18.785  0.00  0.00    +0.013 A 
ATOM     17  C   UNL     1       7.739  19.265  18.337  0.00  0.00    +0.005 A 
ATOM     18  C   UNL     1       8.657  18.206  17.925  0.00  0.00    -0.033 A 
ATOM     28  C   UNL     1       8.216  16.821  17.977  0.00  0.00    +0.005 A 
ATOM     29  C   UNL     1       6.918  16.477  18.414  0.00  0.00    +0.013 A 
BRANCH  18  19
ATOM     19  C   UNL     1      10.082  18.485  17.413  0.00  0.00    +0.119 C 
BRANCH  19  20
ATOM     20  N   UNL     1      10.239  18.795  15.961  0.00  0.00    -0.302 NA
ATOM     21  C   UNL     1      11.445  18.078  15.348  0.00  0.00    +0.066 C 
ATOM     22  C   UNL     1      11.581  18.396  13.823  0.00  0.00    -0.064 C 
ATOM     23  N   UNL     1      11.694  19.909  13.628  0.00  0.00    +0.379 N 
ATOM     24  C   UNL     1      11.880  20.207  12.200  0.00  0.00    -0.096 C 
ATOM     25  H   UNL     1      12.607  20.252  14.167  0.00  0.00    -0.082 HD
ATOM     26  C   UNL     1      10.500  20.630  14.237  0.00  0.00    -0.064 C 
ATOM     27  C   UNL     1      10.356  20.284  15.746  0.00  0.00    +0.066 C 
ENDBRANCH  19  20
ENDBRANCH  18  19
ENDBRANCH  14  15
ENDBRANCH  12  13
TORSDOF 6
ENDMDL
MODEL 3
REMARK VINA RESULT:      -7.8      1.494      2.004
REMARK  Name = C:\Users\Docking\Desktop\test protocol\1iep_ligandH.pdb
REMARK  8 active torsions:
REMARK  status: ('A' for Active; 'I' for Inactive)
REMARK    1  A    between atoms: _5  and  _11
REMARK    2  A    between atoms: _19  and  _21
REMARK    3  A    between atoms: _22  and  _66
REMARK    4  A    between atoms: _27  and  _30
REMARK    5  A    between atoms: _32  and  _33
REMARK    6  A    between atoms: _38  and  _43
REMARK    7  A    between atoms: _43  and  _46
REMARK    8  A    between atoms: _53  and  _55
REMARK                            x       y       z     vdW  Elec       q    Type
REMARK                         _______ _______ _______ _____ _____    ______ ____
ROOT
ATOM     10  C   UNL     1       8.107  20.913  17.995  0.00  0.00    +0.038 A 
ATOM     11  C   UNL     1       6.805  21.185  18.486  0.00  0.00    +0.047 A 
ATOM     12  C   UNL     1       5.652  20.431  18.019  0.00  0.00    +0.035 A 
ATOM     32  C   UNL     1       5.862  19.405  17.053  0.00  0.00    +0.024 A 
ATOM     33  C   UNL     1       7.179  19.116  16.542  0.00  0.00    +0.007 A 
ATOM     34  C   UNL     1       8.320  19.858  16.997  0.00  0.00    -0.029 A 
ATOM     35  C   UNL     1       9.707  19.510  16.409  0.00  0.00    +0.045 C 
ENDROOT
BRANCH  10   9
ATOM      4  C   UNL     1      11.026  24.719  17.814  0.00  0.00    +0.077 A 
ATOM      5  C   UNL     1      10.378  25.234  16.642  0.00  0.00    +0.048 A 
ATOM      6  C   UNL     1       9.303  24.486  16.113  0.00  0.00    +0.116 A 
ATOM      7  N   UNL     1       8.913  23.312  16.719  0.00  0.00    -0.223 NA
ATOM      8  C   UNL     1       9.560  22.842  17.847  0.00  0.00    +0.220 A 
ATOM      9  N   UNL     1       9.179  21.668  18.478  0.00  0.00    -0.283 N 
ATOM     36  H   UNL     1       9.686  21.352  19.304  0.00  0.00    +0.155 HD
ATOM     37  N   UNL     1      10.590  23.538  18.371  0.00  0.00    -0.214 NA
BRANCH   4   3
ATOM      1  C   UNL     1      13.901  25.577  20.324  0.00  0.00    +0.020 A 
ATOM      2  C   UNL     1      12.793  24.883  19.709  0.00  0.00    +0.013 A 
ATOM      3  C   UNL     1      12.175  25.398  18.493  0.00  0.00    +0.019 A 
ATOM     38  C   UNL     1      12.707  26.625  17.921  0.00  0.00    +0.120 A 
ATOM     39  N   UNL     1      13.774  27.272  18.536  0.00  0.00    -0.263 NA
ATOM     40  C   UNL     1      14.375  26.787  19.708  0.00  0.00    +0.111 A 
ENDBRANCH   4   3
ENDBRANCH  10   9
BRANCH  12  13
ATOM     13  N   UNL     1       4.305  20.668  18.476  0.00  0.00    -0.281 N 
ATOM     14  C   UNL     1       3.326  21.444  17.877  0.00  0.00    +0.248 C 
ATOM     30  O   UNL     1       3.530  22.228  16.962  0.00  0.00    -0.270 OA
ATOM     31  H   UNL     1       4.041  20.207  19.347  0.00  0.00    +0.155 HD
BRANCH  14  15
ATOM     15  C   UNL     1       1.920  21.345  18.374  0.00  0.00    +0.037 A 
ATOM     16  C   UNL     1       1.358  20.065  18.813  0.00  0.00    +0.013 A 
ATOM     17  C   UNL     1      -0.006  19.994  19.273  0.00  0.00    +0.005 A 
ATOM     18  C   UNL     1      -0.818  21.208  19.297  0.00  0.00    -0.033 A 
ATOM     28  C   UNL     1      -0.233  22.466  18.862  0.00  0.00    +0.005 A 
ATOM     29  C   UNL     1       1.103  22.539  18.409  0.00  0.00    +0.013 A 
BRANCH  18  19
ATOM     19  C   UNL     1      -2.289  21.222  19.752  0.00  0.00    +0.119 C 
BRANCH  19  20
ATOM     20  N   UNL     1      -2.752  22.406  20.536  0.00  0.00    -0.302 NA
ATOM     21  C   UNL     1      -2.112  22.460  21.926  0.00  0.00    +0.066 C 
ATOM     22  C   UNL     1      -2.589  23.718  22.724  0.00  0.00    -0.064 C 
ATOM     23  N   UNL     1      -4.115  23.701  22.830  0.00  0.00    +0.379 N 
ATOM     24  C   UNL     1      -4.564  24.851  23.629  0.00  0.00    -0.096 C 
ATOM     25  H   UNL     1      -4.406  22.775  23.377  0.00  0.00    -0.082 HD
ATOM     26  C   UNL     1      -4.759  23.645  21.452  0.00  0.00    -0.064 C 
ATOM     27  C   UNL     1      -4.256  22.408  20.657  0.00  0.00    +0.066 C 
ENDBRANCH  19  20
ENDBRANCH  18  19
ENDBRANCH  14  15
ENDBRANCH  12  13
TORSDOF 6
ENDMDL
MODEL 4
REMARK VINA RESULT:      -7.7      2.358      2.826
REMARK  Name = C:\Users\Docking\Desktop\test protocol\1iep_ligandH.pdb
REMARK  8 active torsions:
REMARK  status: ('A' for Active; 'I' for Inactive)
REMARK    1  A    between atoms: _5  and  _11
REMARK    2  A    between atoms: _19  and  _21
REMARK    3  A    between atoms: _22  and  _66
REMARK    4  A    between atoms: _27  and  _30
REMARK    5  A    between atoms: _32  and  _33
REMARK    6  A    between atoms: _38  and  _43
REMARK    7  A    between atoms: _43  and  _46
REMARK    8  A    between atoms: _53  and  _55
REMARK                            x       y       z     vdW  Elec       q    Type
REMARK                         _______ _______ _______ _____ _____    ______ ____
ROOT
ATOM     10  C   UNL     1       8.656  20.561  17.601  0.00  0.00    +0.038 A 
ATOM     11  C   UNL     1       7.519  20.301  18.408  0.00  0.00    +0.047 A 
ATOM     12  C   UNL     1       6.432  19.461  17.930  0.00  0.00    +0.035 A 
ATOM     32  C   UNL     1       6.538  18.898  16.624  0.00  0.00    +0.024 A 
ATOM     33  C   UNL     1       7.686  19.153  15.790  0.00  0.00    +0.007 A 
ATOM     34  C   UNL     1       8.759  19.983  16.256  0.00  0.00    -0.029 A 
ATOM     35  C   UNL     1       9.963  20.227  15.316  0.00  0.00    +0.045 C 
ENDROOT
BRANCH  10   9
ATOM      4  C   UNL     1      11.057  24.712  17.792  0.00  0.00    +0.077 A 
ATOM      5  C   UNL     1      10.239  25.301  16.771  0.00  0.00    +0.048 A 
ATOM      6  C   UNL     1       9.215  24.499  16.217  0.00  0.00    +0.116 A 
ATOM      7  N   UNL     1       9.033  23.206  16.660  0.00  0.00    -0.223 NA
ATOM      8  C   UNL     1       9.841  22.669  17.645  0.00  0.00    +0.220 A 
ATOM      9  N   UNL     1       9.670  21.375  18.111  0.00  0.00    -0.283 N 
ATOM     36  H   UNL     1      10.291  21.013  18.834  0.00  0.00    +0.155 HD
ATOM     37  N   UNL     1      10.826  23.414  18.189  0.00  0.00    -0.214 NA
BRANCH   4   3
ATOM      1  C   UNL     1      13.875  25.685  20.324  0.00  0.00    +0.020 A 
ATOM      2  C   UNL     1      12.797  24.951  19.704  0.00  0.00    +0.013 A 
ATOM      3  C   UNL     1      12.176  25.434  18.476  0.00  0.00    +0.019 A 
ATOM     38  C   UNL     1      12.675  26.672  17.897  0.00  0.00    +0.120 A 
ATOM     39  N   UNL     1      13.714  27.358  18.518  0.00  0.00    -0.263 NA
ATOM     40  C   UNL     1      14.318  26.904  19.700  0.00  0.00    +0.111 A 
ENDBRANCH   4   3
ENDBRANCH  10   9
BRANCH  12  13
ATOM     13  N   UNL     1       5.250  19.168  18.701  0.00  0.00    -0.281 N 
ATOM     14  C   UNL     1       3.965  19.646  18.505  0.00  0.00    +0.248 C 
ATOM     30  O   UNL     1       3.678  20.571  17.759  0.00  0.00    -0.270 OA
ATOM     31  H   UNL     1       5.375  18.531  19.488  0.00  0.00    +0.155 HD
BRANCH  14  15
ATOM     15  C   UNL     1       2.837  19.016  19.255  0.00  0.00    +0.037 A 
ATOM     16  C   UNL     1       1.473  19.544  19.163  0.00  0.00    +0.013 A 
ATOM     17  C   UNL     1       0.406  18.927  19.911  0.00  0.00    +0.005 A 
ATOM     18  C   UNL     1       0.700  17.772  20.757  0.00  0.00    -0.033 A 
ATOM     28  C   UNL     1       2.060  17.266  20.826  0.00  0.00    +0.005 A 
ATOM     29  C   UNL     1       3.108  17.869  20.095  0.00  0.00    +0.013 A 
BRANCH  18  19
ATOM     19  C   UNL     1      -0.372  17.064  21.606  0.00  0.00    +0.119 C 
BRANCH  19  20
ATOM     20  N   UNL     1      -0.229  17.140  23.091  0.00  0.00    -0.302 NA
ATOM     21  C   UNL     1      -1.423  16.514  23.816  0.00  0.00    +0.066 C 
ATOM     22  C   UNL     1      -1.246  16.582  25.368  0.00  0.00    -0.064 C 
ATOM     23  N   UNL     1      -1.058  18.039  25.794  0.00  0.00    +0.379 N 
ATOM     24  C   UNL     1      -0.949  18.112  27.258  0.00  0.00    -0.096 C 
ATOM     25  H   UNL     1      -1.973  18.600  25.494  0.00  0.00    -0.082 HD
ATOM     26  C   UNL     1       0.126  18.671  25.075  0.00  0.00    -0.064 C 
ATOM     27  C   UNL     1      -0.046  18.571  23.534  0.00  0.00    +0.066 C 
ENDBRANCH  19  20
ENDBRANCH  18  19
ENDBRANCH  14  15
ENDBRANCH  12  13
TORSDOF 6
ENDMDL
MODEL 5
REMARK VINA RESULT:      -7.5      4.237     13.555
REMARK  Name = C:\Users\Docking\Desktop\test protocol\1iep_ligandH.pdb
REMARK  8 active torsions:
REMARK  status: ('A' for Active; 'I' for Inactive)
REMARK    1  A    between atoms: _5  and  _11
REMARK    2  A    between atoms: _19  and  _21
REMARK    3  A    between atoms: _22  and  _66
REMARK    4  A    between atoms: _27  and  _30
REMARK    5  A    between atoms: _32  and  _33
REMARK    6  A    between atoms: _38  and  _43
REMARK    7  A    between atoms: _43  and  _46
REMARK    8  A    between atoms: _53  and  _55
REMARK                            x       y       z     vdW  Elec       q    Type
REMARK                         _______ _______ _______ _____ _____    ______ ____
ROOT
ATOM     10  C   UNL     1       0.009  19.444  20.942  0.00  0.00    +0.038 A 
ATOM     11  C   UNL     1       1.282  19.196  20.366  0.00  0.00    +0.047 A 
ATOM     12  C   UNL     1       2.151  20.290  19.963  0.00  0.00    +0.035 A 
ATOM     32  C   UNL     1       1.694  21.625  20.163  0.00  0.00    +0.024 A 
ATOM     33  C   UNL     1       0.404  21.896  20.745  0.00  0.00    +0.007 A 
ATOM     34  C   UNL     1      -0.460  20.821  21.143  0.00  0.00    -0.029 A 
ATOM     35  C   UNL     1      -1.836  21.169  21.757  0.00  0.00    +0.045 C 
ENDROOT
BRANCH  10   9
ATOM      4  C   UNL     1      -1.284  16.001  24.026  0.00  0.00    +0.077 A 
ATOM      5  C   UNL     1      -0.274  16.386  24.970  0.00  0.00    +0.048 A 
ATOM      6  C   UNL     1       0.562  17.470  24.621  0.00  0.00    +0.116 A 
ATOM      7  N   UNL     1       0.392  18.115  23.415  0.00  0.00    -0.223 NA
ATOM      8  C   UNL     1      -0.591  17.717  22.526  0.00  0.00    +0.220 A 
ATOM      9  N   UNL     1      -0.785  18.356  21.311  0.00  0.00    -0.283 N 
ATOM     36  H   UNL     1      -1.515  18.028  20.680  0.00  0.00    +0.155 HD
ATOM     37  N   UNL     1      -1.401  16.684  22.836  0.00  0.00    -0.214 NA
BRANCH   4   3
ATOM      1  C   UNL     1      -3.004  12.788  25.447  0.00  0.00    +0.020 A 
ATOM      2  C   UNL     1      -2.043  13.852  25.269  0.00  0.00    +0.013 A 
ATOM      3  C   UNL     1      -2.246  14.877  24.252  0.00  0.00    +0.019 A 
ATOM     38  C   UNL     1      -3.442  14.796  23.427  0.00  0.00    +0.120 A 
ATOM     39  N   UNL     1      -4.349  13.758  23.620  0.00  0.00    -0.263 NA
ATOM     40  C   UNL     1      -4.163  12.766  24.594  0.00  0.00    +0.111 A 
ENDBRANCH   4   3
ENDBRANCH  10   9
BRANCH  12  13
ATOM     13  N   UNL     1       3.450  20.099  19.366  0.00  0.00    -0.281 N 
ATOM     14  C   UNL     1       3.812  20.275  18.040  0.00  0.00    +0.248 C 
ATOM     30  O   UNL     1       3.020  20.418  17.121  0.00  0.00    -0.270 OA
ATOM     31  H   UNL     1       4.192  19.798  19.997  0.00  0.00    +0.155 HD
BRANCH  14  15
ATOM     15  C   UNL     1       5.263  20.278  17.682  0.00  0.00    +0.037 A 
ATOM     16  C   UNL     1       5.742  20.917  16.454  0.00  0.00    +0.013 A 
ATOM     17  C   UNL     1       7.145  20.891  16.124  0.00  0.00    +0.005 A 
ATOM     18  C   UNL     1       8.080  20.222  17.026  0.00  0.00    -0.033 A 
ATOM     28  C   UNL     1       7.579  19.600  18.240  0.00  0.00    +0.005 A 
ATOM     29  C   UNL     1       6.204  19.624  18.566  0.00  0.00    +0.013 A 
BRANCH  18  19
ATOM     19  C   UNL     1       9.591  20.127  16.743  0.00  0.00    +0.119 C 
BRANCH  19  20
ATOM     20  N   UNL     1      10.049  19.032  15.837  0.00  0.00    -0.302 NA
ATOM     21  C   UNL     1      10.331  17.735  16.600  0.00  0.00    +0.066 C 
ATOM     22  C   UNL     1      10.788  16.593  15.634  0.00  0.00    -0.064 C 
ATOM     23  N   UNL     1      12.027  17.048  14.862  0.00  0.00    +0.379 N 
ATOM     24  C   UNL     1      12.493  15.956  13.995  0.00  0.00    -0.096 C 
ATOM     25  H   UNL     1      12.831  17.257  15.605  0.00  0.00    -0.082 HD
ATOM     26  C   UNL     1      11.756  18.339  14.102  0.00  0.00    -0.064 C 
ATOM     27  C   UNL     1      11.275  19.458  15.067  0.00  0.00    +0.066 C 
ENDBRANCH  19  20
ENDBRANCH  18  19
ENDBRANCH  14  15
ENDBRANCH  12  13
TORSDOF 6
ENDMDL
