MODEL 1
REMARK VINA RESULT:      -8.2      0.000      0.000
REMARK  Name = C:\Users\Docking\Desktop\test protocol\1iep_ligandH.pdb
REMARK  8 active torsions:
REMARK  status: ('A' for Active; 'I' for Inactive)
REMARK    1  A    between atoms: _5  and  _11
REMARK    2  A    between atoms: _19  and  _21
REMARK    3  A    between atoms: _22  and  _66
REMARK    4  A    between atoms: _27  and  _30
REMARK    5  A    between atoms: _32  and  _33
REMARK    6  A    between atoms: _38  and  _43
REMARK    7  A    between atoms: _43  and  _46
REMARK    8  A    between atoms: _53  and  _55
REMARK                            x       y       z     vdW  Elec       q    Type
REMARK                         _______ _______ _______ _____ _____    ______ ____
ROOT
ATOM     10  C   UNL     1       5.859  19.079 -11.487  0.00  0.00    +0.038 A 
ATOM     11  C   UNL     1       4.727  18.230 -11.583  0.00  0.00    +0.047 A 
ATOM     12  C   UNL     1       4.772  16.858 -11.104  0.00  0.00    +0.035 A 
ATOM     32  C   UNL     1       5.987  16.383 -10.528  0.00  0.00    +0.024 A 
ATOM     33  C   UNL     1       7.147  17.232 -10.423  0.00  0.00    +0.007 A 
ATOM     34  C   UNL     1       7.109  18.586 -10.897  0.00  0.00    -0.029 A 
ATOM     35  C   UNL     1       8.386  19.449 -10.764  0.00  0.00    +0.045 C 
ENDROOT
BRANCH  10   9
ATOM      4  C   UNL     1       5.453  22.266 -15.053  0.00  0.00    +0.077 A 
ATOM      5  C   UNL     1       5.467  21.238 -16.053  0.00  0.00    +0.048 A 
ATOM      6  C   UNL     1       5.587  19.902 -15.608  0.00  0.00    +0.116 A 
ATOM      7  N   UNL     1       5.685  19.627 -14.261  0.00  0.00    -0.223 NA
ATOM      8  C   UNL     1       5.670  20.643 -13.323  0.00  0.00    +0.220 A 
ATOM      9  N   UNL     1       5.759  20.388 -11.963  0.00  0.00    -0.283 N 
ATOM     36  H   UNL     1       5.752  21.166 -11.303  0.00  0.00    +0.155 HD
ATOM     37  N   UNL     1       5.558  21.927 -13.722  0.00  0.00    -0.214 NA
BRANCH   4   3
ATOM      1  C   UNL     1       4.640  26.084 -14.791  0.00  0.00    +0.020 A 
ATOM      2  C   UNL     1       4.737  24.685 -14.441  0.00  0.00    +0.013 A 
ATOM      3  C   UNL     1       5.328  23.725 -15.364  0.00  0.00    +0.019 A 
ATOM     38  C   UNL     1       5.818  24.217 -16.643  0.00  0.00    +0.120 A 
ATOM     39  N   UNL     1       5.711  25.569 -16.954  0.00  0.00    -0.263 NA
ATOM     40  C   UNL     1       5.141  26.502 -16.073  0.00  0.00    +0.111 A 
ENDBRANCH   4   3
ENDBRANCH  10   9
BRANCH  12  13
ATOM     13  N   UNL     1       3.657  15.947 -11.183  0.00  0.00    -0.281 N 
ATOM     14  C   UNL     1       2.694  15.864 -12.175  0.00  0.00    +0.248 C 
ATOM     30  O   UNL     1       2.521  16.707 -13.043  0.00  0.00    -0.270 OA
ATOM     31  H   UNL     1       3.567  15.283 -10.414  0.00  0.00    +0.155 HD
BRANCH  14  15
ATOM     15  C   UNL     1       1.780  14.681 -12.197  0.00  0.00    +0.037 A 
ATOM     16  C   UNL     1       0.365  14.807 -11.838  0.00  0.00    +0.013 A 
ATOM     17  C   UNL     1      -0.490  13.646 -11.852  0.00  0.00    +0.005 A 
ATOM     18  C   UNL     1       0.068  12.350 -12.228  0.00  0.00    -0.033 A 
ATOM     28  C   UNL     1       1.474  12.255 -12.585  0.00  0.00    +0.005 A 
ATOM     29  C   UNL     1       2.316  13.390 -12.572  0.00  0.00    +0.013 A 
BRANCH  18  19
ATOM     19  C   UNL     1      -0.765  11.055 -12.250  0.00  0.00    +0.119 C 
BRANCH  19  20
ATOM     20  N   UNL     1      -0.638  10.180 -13.454  0.00  0.00    -0.302 NA
ATOM     21  C   UNL     1      -1.021  10.914 -14.741  0.00  0.00    +0.066 C 
ATOM     22  C   UNL     1      -0.860   9.991 -15.993  0.00  0.00    -0.064 C 
ATOM     23  N   UNL     1      -1.715   8.736 -15.810  0.00  0.00    +0.379 N 
ATOM     24  C   UNL     1      -1.611   7.893 -17.010  0.00  0.00    -0.096 C 
ATOM     25  H   UNL     1      -2.777   9.061 -15.716  0.00  0.00    -0.082 HD
ATOM     26  C   UNL     1      -1.342   8.001 -14.530  0.00  0.00    -0.064 C 
ATOM     27  C   UNL     1      -1.477   8.936 -13.296  0.00  0.00    +0.066 C 
ENDBRANCH  19  20
ENDBRANCH  18  19
ENDBRANCH  14  15
ENDBRANCH  12  13
TORSDOF 6
ENDMDL
MODEL 2
REMARK VINA RESULT:      -8.1     30.385     34.707
REMARK  Name = C:\Users\Docking\Desktop\test protocol\1iep_ligandH.pdb
REMARK  8 active torsions:
REMARK  status: ('A' for Active; 'I' for Inactive)
REMARK    1  A    between atoms: _5  and  _11
REMARK    2  A    between atoms: _19  and  _21
REMARK    3  A    between atoms: _22  and  _66
REMARK    4  A    between atoms: _27  and  _30
REMARK    5  A    between atoms: _32  and  _33
REMARK    6  A    between atoms: _38  and  _43
REMARK    7  A    between atoms: _43  and  _46
REMARK    8  A    between atoms: _53  and  _55
REMARK                            x       y       z     vdW  Elec       q    Type
REMARK                         _______ _______ _______ _____ _____    ______ ____
ROOT
ATOM     10  C   UNL     1     -19.673  16.380   8.328  0.00  0.00    +0.038 A 
ATOM     11  C   UNL     1     -20.693  17.361   8.234  0.00  0.00    +0.047 A 
ATOM     12  C   UNL     1     -20.843  18.390   9.251  0.00  0.00    +0.035 A 
ATOM     32  C   UNL     1     -19.935  18.392  10.349  0.00  0.00    +0.024 A 
ATOM     33  C   UNL     1     -18.893  17.402  10.461  0.00  0.00    +0.007 A 
ATOM     34  C   UNL     1     -18.741  16.383   9.463  0.00  0.00    -0.029 A 
ATOM     35  C   UNL     1     -17.610  15.343   9.638  0.00  0.00    +0.045 C 
ENDROOT
BRANCH  10   9
ATOM      4  C   UNL     1     -20.877  12.163   6.376  0.00  0.00    +0.077 A 
ATOM      5  C   UNL     1     -21.757  11.844   7.464  0.00  0.00    +0.048 A 
ATOM      6  C   UNL     1     -21.865  12.789   8.509  0.00  0.00    +0.116 A 
ATOM      7  N   UNL     1     -21.144  13.962   8.460  0.00  0.00    -0.223 NA
ATOM      8  C   UNL     1     -20.303  14.238   7.397  0.00  0.00    +0.220 A 
ATOM      9  N   UNL     1     -19.574  15.415   7.323  0.00  0.00    -0.283 N 
ATOM     36  H   UNL     1     -18.959  15.578   6.526  0.00  0.00    +0.155 HD
ATOM     37  N   UNL     1     -20.181  13.351   6.388  0.00  0.00    -0.214 NA
BRANCH   4   3
ATOM      1  C   UNL     1     -20.042  10.859   2.785  0.00  0.00    +0.020 A 
ATOM      2  C   UNL     1     -20.240  11.766   3.892  0.00  0.00    +0.013 A 
ATOM      3  C   UNL     1     -20.658  11.268   5.196  0.00  0.00    +0.019 A 
ATOM     38  C   UNL     1     -20.868   9.837   5.349  0.00  0.00    +0.120 A 
ATOM     39  N   UNL     1     -20.671   8.987   4.265  0.00  0.00    -0.263 NA
ATOM     40  C   UNL     1     -20.270   9.455   3.004  0.00  0.00    +0.111 A 
ENDBRANCH   4   3
ENDBRANCH  10   9
BRANCH  12  13
ATOM     13  N   UNL     1     -21.864  19.407   9.213  0.00  0.00    -0.281 N 
ATOM     14  C   UNL     1     -21.710  20.760   8.955  0.00  0.00    +0.248 C 
ATOM     30  O   UNL     1     -20.635  21.340   8.929  0.00  0.00    -0.270 OA
ATOM     31  H   UNL     1     -22.817  19.092   9.398  0.00  0.00    +0.155 HD
BRANCH  14  15
ATOM     15  C   UNL     1     -22.928  21.590   8.705  0.00  0.00    +0.037 A 
ATOM     16  C   UNL     1     -23.926  21.194   7.709  0.00  0.00    +0.013 A 
ATOM     17  C   UNL     1     -25.083  22.023   7.476  0.00  0.00    +0.005 A 
ATOM     18  C   UNL     1     -25.247  23.255   8.242  0.00  0.00    -0.033 A 
ATOM     28  C   UNL     1     -24.244  23.622   9.228  0.00  0.00    +0.005 A 
ATOM     29  C   UNL     1     -23.108  22.813   9.459  0.00  0.00    +0.013 A 
BRANCH  18  19
ATOM     19  C   UNL     1     -26.439  24.211   8.044  0.00  0.00    +0.119 C 
BRANCH  19  20
ATOM     20  N   UNL     1     -26.219  25.409   7.181  0.00  0.00    -0.302 NA
ATOM     21  C   UNL     1     -25.122  25.173   6.139  0.00  0.00    +0.066 C 
ATOM     22  C   UNL     1     -24.920  26.429   5.231  0.00  0.00    -0.064 C 
ATOM     23  N   UNL     1     -24.585  27.639   6.105  0.00  0.00    +0.379 N 
ATOM     24  C   UNL     1     -24.338  28.809   5.249  0.00  0.00    -0.096 C 
ATOM     25  H   UNL     1     -23.639  27.411   6.649  0.00  0.00    -0.082 HD
ATOM     26  C   UNL     1     -25.669  27.879   7.146  0.00  0.00    -0.064 C 
ATOM     27  C   UNL     1     -25.882  26.615   8.024  0.00  0.00    +0.066 C 
ENDBRANCH  19  20
ENDBRANCH  18  19
ENDBRANCH  14  15
ENDBRANCH  12  13
TORSDOF 6
ENDMDL
MODEL 3
REMARK VINA RESULT:      -8.0      2.412     11.812
REMARK  Name = C:\Users\Docking\Desktop\test protocol\1iep_ligandH.pdb
REMARK  8 active torsions:
REMARK  status: ('A' for Active; 'I' for Inactive)
REMARK    1  A    between atoms: _5  and  _11
REMARK    2  A    between atoms: _19  and  _21
REMARK    3  A    between atoms: _22  and  _66
REMARK    4  A    between atoms: _27  and  _30
REMARK    5  A    between atoms: _32  and  _33
REMARK    6  A    between atoms: _38  and  _43
REMARK    7  A    between atoms: _43  and  _46
REMARK    8  A    between atoms: _53  and  _55
REMARK                            x       y       z     vdW  Elec       q    Type
REMARK                         _______ _______ _______ _____ _____    ______ ____
ROOT
ATOM     10  C   UNL     1       5.232  17.080 -12.679  0.00  0.00    +0.038 A 
ATOM     11  C   UNL     1       5.078  18.398 -13.180  0.00  0.00    +0.047 A 
ATOM     12  C   UNL     1       5.780  19.520 -12.575  0.00  0.00    +0.035 A 
ATOM     32  C   UNL     1       6.633  19.262 -11.462  0.00  0.00    +0.024 A 
ATOM     33  C   UNL     1       6.800  17.929 -10.940  0.00  0.00    +0.007 A 
ATOM     34  C   UNL     1       6.108  16.819 -11.531  0.00  0.00    -0.029 A 
ATOM     35  C   UNL     1       6.320  15.412 -10.925  0.00  0.00    +0.045 C 
ENDROOT
BRANCH  10   9
ATOM      4  C   UNL     1       1.354  14.297 -13.184  0.00  0.00    +0.077 A 
ATOM      5  C   UNL     1       0.671  14.952 -12.106  0.00  0.00    +0.048 A 
ATOM      6  C   UNL     1       1.355  15.995 -11.442  0.00  0.00    +0.116 A 
ATOM      7  N   UNL     1       2.627  16.349 -11.837  0.00  0.00    -0.223 NA
ATOM      8  C   UNL     1       3.258  15.696 -12.880  0.00  0.00    +0.220 A 
ATOM      9  N   UNL     1       4.534  16.041 -13.298  0.00  0.00    -0.283 N 
ATOM     36  H   UNL     1       4.968  15.530 -14.067  0.00  0.00    +0.155 HD
ATOM     37  N   UNL     1       2.626  14.696 -13.528  0.00  0.00    -0.214 NA
BRANCH   4   3
ATOM      1  C   UNL     1      -1.148  11.667 -14.641  0.00  0.00    +0.020 A 
ATOM      2  C   UNL     1      -0.625  12.752 -13.844  0.00  0.00    +0.013 A 
ATOM      3  C   UNL     1       0.762  13.179 -13.985  0.00  0.00    +0.019 A 
ATOM     38  C   UNL     1       1.599  12.483 -14.950  0.00  0.00    +0.120 A 
ATOM     39  N   UNL     1       1.068  11.440 -15.703  0.00  0.00    -0.263 NA
ATOM     40  C   UNL     1      -0.264  11.019 -15.575  0.00  0.00    +0.111 A 
ENDBRANCH   4   3
ENDBRANCH  10   9
BRANCH  12  13
ATOM     13  N   UNL     1       5.657  20.881 -13.035  0.00  0.00    -0.281 N 
ATOM     14  C   UNL     1       6.138  21.428 -14.213  0.00  0.00    +0.248 C 
ATOM     30  O   UNL     1       6.936  20.877 -14.956  0.00  0.00    -0.270 OA
ATOM     31  H   UNL     1       5.154  21.518 -12.417  0.00  0.00    +0.155 HD
BRANCH  14  15
ATOM     15  C   UNL     1       5.676  22.791 -14.617  0.00  0.00    +0.037 A 
ATOM     16  C   UNL     1       4.256  23.151 -14.591  0.00  0.00    +0.013 A 
ATOM     17  C   UNL     1       3.835  24.467 -15.003  0.00  0.00    +0.005 A 
ATOM     18  C   UNL     1       4.838  25.434 -15.442  0.00  0.00    -0.033 A 
ATOM     28  C   UNL     1       6.241  25.052 -15.453  0.00  0.00    +0.005 A 
ATOM     29  C   UNL     1       6.656  23.763 -15.052  0.00  0.00    +0.013 A 
BRANCH  18  19
ATOM     19  C   UNL     1       4.478  26.854 -15.919  0.00  0.00    +0.119 C 
BRANCH  19  20
ATOM     20  N   UNL     1       3.797  26.979 -17.242  0.00  0.00    -0.302 NA
ATOM     21  C   UNL     1       2.294  26.707 -17.142  0.00  0.00    +0.066 C 
ATOM     22  C   UNL     1       1.594  26.864 -18.531  0.00  0.00    -0.064 C 
ATOM     23  N   UNL     1       2.250  25.920 -19.540  0.00  0.00    +0.379 N 
ATOM     24  C   UNL     1       1.556  26.023 -20.832  0.00  0.00    -0.096 C 
ATOM     25  H   UNL     1       2.114  24.879 -19.165  0.00  0.00    -0.082 HD
ATOM     26  C   UNL     1       3.745  26.182 -19.643  0.00  0.00    -0.064 C 
ATOM     27  C   UNL     1       4.427  26.052 -18.252  0.00  0.00    +0.066 C 
ENDBRANCH  19  20
ENDBRANCH  18  19
ENDBRANCH  14  15
ENDBRANCH  12  13
TORSDOF 6
ENDMDL
MODEL 4
REMARK VINA RESULT:      -7.9      2.277     11.707
REMARK  Name = C:\Users\Docking\Desktop\test protocol\1iep_ligandH.pdb
REMARK  8 active torsions:
REMARK  status: ('A' for Active; 'I' for Inactive)
REMARK    1  A    between atoms: _5  and  _11
REMARK    2  A    between atoms: _19  and  _21
REMARK    3  A    between atoms: _22  and  _66
REMARK    4  A    between atoms: _27  and  _30
REMARK    5  A    between atoms: _32  and  _33
REMARK    6  A    between atoms: _38  and  _43
REMARK    7  A    between atoms: _43  and  _46
REMARK    8  A    between atoms: _53  and  _55
REMARK                            x       y       z     vdW  Elec       q    Type
REMARK                         _______ _______ _______ _____ _____    ______ ____
ROOT
ATOM     10  C   UNL     1       4.772  17.384 -11.337  0.00  0.00    +0.038 A 
ATOM     11  C   UNL     1       4.658  18.623 -12.017  0.00  0.00    +0.047 A 
ATOM     12  C   UNL     1       5.762  19.570 -12.045  0.00  0.00    +0.035 A 
ATOM     32  C   UNL     1       6.968  19.222 -11.372  0.00  0.00    +0.024 A 
ATOM     33  C   UNL     1       7.101  17.967 -10.674  0.00  0.00    +0.007 A 
ATOM     34  C   UNL     1       6.015  17.030 -10.641  0.00  0.00    -0.029 A 
ATOM     35  C   UNL     1       6.211  15.702  -9.872  0.00  0.00    +0.045 C 
ENDROOT
BRANCH  10   9
ATOM      4  C   UNL     1       2.272  13.743 -13.217  0.00  0.00    +0.077 A 
ATOM      5  C   UNL     1       3.204  13.582 -14.295  0.00  0.00    +0.048 A 
ATOM      6  C   UNL     1       4.310  14.461 -14.334  0.00  0.00    +0.116 A 
ATOM      7  N   UNL     1       4.462  15.425 -13.361  0.00  0.00    -0.223 NA
ATOM      8  C   UNL     1       3.544  15.555 -12.335  0.00  0.00    +0.220 A 
ATOM      9  N   UNL     1       3.681  16.512 -11.342  0.00  0.00    -0.283 N 
ATOM     36  H   UNL     1       2.978  16.580 -10.606  0.00  0.00    +0.155 HD
ATOM     37  N   UNL     1       2.478  14.728 -12.277  0.00  0.00    -0.214 NA
BRANCH   4   3
ATOM      1  C   UNL     1      -0.132  10.846 -12.154  0.00  0.00    +0.020 A 
ATOM      2  C   UNL     1       1.071  11.633 -12.299  0.00  0.00    +0.013 A 
ATOM      3  C   UNL     1       1.055  12.889 -13.037  0.00  0.00    +0.019 A 
ATOM     38  C   UNL     1      -0.204  13.325 -13.621  0.00  0.00    +0.120 A 
ATOM     39  N   UNL     1      -1.346  12.546 -13.467  0.00  0.00    -0.263 NA
ATOM     40  C   UNL     1      -1.343  11.334 -12.760  0.00  0.00    +0.111 A 
ENDBRANCH   4   3
ENDBRANCH  10   9
BRANCH  12  13
ATOM     13  N   UNL     1       5.701  20.847 -12.713  0.00  0.00    -0.281 N 
ATOM     14  C   UNL     1       5.779  21.101 -14.072  0.00  0.00    +0.248 C 
ATOM     30  O   UNL     1       6.129  20.283 -14.910  0.00  0.00    -0.270 OA
ATOM     31  H   UNL     1       5.587  21.662 -12.110  0.00  0.00    +0.155 HD
BRANCH  14  15
ATOM     15  C   UNL     1       5.433  22.466 -14.572  0.00  0.00    +0.037 A 
ATOM     16  C   UNL     1       4.040  22.861 -14.800  0.00  0.00    +0.013 A 
ATOM     17  C   UNL     1       3.734  24.179 -15.299  0.00  0.00    +0.005 A 
ATOM     18  C   UNL     1       4.825  25.112 -15.573  0.00  0.00    -0.033 A 
ATOM     28  C   UNL     1       6.197  24.696 -15.333  0.00  0.00    +0.005 A 
ATOM     29  C   UNL     1       6.500  23.405 -14.845  0.00  0.00    +0.013 A 
BRANCH  18  19
ATOM     19  C   UNL     1       4.593  26.530 -16.127  0.00  0.00    +0.119 C 
BRANCH  19  20
ATOM     20  N   UNL     1       3.960  26.643 -17.475  0.00  0.00    -0.302 NA
ATOM     21  C   UNL     1       2.436  26.769 -17.386  0.00  0.00    +0.066 C 
ATOM     22  C   UNL     1       1.793  26.908 -18.804  0.00  0.00    -0.064 C 
ATOM     23  N   UNL     1       2.187  25.704 -19.660  0.00  0.00    +0.379 N 
ATOM     24  C   UNL     1       1.537  25.803 -20.975  0.00  0.00    -0.096 C 
ATOM     25  H   UNL     1       1.797  24.789 -19.157  0.00  0.00    -0.082 HD
ATOM     26  C   UNL     1       3.701  25.569 -19.752  0.00  0.00    -0.064 C 
ATOM     27  C   UNL     1       4.333  25.461 -18.336  0.00  0.00    +0.066 C 
ENDBRANCH  19  20
ENDBRANCH  18  19
ENDBRANCH  14  15
ENDBRANCH  12  13
TORSDOF 6
ENDMDL
MODEL 5
REMARK VINA RESULT:      -7.8      2.173      3.219
REMARK  Name = C:\Users\Docking\Desktop\test protocol\1iep_ligandH.pdb
REMARK  8 active torsions:
REMARK  status: ('A' for Active; 'I' for Inactive)
REMARK    1  A    between atoms: _5  and  _11
REMARK    2  A    between atoms: _19  and  _21
REMARK    3  A    between atoms: _22  and  _66
REMARK    4  A    between atoms: _27  and  _30
REMARK    5  A    between atoms: _32  and  _33
REMARK    6  A    between atoms: _38  and  _43
REMARK    7  A    between atoms: _43  and  _46
REMARK    8  A    between atoms: _53  and  _55
REMARK                            x       y       z     vdW  Elec       q    Type
REMARK                         _______ _______ _______ _____ _____    ______ ____
ROOT
ATOM     10  C   UNL     1       5.443  19.968 -15.848  0.00  0.00    +0.038 A 
ATOM     11  C   UNL     1       4.521  19.013 -15.350  0.00  0.00    +0.047 A 
ATOM     12  C   UNL     1       4.967  17.875 -14.561  0.00  0.00    +0.035 A 
ATOM     32  C   UNL     1       6.361  17.743 -14.295  0.00  0.00    +0.024 A 
ATOM     33  C   UNL     1       7.313  18.704 -14.794  0.00  0.00    +0.007 A 
ATOM     34  C   UNL     1       6.879  19.827 -15.575  0.00  0.00    -0.029 A 
ATOM     35  C   UNL     1       7.944  20.823 -16.090  0.00  0.00    +0.045 C 
ENDROOT
BRANCH  10   9
ATOM      4  C   UNL     1       4.059  24.542 -16.293  0.00  0.00    +0.077 A 
ATOM      5  C   UNL     1       4.294  24.811 -14.904  0.00  0.00    +0.048 A 
ATOM      6  C   UNL     1       4.765  23.742 -14.107  0.00  0.00    +0.116 A 
ATOM      7  N   UNL     1       4.981  22.503 -14.669  0.00  0.00    -0.223 NA
ATOM      8  C   UNL     1       4.742  22.277 -16.012  0.00  0.00    +0.220 A 
ATOM      9  N   UNL     1       4.959  21.041 -16.600  0.00  0.00    -0.283 N 
ATOM     36  H   UNL     1       4.764  20.913 -17.593  0.00  0.00    +0.155 HD
ATOM     37  N   UNL     1       4.291  23.281 -16.794  0.00  0.00    -0.214 NA
BRANCH   4   3
ATOM      1  C   UNL     1       1.783  27.097 -18.189  0.00  0.00    +0.020 A 
ATOM      2  C   UNL     1       2.210  26.107 -17.228  0.00  0.00    +0.013 A 
ATOM      3  C   UNL     1       3.564  25.569 -17.264  0.00  0.00    +0.019 A 
ATOM     38  C   UNL     1       4.469  26.059 -18.293  0.00  0.00    +0.120 A 
ATOM     39  N   UNL     1       4.029  27.012 -19.206  0.00  0.00    -0.263 NA
ATOM     40  C   UNL     1       2.728  27.536 -19.182  0.00  0.00    +0.111 A 
ENDBRANCH   4   3
ENDBRANCH  10   9
BRANCH  12  13
ATOM     13  N   UNL     1       4.078  16.869 -14.035  0.00  0.00    -0.281 N 
ATOM     14  C   UNL     1       3.412  16.872 -12.821  0.00  0.00    +0.248 C 
ATOM     30  O   UNL     1       3.649  17.644 -11.904  0.00  0.00    -0.270 OA
ATOM     31  H   UNL     1       3.920  16.057 -14.632  0.00  0.00    +0.155 HD
BRANCH  14  15
ATOM     15  C   UNL     1       2.337  15.860 -12.585  0.00  0.00    +0.037 A 
ATOM     16  C   UNL     1       1.351  16.034 -11.515  0.00  0.00    +0.013 A 
ATOM     17  C   UNL     1       0.336  15.035 -11.298  0.00  0.00    +0.005 A 
ATOM     18  C   UNL     1       0.300  13.852 -12.154  0.00  0.00    -0.033 A 
ATOM     28  C   UNL     1       1.287  13.707 -13.212  0.00  0.00    +0.005 A 
ATOM     29  C   UNL     1       2.285  14.684 -13.427  0.00  0.00    +0.013 A 
BRANCH  18  19
ATOM     19  C   UNL     1      -0.736  12.725 -11.981  0.00  0.00    +0.119 C 
BRANCH  19  20
ATOM     20  N   UNL     1      -0.627  11.551 -12.897  0.00  0.00    -0.302 NA
ATOM     21  C   UNL     1      -2.001  11.009 -13.301  0.00  0.00    +0.066 C 
ATOM     22  C   UNL     1      -1.870   9.794 -14.277  0.00  0.00    -0.064 C 
ATOM     23  N   UNL     1      -1.029   8.701 -13.616  0.00  0.00    +0.379 N 
ATOM     24  C   UNL     1      -0.952   7.535 -14.508  0.00  0.00    -0.096 C 
ATOM     25  H   UNL     1      -1.559   8.383 -12.688  0.00  0.00    -0.082 HD
ATOM     26  C   UNL     1       0.338   9.232 -13.208  0.00  0.00    -0.064 C 
ATOM     27  C   UNL     1       0.195  10.457 -12.262  0.00  0.00    +0.066 C 
ENDBRANCH  19  20
ENDBRANCH  18  19
ENDBRANCH  14  15
ENDBRANCH  12  13
TORSDOF 6
ENDMDL
