MODEL 1
REMARK VINA RESULT:      -9.8      0.000      0.000
REMARK  Name = C:\Users\Docking\Desktop\test protocol\1iep_ligandH.pdb
REMARK  8 active torsions:
REMARK  status: ('A' for Active; 'I' for Inactive)
REMARK    1  A    between atoms: _5  and  _11
REMARK    2  A    between atoms: _19  and  _21
REMARK    3  A    between atoms: _22  and  _66
REMARK    4  A    between atoms: _27  and  _30
REMARK    5  A    between atoms: _32  and  _33
REMARK    6  A    between atoms: _38  and  _43
REMARK    7  A    between atoms: _43  and  _46
REMARK    8  A    between atoms: _53  and  _55
REMARK                            x       y       z     vdW  Elec       q    Type
REMARK                         _______ _______ _______ _____ _____    ______ ____
ROOT
ATOM     10  C   UNL     1      93.147  44.782   7.773  0.00  0.00    +0.038 A 
ATOM     11  C   UNL     1      92.151  43.998   7.136  0.00  0.00    +0.047 A 
ATOM     12  C   UNL     1      92.464  42.691   6.580  0.00  0.00    +0.035 A 
ATOM     32  C   UNL     1      93.802  42.211   6.694  0.00  0.00    +0.024 A 
ATOM     33  C   UNL     1      94.826  42.995   7.338  0.00  0.00    +0.007 A 
ATOM     34  C   UNL     1      94.524  44.287   7.886  0.00  0.00    -0.029 A 
ATOM     35  C   UNL     1      95.663  45.086   8.559  0.00  0.00    +0.045 C 
ENDROOT
BRANCH  10   9
ATOM      4  C   UNL     1      92.420  49.504   7.309  0.00  0.00    +0.077 A 
ATOM      5  C   UNL     1      92.809  49.487   5.928  0.00  0.00    +0.048 A 
ATOM      6  C   UNL     1      93.196  48.245   5.377  0.00  0.00    +0.116 A 
ATOM      7  N   UNL     1      93.190  47.110   6.158  0.00  0.00    -0.223 NA
ATOM      8  C   UNL     1      92.811  47.161   7.487  0.00  0.00    +0.220 A 
ATOM      9  N   UNL     1      92.790  46.030   8.289  0.00  0.00    -0.283 N 
ATOM     36  H   UNL     1      92.512  46.111   9.267  0.00  0.00    +0.155 HD
ATOM     37  N   UNL     1      92.439  48.335   8.037  0.00  0.00    -0.214 NA
BRANCH   4   3
ATOM      1  C   UNL     1      90.439  52.706   8.368  0.00  0.00    +0.020 A 
ATOM      2  C   UNL     1      90.819  51.521   7.634  0.00  0.00    +0.013 A 
ATOM      3  C   UNL     1      91.983  50.739   8.033  0.00  0.00    +0.019 A 
ATOM     38  C   UNL     1      92.745  51.186   9.189  0.00  0.00    +0.120 A 
ATOM     39  N   UNL     1      92.356  52.332   9.875  0.00  0.00    -0.263 NA
ATOM     40  C   UNL     1      91.240  53.093   9.499  0.00  0.00    +0.111 A 
ENDBRANCH   4   3
ENDBRANCH  10   9
BRANCH  12  13
ATOM     13  N   UNL     1      91.497  41.854   5.914  0.00  0.00    -0.281 N 
ATOM     14  C   UNL     1      91.449  41.509   4.573  0.00  0.00    +0.248 C 
ATOM     30  O   UNL     1      92.112  42.045   3.698  0.00  0.00    -0.270 OA
ATOM     31  H   UNL     1      90.759  41.468   6.503  0.00  0.00    +0.155 HD
BRANCH  14  15
ATOM     15  C   UNL     1      90.519  40.422   4.141  0.00  0.00    +0.037 A 
ATOM     16  C   UNL     1      89.951  39.478   5.107  0.00  0.00    +0.013 A 
ATOM     17  C   UNL     1      89.070  38.428   4.660  0.00  0.00    +0.005 A 
ATOM     18  C   UNL     1      88.750  38.318   3.239  0.00  0.00    -0.033 A 
ATOM     28  C   UNL     1      89.323  39.271   2.303  0.00  0.00    +0.005 A 
ATOM     29  C   UNL     1      90.188  40.301   2.737  0.00  0.00    +0.013 A 
BRANCH  18  19
ATOM     19  C   UNL     1      87.836  37.217   2.670  0.00  0.00    +0.119 C 
BRANCH  19  20
ATOM     20  N   UNL     1      88.473  35.910   2.327  0.00  0.00    -0.302 NA
ATOM     21  C   UNL     1      88.285  35.549   0.851  0.00  0.00    +0.066 C 
ATOM     22  C   UNL     1      88.976  34.190   0.505  0.00  0.00    -0.064 C 
ATOM     23  N   UNL     1      88.413  33.091   1.407  0.00  0.00    +0.379 N 
ATOM     24  C   UNL     1      89.018  31.801   1.044  0.00  0.00    -0.096 C 
ATOM     25  H   UNL     1      87.318  33.018   1.208  0.00  0.00    -0.082 HD
ATOM     26  C   UNL     1      88.592  33.442   2.877  0.00  0.00    -0.064 C 
ATOM     27  C   UNL     1      87.927  34.809   3.203  0.00  0.00    +0.066 C 
ENDBRANCH  19  20
ENDBRANCH  18  19
ENDBRANCH  14  15
ENDBRANCH  12  13
TORSDOF 6
ENDMDL
MODEL 2
REMARK VINA RESULT:      -9.6      3.716     12.983
REMARK  Name = C:\Users\Docking\Desktop\test protocol\1iep_ligandH.pdb
REMARK  8 active torsions:
REMARK  status: ('A' for Active; 'I' for Inactive)
REMARK    1  A    between atoms: _5  and  _11
REMARK    2  A    between atoms: _19  and  _21
REMARK    3  A    between atoms: _22  and  _66
REMARK    4  A    between atoms: _27  and  _30
REMARK    5  A    between atoms: _32  and  _33
REMARK    6  A    between atoms: _38  and  _43
REMARK    7  A    between atoms: _43  and  _46
REMARK    8  A    between atoms: _53  and  _55
REMARK                            x       y       z     vdW  Elec       q    Type
REMARK                         _______ _______ _______ _____ _____    ______ ____
ROOT
ATOM     10  C   UNL     1      93.541  44.690   6.152  0.00  0.00    +0.038 A 
ATOM     11  C   UNL     1      92.895  45.953   6.136  0.00  0.00    +0.047 A 
ATOM     12  C   UNL     1      92.959  46.844   7.283  0.00  0.00    +0.035 A 
ATOM     32  C   UNL     1      93.691  46.419   8.430  0.00  0.00    +0.024 A 
ATOM     33  C   UNL     1      94.353  45.139   8.463  0.00  0.00    +0.007 A 
ATOM     34  C   UNL     1      94.292  44.254   7.335  0.00  0.00    -0.029 A 
ATOM     35  C   UNL     1      95.015  42.890   7.430  0.00  0.00    +0.045 C 
ENDROOT
BRANCH  10   9
ATOM      4  C   UNL     1      91.359  41.298   3.549  0.00  0.00    +0.077 A 
ATOM      5  C   UNL     1      90.333  41.118   4.535  0.00  0.00    +0.048 A 
ATOM      6  C   UNL     1      90.407  41.913   5.701  0.00  0.00    +0.116 A 
ATOM      7  N   UNL     1      91.435  42.817   5.858  0.00  0.00    -0.223 NA
ATOM      8  C   UNL     1      92.410  42.965   4.889  0.00  0.00    +0.220 A 
ATOM      9  N   UNL     1      93.448  43.874   5.022  0.00  0.00    -0.283 N 
ATOM     36  H   UNL     1      94.151  43.947   4.288  0.00  0.00    +0.155 HD
ATOM     37  N   UNL     1      92.362  42.216   3.767  0.00  0.00    -0.214 NA
BRANCH   4   3
ATOM      1  C   UNL     1      90.674  38.671   0.734  0.00  0.00    +0.020 A 
ATOM      2  C   UNL     1      90.579  39.373   1.993  0.00  0.00    +0.013 A 
ATOM      3  C   UNL     1      91.417  40.535   2.263  0.00  0.00    +0.019 A 
ATOM     38  C   UNL     1      92.346  40.965   1.228  0.00  0.00    +0.120 A 
ATOM     39  N   UNL     1      92.415  40.268   0.026  0.00  0.00    -0.263 NA
ATOM     40  C   UNL     1      91.616  39.148  -0.244  0.00  0.00    +0.111 A 
ENDBRANCH   4   3
ENDBRANCH  10   9
BRANCH  12  13
ATOM     13  N   UNL     1      92.316  48.135   7.328  0.00  0.00    -0.281 N 
ATOM     14  C   UNL     1      92.859  49.368   7.005  0.00  0.00    +0.248 C 
ATOM     30  O   UNL     1      94.051  49.574   6.832  0.00  0.00    -0.270 OA
ATOM     31  H   UNL     1      91.343  48.139   7.635  0.00  0.00    +0.155 HD
BRANCH  14  15
ATOM     15  C   UNL     1      91.947  50.544   6.870  0.00  0.00    +0.037 A 
ATOM     16  C   UNL     1      90.507  50.370   6.666  0.00  0.00    +0.013 A 
ATOM     17  C   UNL     1      89.652  51.522   6.521  0.00  0.00    +0.005 A 
ATOM     18  C   UNL     1      90.237  52.860   6.581  0.00  0.00    -0.033 A 
ATOM     28  C   UNL     1      91.668  53.004   6.789  0.00  0.00    +0.005 A 
ATOM     29  C   UNL     1      92.509  51.877   6.930  0.00  0.00    +0.013 A 
BRANCH  18  19
ATOM     19  C   UNL     1      89.404  54.145   6.415  0.00  0.00    +0.119 C 
BRANCH  19  20
ATOM     20  N   UNL     1      88.345  54.142   5.362  0.00  0.00    -0.302 NA
ATOM     21  C   UNL     1      88.934  54.273   3.955  0.00  0.00    +0.066 C 
ATOM     22  C   UNL     1      87.813  54.246   2.864  0.00  0.00    -0.064 C 
ATOM     23  N   UNL     1      86.811  55.368   3.139  0.00  0.00    +0.379 N 
ATOM     24  C   UNL     1      85.788  55.382   2.083  0.00  0.00    -0.096 C 
ATOM     25  H   UNL     1      87.363  56.335   3.088  0.00  0.00    -0.082 HD
ATOM     26  C   UNL     1      86.223  55.247   4.538  0.00  0.00    -0.064 C 
ATOM     27  C   UNL     1      87.346  55.245   5.612  0.00  0.00    +0.066 C 
ENDBRANCH  19  20
ENDBRANCH  18  19
ENDBRANCH  14  15
ENDBRANCH  12  13
TORSDOF 6
ENDMDL
MODEL 3
REMARK VINA RESULT:      -9.4      5.073      6.649
REMARK  Name = C:\Users\Docking\Desktop\test protocol\1iep_ligandH.pdb
REMARK  8 active torsions:
REMARK  status: ('A' for Active; 'I' for Inactive)
REMARK    1  A    between atoms: _5  and  _11
REMARK    2  A    between atoms: _19  and  _21
REMARK    3  A    between atoms: _22  and  _66
REMARK    4  A    between atoms: _27  and  _30
REMARK    5  A    between atoms: _32  and  _33
REMARK    6  A    between atoms: _38  and  _43
REMARK    7  A    between atoms: _43  and  _46
REMARK    8  A    between atoms: _53  and  _55
REMARK                            x       y       z     vdW  Elec       q    Type
REMARK                         _______ _______ _______ _____ _____    ______ ____
ROOT
ATOM     10  C   UNL     1      90.193  43.448   8.826  0.00  0.00    +0.038 A 
ATOM     11  C   UNL     1      89.926  42.464   7.840  0.00  0.00    +0.047 A 
ATOM     12  C   UNL     1      90.885  42.177   6.784  0.00  0.00    +0.035 A 
ATOM     32  C   UNL     1      92.108  42.909   6.766  0.00  0.00    +0.024 A 
ATOM     33  C   UNL     1      92.396  43.913   7.760  0.00  0.00    +0.007 A 
ATOM     34  C   UNL     1      91.452  44.203   8.802  0.00  0.00    -0.029 A 
ATOM     35  C   UNL     1      91.810  45.294   9.837  0.00  0.00    +0.045 C 
ENDROOT
BRANCH  10   9
ATOM      4  C   UNL     1      87.464  42.006  12.501  0.00  0.00    +0.077 A 
ATOM      5  C   UNL     1      87.966  40.665  12.425  0.00  0.00    +0.048 A 
ATOM      6  C   UNL     1      88.920  40.385  11.421  0.00  0.00    +0.116 A 
ATOM      7  N   UNL     1      89.334  41.381  10.563  0.00  0.00    -0.223 NA
ATOM      8  C   UNL     1      88.829  42.664  10.663  0.00  0.00    +0.220 A 
ATOM      9  N   UNL     1      89.237  43.683   9.816  0.00  0.00    -0.283 N 
ATOM     36  H   UNL     1      88.834  44.615   9.918  0.00  0.00    +0.155 HD
ATOM     37  N   UNL     1      87.915  42.956  11.613  0.00  0.00    -0.214 NA
BRANCH   4   3
ATOM      1  C   UNL     1      85.768  43.117  15.847  0.00  0.00    +0.020 A 
ATOM      2  C   UNL     1      86.780  42.680  14.913  0.00  0.00    +0.013 A 
ATOM      3  C   UNL     1      86.454  42.458  13.510  0.00  0.00    +0.019 A 
ATOM     38  C   UNL     1      85.083  42.689  13.081  0.00  0.00    +0.120 A 
ATOM     39  N   UNL     1      84.129  43.108  14.002  0.00  0.00    -0.263 NA
ATOM     40  C   UNL     1      84.431  43.324  15.355  0.00  0.00    +0.111 A 
ENDBRANCH   4   3
ENDBRANCH  10   9
BRANCH  12  13
ATOM     13  N   UNL     1      90.666  41.196   5.751  0.00  0.00    -0.281 N 
ATOM     14  C   UNL     1      90.808  39.820   5.839  0.00  0.00    +0.248 C 
ATOM     30  O   UNL     1      91.355  39.240   6.765  0.00  0.00    -0.270 OA
ATOM     31  H   UNL     1      90.370  41.559   4.845  0.00  0.00    +0.155 HD
BRANCH  14  15
ATOM     15  C   UNL     1      90.279  38.968   4.732  0.00  0.00    +0.037 A 
ATOM     16  C   UNL     1      89.784  39.560   3.486  0.00  0.00    +0.013 A 
ATOM     17  C   UNL     1      89.263  38.716   2.441  0.00  0.00    +0.005 A 
ATOM     18  C   UNL     1      89.236  37.268   2.636  0.00  0.00    -0.033 A 
ATOM     28  C   UNL     1      89.738  36.707   3.879  0.00  0.00    +0.005 A 
ATOM     29  C   UNL     1      90.248  37.531   4.906  0.00  0.00    +0.013 A 
BRANCH  18  19
ATOM     19  C   UNL     1      88.678  36.293   1.582  0.00  0.00    +0.119 C 
BRANCH  19  20
ATOM     20  N   UNL     1      88.796  34.833   1.873  0.00  0.00    -0.302 NA
ATOM     21  C   UNL     1      89.175  34.028   0.627  0.00  0.00    +0.066 C 
ATOM     22  C   UNL     1      89.316  32.505   0.954  0.00  0.00    -0.064 C 
ATOM     23  N   UNL     1      88.005  31.992   1.552  0.00  0.00    +0.379 N 
ATOM     24  C   UNL     1      88.114  30.548   1.806  0.00  0.00    -0.096 C 
ATOM     25  H   UNL     1      87.204  32.141   0.790  0.00  0.00    -0.082 HD
ATOM     26  C   UNL     1      87.619  32.788   2.790  0.00  0.00    -0.064 C 
ATOM     27  C   UNL     1      87.510  34.304   2.461  0.00  0.00    +0.066 C 
ENDBRANCH  19  20
ENDBRANCH  18  19
ENDBRANCH  14  15
ENDBRANCH  12  13
TORSDOF 6
ENDMDL
MODEL 4
REMARK VINA RESULT:      -9.4      5.363     12.775
REMARK  Name = C:\Users\Docking\Desktop\test protocol\1iep_ligandH.pdb
REMARK  8 active torsions:
REMARK  status: ('A' for Active; 'I' for Inactive)
REMARK    1  A    between atoms: _5  and  _11
REMARK    2  A    between atoms: _19  and  _21
REMARK    3  A    between atoms: _22  and  _66
REMARK    4  A    between atoms: _27  and  _30
REMARK    5  A    between atoms: _32  and  _33
REMARK    6  A    between atoms: _38  and  _43
REMARK    7  A    between atoms: _43  and  _46
REMARK    8  A    between atoms: _53  and  _55
REMARK                            x       y       z     vdW  Elec       q    Type
REMARK                         _______ _______ _______ _____ _____    ______ ____
ROOT
ATOM     10  C   UNL     1      91.040  43.746   6.438  0.00  0.00    +0.038 A 
ATOM     11  C   UNL     1      90.814  45.145   6.382  0.00  0.00    +0.047 A 
ATOM     12  C   UNL     1      91.641  46.008   5.552  0.00  0.00    +0.035 A 
ATOM     32  C   UNL     1      92.687  45.411   4.790  0.00  0.00    +0.024 A 
ATOM     33  C   UNL     1      92.931  43.991   4.836  0.00  0.00    +0.007 A 
ATOM     34  C   UNL     1      92.121  43.135   5.655  0.00  0.00    -0.029 A 
ATOM     35  C   UNL     1      92.432  41.621   5.671  0.00  0.00    +0.045 C 
ENDROOT
BRANCH  10   9
ATOM      4  C   UNL     1      89.191  42.579  10.711  0.00  0.00    +0.077 A 
ATOM      5  C   UNL     1      89.951  43.593  11.383  0.00  0.00    +0.048 A 
ATOM      6  C   UNL     1      90.811  44.389  10.594  0.00  0.00    +0.116 A 
ATOM      7  N   UNL     1      90.897  44.178   9.235  0.00  0.00    -0.223 NA
ATOM      8  C   UNL     1      90.151  43.190   8.618  0.00  0.00    +0.220 A 
ATOM      9  N   UNL     1      90.216  42.965   7.252  0.00  0.00    -0.283 N 
ATOM     36  H   UNL     1      89.656  42.221   6.836  0.00  0.00    +0.155 HD
ATOM     37  N   UNL     1      89.324  42.415   9.350  0.00  0.00    -0.214 NA
BRANCH   4   3
ATOM      1  C   UNL     1      87.612  39.438  12.427  0.00  0.00    +0.020 A 
ATOM      2  C   UNL     1      88.571  40.284  11.754  0.00  0.00    +0.013 A 
ATOM      3  C   UNL     1      88.236  41.659  11.407  0.00  0.00    +0.019 A 
ATOM     38  C   UNL     1      86.913  42.152  11.758  0.00  0.00    +0.120 A 
ATOM     39  N   UNL     1      86.010  41.314  12.405  0.00  0.00    -0.263 NA
ATOM     40  C   UNL     1      86.320  39.988  12.742  0.00  0.00    +0.111 A 
ENDBRANCH   4   3
ENDBRANCH  10   9
BRANCH  12  13
ATOM     13  N   UNL     1      91.464  47.436   5.461  0.00  0.00    -0.281 N 
ATOM     14  C   UNL     1      90.472  48.130   4.788  0.00  0.00    +0.248 C 
ATOM     30  O   UNL     1      89.703  47.629   3.981  0.00  0.00    -0.270 OA
ATOM     31  H   UNL     1      92.154  48.004   5.952  0.00  0.00    +0.155 HD
BRANCH  14  15
ATOM     15  C   UNL     1      90.320  49.596   5.038  0.00  0.00    +0.037 A 
ATOM     16  C   UNL     1      90.361  50.144   6.396  0.00  0.00    +0.013 A 
ATOM     17  C   UNL     1      90.195  51.560   6.610  0.00  0.00    +0.005 A 
ATOM     18  C   UNL     1      89.988  52.438   5.461  0.00  0.00    -0.033 A 
ATOM     28  C   UNL     1      89.958  51.869   4.124  0.00  0.00    +0.005 A 
ATOM     29  C   UNL     1      90.119  50.481   3.911  0.00  0.00    +0.013 A 
BRANCH  18  19
ATOM     19  C   UNL     1      89.781  53.958   5.597  0.00  0.00    +0.119 C 
BRANCH  19  20
ATOM     20  N   UNL     1      88.452  54.506   5.192  0.00  0.00    -0.302 NA
ATOM     21  C   UNL     1      88.586  55.640   4.171  0.00  0.00    +0.066 C 
ATOM     22  C   UNL     1      87.185  56.186   3.741  0.00  0.00    -0.064 C 
ATOM     23  N   UNL     1      86.424  56.660   4.980  0.00  0.00    +0.379 N 
ATOM     24  C   UNL     1      85.130  57.228   4.573  0.00  0.00    -0.096 C 
ATOM     25  H   UNL     1      87.019  57.477   5.451  0.00  0.00    -0.082 HD
ATOM     26  C   UNL     1      86.289  55.540   6.002  0.00  0.00    -0.064 C 
ATOM     27  C   UNL     1      87.685  54.984   6.400  0.00  0.00    +0.066 C 
ENDBRANCH  19  20
ENDBRANCH  18  19
ENDBRANCH  14  15
ENDBRANCH  12  13
TORSDOF 6
ENDMDL
MODEL 5
REMARK VINA RESULT:      -9.3      7.114     11.195
REMARK  Name = C:\Users\Docking\Desktop\test protocol\1iep_ligandH.pdb
REMARK  8 active torsions:
REMARK  status: ('A' for Active; 'I' for Inactive)
REMARK    1  A    between atoms: _5  and  _11
REMARK    2  A    between atoms: _19  and  _21
REMARK    3  A    between atoms: _22  and  _66
REMARK    4  A    between atoms: _27  and  _30
REMARK    5  A    between atoms: _32  and  _33
REMARK    6  A    between atoms: _38  and  _43
REMARK    7  A    between atoms: _43  and  _46
REMARK    8  A    between atoms: _53  and  _55
REMARK                            x       y       z     vdW  Elec       q    Type
REMARK                         _______ _______ _______ _____ _____    ______ ____
ROOT
ATOM     10  C   UNL     1      91.313  44.282   7.233  0.00  0.00    +0.038 A 
ATOM     11  C   UNL     1      90.167  43.827   7.934  0.00  0.00    +0.047 A 
ATOM     12  C   UNL     1      90.065  43.962   9.378  0.00  0.00    +0.035 A 
ATOM     32  C   UNL     1      91.149  44.568  10.078  0.00  0.00    +0.024 A 
ATOM     33  C   UNL     1      92.322  45.035   9.382  0.00  0.00    +0.007 A 
ATOM     34  C   UNL     1      92.429  44.902   7.957  0.00  0.00    -0.029 A 
ATOM     35  C   UNL     1      93.713  45.414   7.264  0.00  0.00    +0.045 C 
ENDROOT
BRANCH  10   9
ATOM      4  C   UNL     1      90.722  41.679   3.244  0.00  0.00    +0.077 A 
ATOM      5  C   UNL     1      90.315  40.522   3.988  0.00  0.00    +0.048 A 
ATOM      6  C   UNL     1      90.279  40.636   5.396  0.00  0.00    +0.116 A 
ATOM      7  N   UNL     1      90.624  41.823   6.003  0.00  0.00    -0.223 NA
ATOM      8  C   UNL     1      91.013  42.920   5.256  0.00  0.00    +0.220 A 
ATOM      9  N   UNL     1      91.357  44.127   5.846  0.00  0.00    -0.283 N 
ATOM     36  H   UNL     1      91.646  44.910   5.260  0.00  0.00    +0.155 HD
ATOM     37  N   UNL     1      91.058  42.836   3.910  0.00  0.00    -0.214 NA
BRANCH   4   3
ATOM      1  C   UNL     1      90.358  42.787  -0.490  0.00  0.00    +0.020 A 
ATOM      2  C   UNL     1      90.248  42.799   0.951  0.00  0.00    +0.013 A 
ATOM      3  C   UNL     1      90.808  41.716   1.749  0.00  0.00    +0.019 A 
ATOM     38  C   UNL     1      91.479  40.629   1.054  0.00  0.00    +0.120 A 
ATOM     39  N   UNL     1      91.569  40.644  -0.334  0.00  0.00    -0.263 NA
ATOM     40  C   UNL     1      91.033  41.679  -1.113  0.00  0.00    +0.111 A 
ENDBRANCH   4   3
ENDBRANCH  10   9
BRANCH  12  13
ATOM     13  N   UNL     1      88.929  43.512  10.145  0.00  0.00    -0.281 N 
ATOM     14  C   UNL     1      88.609  42.215  10.510  0.00  0.00    +0.248 C 
ATOM     30  O   UNL     1      89.140  41.216  10.049  0.00  0.00    -0.270 OA
ATOM     31  H   UNL     1      88.283  44.238  10.455  0.00  0.00    +0.155 HD
BRANCH  14  15
ATOM     15  C   UNL     1      87.533  41.996  11.524  0.00  0.00    +0.037 A 
ATOM     16  C   UNL     1      87.691  41.014  12.600  0.00  0.00    +0.013 A 
ATOM     17  C   UNL     1      86.630  40.809  13.554  0.00  0.00    +0.005 A 
ATOM     18  C   UNL     1      85.401  41.591  13.438  0.00  0.00    -0.033 A 
ATOM     28  C   UNL     1      85.273  42.562  12.364  0.00  0.00    +0.005 A 
ATOM     29  C   UNL     1      86.310  42.764  11.426  0.00  0.00    +0.013 A 
BRANCH  18  19
ATOM     19  C   UNL     1      84.210  41.424  14.399  0.00  0.00    +0.119 C 
BRANCH  19  20
ATOM     20  N   UNL     1      84.442  41.747  15.838  0.00  0.00    -0.302 NA
ATOM     21  C   UNL     1      85.395  42.933  16.015  0.00  0.00    +0.066 C 
ATOM     22  C   UNL     1      85.609  43.271  17.526  0.00  0.00    -0.064 C 
ATOM     23  N   UNL     1      86.143  42.035  18.252  0.00  0.00    +0.379 N 
ATOM     24  C   UNL     1      86.400  42.366  19.661  0.00  0.00    -0.096 C 
ATOM     25  H   UNL     1      87.118  41.764  17.784  0.00  0.00    -0.082 HD
ATOM     26  C   UNL     1      85.203  40.850  18.079  0.00  0.00    -0.064 C 
ATOM     27  C   UNL     1      84.973  40.541  16.573  0.00  0.00    +0.066 C 
ENDBRANCH  19  20
ENDBRANCH  18  19
ENDBRANCH  14  15
ENDBRANCH  12  13
TORSDOF 6
ENDMDL
