MODEL 1
REMARK VINA RESULT:      -7.8      0.000      0.000
REMARK  Name = C:\Users\Docking\Desktop\test protocol\1iep_ligandH.pdb
REMARK  8 active torsions:
REMARK  status: ('A' for Active; 'I' for Inactive)
REMARK    1  A    between atoms: _5  and  _11
REMARK    2  A    between atoms: _19  and  _21
REMARK    3  A    between atoms: _22  and  _66
REMARK    4  A    between atoms: _27  and  _30
REMARK    5  A    between atoms: _32  and  _33
REMARK    6  A    between atoms: _38  and  _43
REMARK    7  A    between atoms: _43  and  _46
REMARK    8  A    between atoms: _53  and  _55
REMARK                            x       y       z     vdW  Elec       q    Type
REMARK                         _______ _______ _______ _____ _____    ______ ____
ROOT
ATOM     10  C   UNL     1       0.677  50.519  62.201  0.00  0.00    +0.038 A 
ATOM     11  C   UNL     1       1.831  51.238  62.606  0.00  0.00    +0.047 A 
ATOM     12  C   UNL     1       1.722  52.555  63.212  0.00  0.00    +0.035 A 
ATOM     32  C   UNL     1       0.422  53.110  63.395  0.00  0.00    +0.024 A 
ATOM     33  C   UNL     1      -0.761  52.393  62.989  0.00  0.00    +0.007 A 
ATOM     34  C   UNL     1      -0.660  51.094  62.387  0.00  0.00    -0.029 A 
ATOM     35  C   UNL     1      -1.962  50.374  61.965  0.00  0.00    +0.045 C 
ENDROOT
BRANCH  10   9
ATOM      4  C   UNL     1       1.578  47.666  58.448  0.00  0.00    +0.077 A 
ATOM      5  C   UNL     1       1.709  48.781  57.556  0.00  0.00    +0.048 A 
ATOM      6  C   UNL     1       1.530  50.073  58.101  0.00  0.00    +0.116 A 
ATOM      7  N   UNL     1       1.243  50.225  59.440  0.00  0.00    -0.223 NA
ATOM      8  C   UNL     1       1.121  49.127  60.273  0.00  0.00    +0.220 A 
ATOM      9  N   UNL     1       0.840  49.257  61.624  0.00  0.00    -0.283 N 
ATOM     36  H   UNL     1       0.751  48.423  62.203  0.00  0.00    +0.155 HD
ATOM     37  N   UNL     1       1.286  47.884  59.776  0.00  0.00    -0.214 NA
BRANCH   4   3
ATOM      1  C   UNL     1       1.579  44.379  56.326  0.00  0.00    +0.020 A 
ATOM      2  C   UNL     1       1.401  45.767  56.686  0.00  0.00    +0.013 A 
ATOM      3  C   UNL     1       1.742  46.239  58.023  0.00  0.00    +0.019 A 
ATOM     38  C   UNL     1       2.264  45.274  58.978  0.00  0.00    +0.120 A 
ATOM     39  N   UNL     1       2.423  43.944  58.603  0.00  0.00    -0.263 NA
ATOM     40  C   UNL     1       2.098  43.478  57.321  0.00  0.00    +0.111 A 
ENDBRANCH   4   3
ENDBRANCH  10   9
BRANCH  12  13
ATOM     13  N   UNL     1       2.859  53.336  63.635  0.00  0.00    -0.281 N 
ATOM     14  C   UNL     1       3.641  53.158  64.765  0.00  0.00    +0.248 C 
ATOM     30  O   UNL     1       3.349  52.427  65.700  0.00  0.00    -0.270 OA
ATOM     31  H   UNL     1       3.118  54.113  63.028  0.00  0.00    +0.155 HD
BRANCH  14  15
ATOM     15  C   UNL     1       4.926  53.913  64.879  0.00  0.00    +0.037 A 
ATOM     16  C   UNL     1       5.319  54.558  66.134  0.00  0.00    +0.013 A 
ATOM     17  C   UNL     1       6.556  55.295  66.213  0.00  0.00    +0.005 A 
ATOM     18  C   UNL     1       7.409  55.389  65.031  0.00  0.00    -0.033 A 
ATOM     28  C   UNL     1       6.997  54.735  63.800  0.00  0.00    +0.005 A 
ATOM     29  C   UNL     1       5.785  54.013  63.719  0.00  0.00    +0.013 A 
BRANCH  18  19
ATOM     19  C   UNL     1       8.736  56.171  65.017  0.00  0.00    +0.119 C 
BRANCH  19  20
ATOM     20  N   UNL     1       9.999  55.375  64.981  0.00  0.00    -0.302 NA
ATOM     21  C   UNL     1      10.077  54.368  66.131  0.00  0.00    +0.066 C 
ATOM     22  C   UNL     1      11.394  53.528  66.065  0.00  0.00    -0.064 C 
ATOM     23  N   UNL     1      12.598  54.472  66.088  0.00  0.00    +0.379 N 
ATOM     24  C   UNL     1      13.839  53.683  66.084  0.00  0.00    -0.096 C 
ATOM     25  H   UNL     1      12.562  55.041  67.046  0.00  0.00    -0.082 HD
ATOM     26  C   UNL     1      12.527  55.478  64.949  0.00  0.00    -0.064 C 
ATOM     27  C   UNL     1      11.201  56.287  65.007  0.00  0.00    +0.066 C 
ENDBRANCH  19  20
ENDBRANCH  18  19
ENDBRANCH  14  15
ENDBRANCH  12  13
TORSDOF 6
ENDMDL
MODEL 2
REMARK VINA RESULT:      -7.6      4.788     12.623
REMARK  Name = C:\Users\Docking\Desktop\test protocol\1iep_ligandH.pdb
REMARK  8 active torsions:
REMARK  status: ('A' for Active; 'I' for Inactive)
REMARK    1  A    between atoms: _5  and  _11
REMARK    2  A    between atoms: _19  and  _21
REMARK    3  A    between atoms: _22  and  _66
REMARK    4  A    between atoms: _27  and  _30
REMARK    5  A    between atoms: _32  and  _33
REMARK    6  A    between atoms: _38  and  _43
REMARK    7  A    between atoms: _43  and  _46
REMARK    8  A    between atoms: _53  and  _55
REMARK                            x       y       z     vdW  Elec       q    Type
REMARK                         _______ _______ _______ _____ _____    ______ ____
ROOT
ATOM     10  C   UNL     1       1.735  52.053  63.007  0.00  0.00    +0.038 A 
ATOM     11  C   UNL     1       1.685  50.747  62.456  0.00  0.00    +0.047 A 
ATOM     12  C   UNL     1       1.055  50.498  61.169  0.00  0.00    +0.035 A 
ATOM     32  C   UNL     1       0.488  51.602  60.469  0.00  0.00    +0.024 A 
ATOM     33  C   UNL     1       0.529  52.936  61.015  0.00  0.00    +0.007 A 
ATOM     34  C   UNL     1       1.147  53.188  62.285  0.00  0.00    -0.029 A 
ATOM     35  C   UNL     1       1.156  54.637  62.825  0.00  0.00    +0.045 C 
ENDROOT
BRANCH  10   9
ATOM      4  C   UNL     1       1.672  52.058  67.807  0.00  0.00    +0.077 A 
ATOM      5  C   UNL     1       0.286  51.692  67.848  0.00  0.00    +0.048 A 
ATOM      6  C   UNL     1      -0.377  51.519  66.612  0.00  0.00    +0.116 A 
ATOM      7  N   UNL     1       0.307  51.701  65.429  0.00  0.00    -0.223 NA
ATOM      8  C   UNL     1       1.643  52.055  65.425  0.00  0.00    +0.220 A 
ATOM      9  N   UNL     1       2.352  52.236  64.247  0.00  0.00    -0.283 N 
ATOM     36  H   UNL     1       3.335  52.504  64.286  0.00  0.00    +0.155 HD
ATOM     37  N   UNL     1       2.298  52.228  66.592  0.00  0.00    -0.214 NA
BRANCH   4   3
ATOM      1  C   UNL     1       2.862  52.277  71.527  0.00  0.00    +0.020 A 
ATOM      2  C   UNL     1       2.011  52.054  70.380  0.00  0.00    +0.013 A 
ATOM      3  C   UNL     1       2.510  52.274  69.029  0.00  0.00    +0.019 A 
ATOM     38  C   UNL     1       3.886  52.721  68.870  0.00  0.00    +0.120 A 
ATOM     39  N   UNL     1       4.681  52.929  69.993  0.00  0.00    -0.263 NA
ATOM     40  C   UNL     1       4.211  52.722  71.298  0.00  0.00    +0.111 A 
ENDBRANCH   4   3
ENDBRANCH  10   9
BRANCH  12  13
ATOM     13  N   UNL     1       0.967  49.192  60.563  0.00  0.00    -0.281 N 
ATOM     14  C   UNL     1       1.435  48.796  59.321  0.00  0.00    +0.248 C 
ATOM     30  O   UNL     1       1.815  49.564  58.449  0.00  0.00    -0.270 OA
ATOM     31  H   UNL     1       0.502  48.473  61.117  0.00  0.00    +0.155 HD
BRANCH  14  15
ATOM     15  C   UNL     1       1.474  47.338  58.995  0.00  0.00    +0.037 A 
ATOM     16  C   UNL     1       1.031  46.331  59.962  0.00  0.00    +0.013 A 
ATOM     17  C   UNL     1       1.095  44.930  59.629  0.00  0.00    +0.005 A 
ATOM     18  C   UNL     1       1.604  44.529  58.320  0.00  0.00    -0.033 A 
ATOM     28  C   UNL     1       2.033  45.549  57.377  0.00  0.00    +0.005 A 
ATOM     29  C   UNL     1       1.972  46.923  57.701  0.00  0.00    +0.013 A 
BRANCH  18  19
ATOM     19  C   UNL     1       1.728  43.056  57.887  0.00  0.00    +0.119 C 
BRANCH  19  20
ATOM     20  N   UNL     1       0.673  42.112  58.364  0.00  0.00    -0.302 NA
ATOM     21  C   UNL     1       1.141  41.290  59.568  0.00  0.00    +0.066 C 
ATOM     22  C   UNL     1       0.018  40.324  60.068  0.00  0.00    -0.064 C 
ATOM     23  N   UNL     1      -0.411  39.408  58.921  0.00  0.00    +0.379 N 
ATOM     24  C   UNL     1      -1.426  38.460  59.404  0.00  0.00    -0.096 C 
ATOM     25  H   UNL     1       0.481  38.818  58.608  0.00  0.00    -0.082 HD
ATOM     26  C   UNL     1      -0.875  40.217  57.718  0.00  0.00    -0.064 C 
ATOM     27  C   UNL     1       0.238  41.195  57.248  0.00  0.00    +0.066 C 
ENDBRANCH  19  20
ENDBRANCH  18  19
ENDBRANCH  14  15
ENDBRANCH  12  13
TORSDOF 6
ENDMDL
MODEL 3
REMARK VINA RESULT:      -7.4      1.964      2.462
REMARK  Name = C:\Users\Docking\Desktop\test protocol\1iep_ligandH.pdb
REMARK  8 active torsions:
REMARK  status: ('A' for Active; 'I' for Inactive)
REMARK    1  A    between atoms: _5  and  _11
REMARK    2  A    between atoms: _19  and  _21
REMARK    3  A    between atoms: _22  and  _66
REMARK    4  A    between atoms: _27  and  _30
REMARK    5  A    between atoms: _32  and  _33
REMARK    6  A    between atoms: _38  and  _43
REMARK    7  A    between atoms: _43  and  _46
REMARK    8  A    between atoms: _53  and  _55
REMARK                            x       y       z     vdW  Elec       q    Type
REMARK                         _______ _______ _______ _____ _____    ______ ____
ROOT
ATOM     10  C   UNL     1       0.534  49.775  62.314  0.00  0.00    +0.038 A 
ATOM     11  C   UNL     1       1.766  50.382  62.668  0.00  0.00    +0.047 A 
ATOM     12  C   UNL     1       1.818  51.479  63.622  0.00  0.00    +0.035 A 
ATOM     32  C   UNL     1       0.595  51.930  64.199  0.00  0.00    +0.024 A 
ATOM     33  C   UNL     1      -0.666  51.326  63.850  0.00  0.00    +0.007 A 
ATOM     34  C   UNL     1      -0.724  50.246  62.907  0.00  0.00    -0.029 A 
ATOM     35  C   UNL     1      -2.105  49.639  62.565  0.00  0.00    +0.045 C 
ENDROOT
BRANCH  10   9
ATOM      4  C   UNL     1       1.239  48.023  57.901  0.00  0.00    +0.077 A 
ATOM      5  C   UNL     1       1.594  49.312  57.382  0.00  0.00    +0.048 A 
ATOM      6  C   UNL     1       1.576  50.402  58.282  0.00  0.00    +0.116 A 
ATOM      7  N   UNL     1       1.228  50.205  59.600  0.00  0.00    -0.223 NA
ATOM      8  C   UNL     1       0.888  48.948  60.068  0.00  0.00    +0.220 A 
ATOM      9  N   UNL     1       0.542  48.726  61.392  0.00  0.00    -0.283 N 
ATOM     36  H   UNL     1       0.291  47.786  61.696  0.00  0.00    +0.155 HD
ATOM     37  N   UNL     1       0.896  47.892  59.229  0.00  0.00    -0.214 NA
BRANCH   4   3
ATOM      1  C   UNL     1       2.036  44.461  56.494  0.00  0.00    +0.020 A 
ATOM      2  C   UNL     1       2.101  45.645  57.321  0.00  0.00    +0.013 A 
ATOM      3  C   UNL     1       1.214  46.774  57.076  0.00  0.00    +0.019 A 
ATOM     38  C   UNL     1       0.264  46.674  55.978  0.00  0.00    +0.120 A 
ATOM     39  N   UNL     1       0.225  45.522  55.198  0.00  0.00    -0.263 NA
ATOM     40  C   UNL     1       1.075  44.430  55.423  0.00  0.00    +0.111 A 
ENDBRANCH   4   3
ENDBRANCH  10   9
BRANCH  12  13
ATOM     13  N   UNL     1       3.038  52.139  64.014  0.00  0.00    -0.281 N 
ATOM     14  C   UNL     1       3.443  53.429  63.713  0.00  0.00    +0.248 C 
ATOM     30  O   UNL     1       2.910  54.143  62.876  0.00  0.00    -0.270 OA
ATOM     31  H   UNL     1       3.681  51.589  64.583  0.00  0.00    +0.155 HD
BRANCH  14  15
ATOM     15  C   UNL     1       4.619  54.004  64.434  0.00  0.00    +0.037 A 
ATOM     16  C   UNL     1       5.855  54.341  63.724  0.00  0.00    +0.013 A 
ATOM     17  C   UNL     1       6.981  54.879  64.447  0.00  0.00    +0.005 A 
ATOM     18  C   UNL     1       6.874  55.083  65.890  0.00  0.00    -0.033 A 
ATOM     28  C   UNL     1       5.633  54.745  66.568  0.00  0.00    +0.005 A 
ATOM     29  C   UNL     1       4.529  54.217  65.863  0.00  0.00    +0.013 A 
BRANCH  18  19
ATOM     19  C   UNL     1       8.031  55.632  66.745  0.00  0.00    +0.119 C 
BRANCH  19  20
ATOM     20  N   UNL     1       8.567  54.745  67.820  0.00  0.00    -0.302 NA
ATOM     21  C   UNL     1       8.836  55.512  69.118  0.00  0.00    +0.066 C 
ATOM     22  C   UNL     1       9.375  54.565  70.238  0.00  0.00    -0.064 C 
ATOM     23  N   UNL     1      10.646  53.870  69.747  0.00  0.00    +0.379 N 
ATOM     24  C   UNL     1      11.188  53.022  70.819  0.00  0.00    -0.096 C 
ATOM     25  H   UNL     1      11.400  54.661  69.527  0.00  0.00    -0.082 HD
ATOM     26  C   UNL     1      10.388  53.107  68.455  0.00  0.00    -0.064 C 
ATOM     27  C   UNL     1       9.825  54.052  67.357  0.00  0.00    +0.066 C 
ENDBRANCH  19  20
ENDBRANCH  18  19
ENDBRANCH  14  15
ENDBRANCH  12  13
TORSDOF 6
ENDMDL
MODEL 4
REMARK VINA RESULT:      -7.4      8.623     10.946
REMARK  Name = C:\Users\Docking\Desktop\test protocol\1iep_ligandH.pdb
REMARK  8 active torsions:
REMARK  status: ('A' for Active; 'I' for Inactive)
REMARK    1  A    between atoms: _5  and  _11
REMARK    2  A    between atoms: _19  and  _21
REMARK    3  A    between atoms: _22  and  _66
REMARK    4  A    between atoms: _27  and  _30
REMARK    5  A    between atoms: _32  and  _33
REMARK    6  A    between atoms: _38  and  _43
REMARK    7  A    between atoms: _43  and  _46
REMARK    8  A    between atoms: _53  and  _55
REMARK                            x       y       z     vdW  Elec       q    Type
REMARK                         _______ _______ _______ _____ _____    ______ ____
ROOT
ATOM     10  C   UNL     1       1.226  44.107  59.893  0.00  0.00    +0.038 A 
ATOM     11  C   UNL     1       1.208  45.398  59.305  0.00  0.00    +0.047 A 
ATOM     12  C   UNL     1       1.662  45.608  57.939  0.00  0.00    +0.035 A 
ATOM     32  C   UNL     1       2.126  44.481  57.200  0.00  0.00    +0.024 A 
ATOM     33  C   UNL     1       2.153  43.163  57.783  0.00  0.00    +0.007 A 
ATOM     34  C   UNL     1       1.708  42.949  59.131  0.00  0.00    -0.029 A 
ATOM     35  C   UNL     1       1.765  41.515  59.707  0.00  0.00    +0.045 C 
ENDROOT
BRANCH  10   9
ATOM      4  C   UNL     1      -2.178  43.079  63.117  0.00  0.00    +0.077 A 
ATOM      5  C   UNL     1      -3.155  42.835  62.095  0.00  0.00    +0.048 A 
ATOM      6  C   UNL     1      -2.743  42.992  60.753  0.00  0.00    +0.116 A 
ATOM      7  N   UNL     1      -1.448  43.365  60.465  0.00  0.00    -0.223 NA
ATOM      8  C   UNL     1      -0.531  43.594  61.475  0.00  0.00    +0.220 A 
ATOM      9  N   UNL     1       0.779  43.963  61.208  0.00  0.00    -0.283 N 
ATOM     36  H   UNL     1       1.423  44.130  61.981  0.00  0.00    +0.155 HD
ATOM     37  N   UNL     1      -0.900  43.452  62.765  0.00  0.00    -0.214 NA
BRANCH   4   3
ATOM      1  C   UNL     1      -1.734  42.715  66.986  0.00  0.00    +0.020 A 
ATOM      2  C   UNL     1      -1.408  42.835  65.584  0.00  0.00    +0.013 A 
ATOM      3  C   UNL     1      -2.460  42.951  64.582  0.00  0.00    +0.019 A 
ATOM     38  C   UNL     1      -3.842  42.942  65.035  0.00  0.00    +0.120 A 
ATOM     39  N   UNL     1      -4.126  42.824  66.392  0.00  0.00    -0.263 NA
ATOM     40  C   UNL     1      -3.122  42.710  67.366  0.00  0.00    +0.111 A 
ENDBRANCH   4   3
ENDBRANCH  10   9
BRANCH  12  13
ATOM     13  N   UNL     1       1.674  46.896  57.291  0.00  0.00    -0.281 N 
ATOM     14  C   UNL     1       0.597  47.605  56.785  0.00  0.00    +0.248 C 
ATOM     30  O   UNL     1      -0.522  47.140  56.621  0.00  0.00    -0.270 OA
ATOM     31  H   UNL     1       2.588  47.339  57.193  0.00  0.00    +0.155 HD
BRANCH  14  15
ATOM     15  C   UNL     1       0.793  49.033  56.390  0.00  0.00    +0.037 A 
ATOM     16  C   UNL     1       1.758  49.888  57.087  0.00  0.00    +0.013 A 
ATOM     17  C   UNL     1       1.915  51.267  56.698  0.00  0.00    +0.005 A 
ATOM     18  C   UNL     1       1.107  51.799  55.604  0.00  0.00    -0.033 A 
ATOM     28  C   UNL     1       0.161  50.927  54.926  0.00  0.00    +0.005 A 
ATOM     29  C   UNL     1       0.003  49.576  55.306  0.00  0.00    +0.013 A 
BRANCH  18  19
ATOM     19  C   UNL     1       1.193  53.264  55.135  0.00  0.00    +0.119 C 
BRANCH  19  20
ATOM     20  N   UNL     1       2.419  53.670  54.385  0.00  0.00    -0.302 NA
ATOM     21  C   UNL     1       2.496  55.187  54.188  0.00  0.00    +0.066 C 
ATOM     22  C   UNL     1       3.796  55.596  53.422  0.00  0.00    -0.064 C 
ATOM     23  N   UNL     1       3.840  54.872  52.075  0.00  0.00    +0.379 N 
ATOM     24  C   UNL     1       5.032  55.299  51.327  0.00  0.00    -0.096 C 
ATOM     25  H   UNL     1       2.944  55.187  51.492  0.00  0.00    -0.082 HD
ATOM     26  C   UNL     1       3.762  53.364  52.262  0.00  0.00    -0.064 C 
ATOM     27  C   UNL     1       2.481  52.970  53.050  0.00  0.00    +0.066 C 
ENDBRANCH  19  20
ENDBRANCH  18  19
ENDBRANCH  14  15
ENDBRANCH  12  13
TORSDOF 6
ENDMDL
MODEL 5
REMARK VINA RESULT:      -7.4      3.022     11.722
REMARK  Name = C:\Users\Docking\Desktop\test protocol\1iep_ligandH.pdb
REMARK  8 active torsions:
REMARK  status: ('A' for Active; 'I' for Inactive)
REMARK    1  A    between atoms: _5  and  _11
REMARK    2  A    between atoms: _19  and  _21
REMARK    3  A    between atoms: _22  and  _66
REMARK    4  A    between atoms: _27  and  _30
REMARK    5  A    between atoms: _32  and  _33
REMARK    6  A    between atoms: _38  and  _43
REMARK    7  A    between atoms: _43  and  _46
REMARK    8  A    between atoms: _53  and  _55
REMARK                            x       y       z     vdW  Elec       q    Type
REMARK                         _______ _______ _______ _____ _____    ______ ____
ROOT
ATOM     10  C   UNL     1       5.189  54.149  64.876  0.00  0.00    +0.038 A 
ATOM     11  C   UNL     1       4.462  53.158  64.168  0.00  0.00    +0.047 A 
ATOM     12  C   UNL     1       3.244  52.583  64.716  0.00  0.00    +0.035 A 
ATOM     32  C   UNL     1       2.793  53.042  65.988  0.00  0.00    +0.024 A 
ATOM     33  C   UNL     1       3.520  54.048  66.722  0.00  0.00    +0.007 A 
ATOM     34  C   UNL     1       4.724  54.617  66.187  0.00  0.00    -0.029 A 
ATOM     35  C   UNL     1       5.466  55.688  67.020  0.00  0.00    +0.045 C 
ENDROOT
BRANCH  10   9
ATOM      4  C   UNL     1       7.492  57.325  62.110  0.00  0.00    +0.077 A 
ATOM      5  C   UNL     1       6.272  57.992  61.758  0.00  0.00    +0.048 A 
ATOM      6  C   UNL     1       5.073  57.482  62.304  0.00  0.00    +0.116 A 
ATOM      7  N   UNL     1       5.103  56.387  63.139  0.00  0.00    -0.223 NA
ATOM      8  C   UNL     1       6.297  55.766  63.457  0.00  0.00    +0.220 A 
ATOM      9  N   UNL     1       6.352  54.667  64.302  0.00  0.00    -0.283 N 
ATOM     36  H   UNL     1       7.252  54.233  64.506  0.00  0.00    +0.155 HD
ATOM     37  N   UNL     1       7.456  56.232  62.948  0.00  0.00    -0.214 NA
BRANCH   4   3
ATOM      1  C   UNL     1      10.510  58.192  59.778  0.00  0.00    +0.020 A 
ATOM      2  C   UNL     1       9.194  57.776  60.202  0.00  0.00    +0.013 A 
ATOM      3  C   UNL     1       8.841  57.747  61.616  0.00  0.00    +0.019 A 
ATOM     38  C   UNL     1       9.851  58.149  62.583  0.00  0.00    +0.120 A 
ATOM     39  N   UNL     1      11.112  58.544  62.145  0.00  0.00    -0.263 NA
ATOM     40  C   UNL     1      11.463  58.574  60.787  0.00  0.00    +0.111 A 
ENDBRANCH   4   3
ENDBRANCH  10   9
BRANCH  12  13
ATOM     13  N   UNL     1       2.468  51.568  64.047  0.00  0.00    -0.281 N 
ATOM     14  C   UNL     1       1.736  51.689  62.877  0.00  0.00    +0.248 C 
ATOM     30  O   UNL     1       1.463  52.752  62.339  0.00  0.00    -0.270 OA
ATOM     31  H   UNL     1       2.457  50.650  64.490  0.00  0.00    +0.155 HD
BRANCH  14  15
ATOM     15  C   UNL     1       1.221  50.451  62.216  0.00  0.00    +0.037 A 
ATOM     16  C   UNL     1       0.698  49.332  63.003  0.00  0.00    +0.013 A 
ATOM     17  C   UNL     1       0.223  48.142  62.341  0.00  0.00    +0.005 A 
ATOM     18  C   UNL     1       0.269  48.068  60.883  0.00  0.00    -0.033 A 
ATOM     28  C   UNL     1       0.788  49.195  60.127  0.00  0.00    +0.005 A 
ATOM     29  C   UNL     1       1.255  50.362  60.772  0.00  0.00    +0.013 A 
BRANCH  18  19
ATOM     19  C   UNL     1      -0.197  46.830  60.094  0.00  0.00    +0.119 C 
BRANCH  19  20
ATOM     20  N   UNL     1       0.520  45.545  60.352  0.00  0.00    -0.302 NA
ATOM     21  C   UNL     1       1.193  45.000  59.089  0.00  0.00    +0.066 C 
ATOM     22  C   UNL     1       1.957  43.667  59.382  0.00  0.00    -0.064 C 
ATOM     23  N   UNL     1       0.983  42.641  59.963  0.00  0.00    +0.379 N 
ATOM     24  C   UNL     1       1.685  41.369  60.185  0.00  0.00    -0.096 C 
ATOM     25  H   UNL     1       0.189  42.461  59.202  0.00  0.00    -0.082 HD
ATOM     26  C   UNL     1       0.307  43.177  61.217  0.00  0.00    -0.064 C 
ATOM     27  C   UNL     1      -0.425  44.516  60.922  0.00  0.00    +0.066 C 
ENDBRANCH  19  20
ENDBRANCH  18  19
ENDBRANCH  14  15
ENDBRANCH  12  13
TORSDOF 6
ENDMDL
