MODEL 1
REMARK VINA RESULT:     -11.9      0.000      0.000
REMARK  Name = C:\Users\Docking\Desktop\test protocol\1iep_ligandH.pdb
REMARK  8 active torsions:
REMARK  status: ('A' for Active; 'I' for Inactive)
REMARK    1  A    between atoms: _5  and  _11
REMARK    2  A    between atoms: _19  and  _21
REMARK    3  A    between atoms: _22  and  _66
REMARK    4  A    between atoms: _27  and  _30
REMARK    5  A    between atoms: _32  and  _33
REMARK    6  A    between atoms: _38  and  _43
REMARK    7  A    between atoms: _43  and  _46
REMARK    8  A    between atoms: _53  and  _55
REMARK                            x       y       z     vdW  Elec       q    Type
REMARK                         _______ _______ _______ _____ _____    ______ ____
ROOT
ATOM     10  C   UNL     1      -4.496  26.257  31.509  0.00  0.00    +0.038 A 
ATOM     11  C   UNL     1      -3.859  26.772  32.666  0.00  0.00    +0.047 A 
ATOM     12  C   UNL     1      -2.433  26.586  32.885  0.00  0.00    +0.035 A 
ATOM     32  C   UNL     1      -1.686  25.872  31.904  0.00  0.00    +0.024 A 
ATOM     33  C   UNL     1      -2.318  25.339  30.723  0.00  0.00    +0.007 A 
ATOM     34  C   UNL     1      -3.725  25.518  30.502  0.00  0.00    -0.029 A 
ATOM     35  C   UNL     1      -4.351  24.920  29.220  0.00  0.00    +0.045 C 
ENDROOT
BRANCH  10   9
ATOM      4  C   UNL     1      -8.268  29.068  30.554  0.00  0.00    +0.077 A 
ATOM      5  C   UNL     1      -7.437  30.225  30.386  0.00  0.00    +0.048 A 
ATOM      6  C   UNL     1      -6.045  30.056  30.561  0.00  0.00    +0.116 A 
ATOM      7  N   UNL     1      -5.533  28.817  30.880  0.00  0.00    -0.223 NA
ATOM      8  C   UNL     1      -6.362  27.722  31.036  0.00  0.00    +0.220 A 
ATOM      9  N   UNL     1      -5.868  26.465  31.349  0.00  0.00    -0.283 N 
ATOM     36  H   UNL     1      -6.513  25.683  31.463  0.00  0.00    +0.155 HD
ATOM     37  N   UNL     1      -7.695  27.857  30.876  0.00  0.00    -0.214 NA
BRANCH   4   3
ATOM      1  C   UNL     1     -12.021  30.164  30.670  0.00  0.00    +0.020 A 
ATOM      2  C   UNL     1     -10.587  30.197  30.844  0.00  0.00    +0.013 A 
ATOM      3  C   UNL     1      -9.757  29.085  30.398  0.00  0.00    +0.019 A 
ATOM     38  C   UNL     1     -10.414  27.946  29.775  0.00  0.00    +0.120 A 
ATOM     39  N   UNL     1     -11.797  27.942  29.622  0.00  0.00    -0.263 NA
ATOM     40  C   UNL     1     -12.606  29.006  30.048  0.00  0.00    +0.111 A 
ENDBRANCH   4   3
ENDBRANCH  10   9
BRANCH  12  13
ATOM     13  N   UNL     1      -1.732  27.080  34.045  0.00  0.00    -0.281 N 
ATOM     14  C   UNL     1      -1.376  26.381  35.186  0.00  0.00    +0.248 C 
ATOM     30  O   UNL     1      -1.796  25.271  35.476  0.00  0.00    -0.270 OA
ATOM     31  H   UNL     1      -1.467  28.065  34.021  0.00  0.00    +0.155 HD
BRANCH  14  15
ATOM     15  C   UNL     1      -0.426  27.013  36.153  0.00  0.00    +0.037 A 
ATOM     16  C   UNL     1       1.017  26.778  36.064  0.00  0.00    +0.013 A 
ATOM     17  C   UNL     1       1.909  27.385  37.019  0.00  0.00    +0.005 A 
ATOM     18  C   UNL     1       1.359  28.236  38.072  0.00  0.00    -0.033 A 
ATOM     28  C   UNL     1      -0.076  28.457  38.134  0.00  0.00    +0.005 A 
ATOM     29  C   UNL     1      -0.954  27.862  37.200  0.00  0.00    +0.013 A 
BRANCH  18  19
ATOM     19  C   UNL     1       2.234  28.908  39.147  0.00  0.00    +0.119 C 
BRANCH  19  20
ATOM     20  N   UNL     1       2.194  28.328  40.522  0.00  0.00    -0.302 NA
ATOM     21  C   UNL     1       1.206  29.068  41.429  0.00  0.00    +0.066 C 
ATOM     22  C   UNL     1       1.160  28.434  42.857  0.00  0.00    -0.064 C 
ATOM     23  N   UNL     1       2.564  28.446  43.463  0.00  0.00    +0.379 N 
ATOM     24  C   UNL     1       2.514  27.904  44.829  0.00  0.00    -0.096 C 
ATOM     25  H   UNL     1       2.893  29.509  43.533  0.00  0.00    -0.082 HD
ATOM     26  C   UNL     1       3.553  27.715  42.567  0.00  0.00    -0.064 C 
ATOM     27  C   UNL     1       3.570  28.334  41.141  0.00  0.00    +0.066 C 
ENDBRANCH  19  20
ENDBRANCH  18  19
ENDBRANCH  14  15
ENDBRANCH  12  13
TORSDOF 6
ENDMDL
MODEL 2
REMARK VINA RESULT:     -11.7      4.371     14.248
REMARK  Name = C:\Users\Docking\Desktop\test protocol\1iep_ligandH.pdb
REMARK  8 active torsions:
REMARK  status: ('A' for Active; 'I' for Inactive)
REMARK    1  A    between atoms: _5  and  _11
REMARK    2  A    between atoms: _19  and  _21
REMARK    3  A    between atoms: _22  and  _66
REMARK    4  A    between atoms: _27  and  _30
REMARK    5  A    between atoms: _32  and  _33
REMARK    6  A    between atoms: _38  and  _43
REMARK    7  A    between atoms: _43  and  _46
REMARK    8  A    between atoms: _53  and  _55
REMARK                            x       y       z     vdW  Elec       q    Type
REMARK                         _______ _______ _______ _____ _____    ______ ____
ROOT
ATOM     10  C   UNL     1       0.566  28.056  44.238  0.00  0.00    +0.038 A 
ATOM     11  C   UNL     1      -0.230  28.267  43.083  0.00  0.00    +0.047 A 
ATOM     12  C   UNL     1       0.377  28.479  41.779  0.00  0.00    +0.035 A 
ATOM     32  C   UNL     1       1.799  28.468  41.686  0.00  0.00    +0.024 A 
ATOM     33  C   UNL     1       2.624  28.257  42.849  0.00  0.00    +0.007 A 
ATOM     34  C   UNL     1       2.031  28.049  44.139  0.00  0.00    -0.029 A 
ATOM     35  C   UNL     1       2.964  27.834  45.353  0.00  0.00    +0.045 C 
ENDROOT
BRANCH  10   9
ATOM      4  C   UNL     1      -1.699  29.684  48.144  0.00  0.00    +0.077 A 
ATOM      5  C   UNL     1      -1.582  31.049  47.715  0.00  0.00    +0.048 A 
ATOM      6  C   UNL     1      -0.925  31.289  46.488  0.00  0.00    +0.116 A 
ATOM      7  N   UNL     1      -0.428  30.236  45.751  0.00  0.00    -0.223 NA
ATOM      8  C   UNL     1      -0.556  28.933  46.194  0.00  0.00    +0.220 A 
ATOM      9  N   UNL     1      -0.070  27.858  45.465  0.00  0.00    -0.283 N 
ATOM     36  H   UNL     1      -0.178  26.912  45.830  0.00  0.00    +0.155 HD
ATOM     37  N   UNL     1      -1.177  28.677  47.364  0.00  0.00    -0.214 NA
BRANCH   4   3
ATOM      1  C   UNL     1      -3.779  27.691  50.789  0.00  0.00    +0.020 A 
ATOM      2  C   UNL     1      -3.153  28.047  49.537  0.00  0.00    +0.013 A 
ATOM      3  C   UNL     1      -2.369  29.269  49.417  0.00  0.00    +0.019 A 
ATOM     38  C   UNL     1      -2.235  30.116  50.592  0.00  0.00    +0.120 A 
ATOM     39  N   UNL     1      -2.851  29.749  51.785  0.00  0.00    -0.263 NA
ATOM     40  C   UNL     1      -3.610  28.576  51.912  0.00  0.00    +0.111 A 
ENDBRANCH   4   3
ENDBRANCH  10   9
BRANCH  12  13
ATOM     13  N   UNL     1      -0.380  28.706  40.573  0.00  0.00    -0.281 N 
ATOM     14  C   UNL     1      -0.057  29.530  39.507  0.00  0.00    +0.248 C 
ATOM     30  O   UNL     1       0.835  30.365  39.524  0.00  0.00    -0.270 OA
ATOM     31  H   UNL     1      -1.261  28.198  40.496  0.00  0.00    +0.155 HD
BRANCH  14  15
ATOM     15  C   UNL     1      -0.849  29.420  38.244  0.00  0.00    +0.037 A 
ATOM     16  C   UNL     1      -2.303  29.600  38.240  0.00  0.00    +0.013 A 
ATOM     17  C   UNL     1      -3.045  29.472  37.011  0.00  0.00    +0.005 A 
ATOM     18  C   UNL     1      -2.332  29.163  35.773  0.00  0.00    -0.033 A 
ATOM     28  C   UNL     1      -0.889  28.994  35.805  0.00  0.00    +0.005 A 
ATOM     29  C   UNL     1      -0.158  29.118  37.008  0.00  0.00    +0.013 A 
BRANCH  18  19
ATOM     19  C   UNL     1      -3.045  28.987  34.419  0.00  0.00    +0.119 C 
BRANCH  19  20
ATOM     20  N   UNL     1      -3.409  27.597  34.014  0.00  0.00    -0.302 NA
ATOM     21  C   UNL     1      -2.494  27.063  32.908  0.00  0.00    +0.066 C 
ATOM     22  C   UNL     1      -2.874  25.599  32.511  0.00  0.00    -0.064 C 
ATOM     23  N   UNL     1      -4.339  25.557  32.071  0.00  0.00    +0.379 N 
ATOM     24  C   UNL     1      -4.683  24.194  31.642  0.00  0.00    -0.096 C 
ATOM     25  H   UNL     1      -4.444  26.227  31.186  0.00  0.00    -0.082 HD
ATOM     26  C   UNL     1      -5.255  26.089  33.164  0.00  0.00    -0.064 C 
ATOM     27  C   UNL     1      -4.850  27.533  33.571  0.00  0.00    +0.066 C 
ENDBRANCH  19  20
ENDBRANCH  18  19
ENDBRANCH  14  15
ENDBRANCH  12  13
TORSDOF 6
ENDMDL
MODEL 3
REMARK VINA RESULT:     -11.7      3.863      7.520
REMARK  Name = C:\Users\Docking\Desktop\test protocol\1iep_ligandH.pdb
REMARK  8 active torsions:
REMARK  status: ('A' for Active; 'I' for Inactive)
REMARK    1  A    between atoms: _5  and  _11
REMARK    2  A    between atoms: _19  and  _21
REMARK    3  A    between atoms: _22  and  _66
REMARK    4  A    between atoms: _27  and  _30
REMARK    5  A    between atoms: _32  and  _33
REMARK    6  A    between atoms: _38  and  _43
REMARK    7  A    between atoms: _43  and  _46
REMARK    8  A    between atoms: _53  and  _55
REMARK                            x       y       z     vdW  Elec       q    Type
REMARK                         _______ _______ _______ _____ _____    ______ ____
ROOT
ATOM     10  C   UNL     1       0.205  27.130  37.020  0.00  0.00    +0.038 A 
ATOM     11  C   UNL     1      -0.079  27.324  38.396  0.00  0.00    +0.047 A 
ATOM     12  C   UNL     1       0.972  27.666  39.341  0.00  0.00    +0.035 A 
ATOM     32  C   UNL     1       2.303  27.805  38.849  0.00  0.00    +0.024 A 
ATOM     33  C   UNL     1       2.610  27.610  37.454  0.00  0.00    +0.007 A 
ATOM     34  C   UNL     1       1.577  27.270  36.518  0.00  0.00    -0.029 A 
ATOM     35  C   UNL     1       1.965  27.067  35.035  0.00  0.00    +0.045 C 
ENDROOT
BRANCH  10   9
ATOM      4  C   UNL     1      -3.491  28.333  34.204  0.00  0.00    +0.077 A 
ATOM      5  C   UNL     1      -3.337  29.728  34.498  0.00  0.00    +0.048 A 
ATOM      6  C   UNL     1      -2.299  30.094  35.384  0.00  0.00    +0.116 A 
ATOM      7  N   UNL     1      -1.482  29.128  35.929  0.00  0.00    -0.223 NA
ATOM      8  C   UNL     1      -1.658  27.790  35.626  0.00  0.00    +0.220 A 
ATOM      9  N   UNL     1      -0.843  26.803  36.157  0.00  0.00    -0.283 N 
ATOM     36  H   UNL     1      -1.011  25.826  35.914  0.00  0.00    +0.155 HD
ATOM     37  N   UNL     1      -2.643  27.415  34.784  0.00  0.00    -0.214 NA
BRANCH   4   3
ATOM      1  C   UNL     1      -5.955  27.893  31.198  0.00  0.00    +0.020 A 
ATOM      2  C   UNL     1      -4.938  28.460  32.053  0.00  0.00    +0.013 A 
ATOM      3  C   UNL     1      -4.539  27.789  33.283  0.00  0.00    +0.019 A 
ATOM     38  C   UNL     1      -5.194  26.535  33.623  0.00  0.00    +0.120 A 
ATOM     39  N   UNL     1      -6.171  26.013  32.781  0.00  0.00    -0.263 NA
ATOM     40  C   UNL     1      -6.565  26.651  31.595  0.00  0.00    +0.111 A 
ENDBRANCH   4   3
ENDBRANCH  10   9
BRANCH  12  13
ATOM     13  N   UNL     1       0.745  27.867  40.750  0.00  0.00    -0.281 N 
ATOM     14  C   UNL     1       1.675  28.187  41.726  0.00  0.00    +0.248 C 
ATOM     30  O   UNL     1       2.886  28.139  41.568  0.00  0.00    -0.270 OA
ATOM     31  H   UNL     1      -0.219  27.760  41.068  0.00  0.00    +0.155 HD
BRANCH  14  15
ATOM     15  C   UNL     1       1.190  28.607  43.076  0.00  0.00    +0.037 A 
ATOM     16  C   UNL     1      -0.066  29.345  43.236  0.00  0.00    +0.013 A 
ATOM     17  C   UNL     1      -0.502  29.753  44.548  0.00  0.00    +0.005 A 
ATOM     18  C   UNL     1       0.318  29.422  45.711  0.00  0.00    -0.033 A 
ATOM     28  C   UNL     1       1.557  28.685  45.523  0.00  0.00    +0.005 A 
ATOM     29  C   UNL     1       1.988  28.284  44.239  0.00  0.00    +0.013 A 
BRANCH  18  19
ATOM     19  C   UNL     1      -0.059  29.836  47.146  0.00  0.00    +0.119 C 
BRANCH  19  20
ATOM     20  N   UNL     1      -1.456  29.555  47.593  0.00  0.00    -0.302 NA
ATOM     21  C   UNL     1      -2.329  30.813  47.576  0.00  0.00    +0.066 C 
ATOM     22  C   UNL     1      -3.792  30.496  48.025  0.00  0.00    -0.064 C 
ATOM     23  N   UNL     1      -3.770  29.872  49.421  0.00  0.00    +0.379 N 
ATOM     24  C   UNL     1      -5.148  29.626  49.871  0.00  0.00    -0.096 C 
ATOM     25  H   UNL     1      -3.315  30.615  50.117  0.00  0.00    -0.082 HD
ATOM     26  C   UNL     1      -2.902  28.622  49.449  0.00  0.00    -0.064 C 
ATOM     27  C   UNL     1      -1.458  28.942  48.972  0.00  0.00    +0.066 C 
ENDBRANCH  19  20
ENDBRANCH  18  19
ENDBRANCH  14  15
ENDBRANCH  12  13
TORSDOF 6
ENDMDL
MODEL 4
REMARK VINA RESULT:     -11.4      1.707      2.697
REMARK  Name = C:\Users\Docking\Desktop\test protocol\1iep_ligandH.pdb
REMARK  8 active torsions:
REMARK  status: ('A' for Active; 'I' for Inactive)
REMARK    1  A    between atoms: _5  and  _11
REMARK    2  A    between atoms: _19  and  _21
REMARK    3  A    between atoms: _22  and  _66
REMARK    4  A    between atoms: _27  and  _30
REMARK    5  A    between atoms: _32  and  _33
REMARK    6  A    between atoms: _38  and  _43
REMARK    7  A    between atoms: _43  and  _46
REMARK    8  A    between atoms: _53  and  _55
REMARK                            x       y       z     vdW  Elec       q    Type
REMARK                         _______ _______ _______ _____ _____    ______ ____
ROOT
ATOM     10  C   UNL     1      -6.172  25.684  30.163  0.00  0.00    +0.038 A 
ATOM     11  C   UNL     1      -5.358  26.216  31.195  0.00  0.00    +0.047 A 
ATOM     12  C   UNL     1      -3.915  26.031  31.186  0.00  0.00    +0.035 A 
ATOM     32  C   UNL     1      -3.334  25.301  30.108  0.00  0.00    +0.024 A 
ATOM     33  C   UNL     1      -4.147  24.753  29.051  0.00  0.00    +0.007 A 
ATOM     34  C   UNL     1      -5.571  24.930  29.056  0.00  0.00    -0.029 A 
ATOM     35  C   UNL     1      -6.394  24.314  27.900  0.00  0.00    +0.045 C 
ENDROOT
BRANCH  10   9
ATOM      4  C   UNL     1     -10.015  28.550  30.394  0.00  0.00    +0.077 A 
ATOM      5  C   UNL     1      -9.205  29.733  30.428  0.00  0.00    +0.048 A 
ATOM      6  C   UNL     1      -7.803  29.560  30.391  0.00  0.00    +0.116 A 
ATOM      7  N   UNL     1      -7.263  28.294  30.325  0.00  0.00    -0.223 NA
ATOM      8  C   UNL     1      -8.073  27.174  30.296  0.00  0.00    +0.220 A 
ATOM      9  N   UNL     1      -7.552  25.891  30.222  0.00  0.00    -0.283 N 
ATOM     36  H   UNL     1      -8.183  25.091  30.210  0.00  0.00    +0.155 HD
ATOM     37  N   UNL     1      -9.415  27.312  30.332  0.00  0.00    -0.214 NA
BRANCH   4   3
ATOM      1  C   UNL     1     -13.770  28.590  29.299  0.00  0.00    +0.020 A 
ATOM      2  C   UNL     1     -12.328  28.572  29.216  0.00  0.00    +0.013 A 
ATOM      3  C   UNL     1     -11.512  28.569  30.424  0.00  0.00    +0.019 A 
ATOM     38  C   UNL     1     -12.192  28.584  31.710  0.00  0.00    +0.120 A 
ATOM     39  N   UNL     1     -13.582  28.602  31.759  0.00  0.00    -0.263 NA
ATOM     40  C   UNL     1     -14.378  28.607  30.604  0.00  0.00    +0.111 A 
ENDBRANCH   4   3
ENDBRANCH  10   9
BRANCH  12  13
ATOM     13  N   UNL     1      -3.038  26.541  32.210  0.00  0.00    -0.281 N 
ATOM     14  C   UNL     1      -3.377  26.985  33.478  0.00  0.00    +0.248 C 
ATOM     30  O   UNL     1      -4.520  27.213  33.848  0.00  0.00    -0.270 OA
ATOM     31  H   UNL     1      -2.047  26.578  31.973  0.00  0.00    +0.155 HD
BRANCH  14  15
ATOM     15  C   UNL     1      -2.289  27.226  34.474  0.00  0.00    +0.037 A 
ATOM     16  C   UNL     1      -1.988  28.575  34.959  0.00  0.00    +0.013 A 
ATOM     17  C   UNL     1      -0.922  28.781  35.907  0.00  0.00    +0.005 A 
ATOM     18  C   UNL     1      -0.150  27.634  36.378  0.00  0.00    -0.033 A 
ATOM     28  C   UNL     1      -0.473  26.306  35.884  0.00  0.00    +0.005 A 
ATOM     29  C   UNL     1      -1.517  26.100  34.954  0.00  0.00    +0.013 A 
BRANCH  18  19
ATOM     19  C   UNL     1       1.019  27.763  37.372  0.00  0.00    +0.119 C 
BRANCH  19  20
ATOM     20  N   UNL     1       0.706  28.306  38.728  0.00  0.00    -0.302 NA
ATOM     21  C   UNL     1       1.835  28.041  39.728  0.00  0.00    +0.066 C 
ATOM     22  C   UNL     1       1.501  28.635  41.135  0.00  0.00    -0.064 C 
ATOM     23  N   UNL     1       0.184  28.041  41.636  0.00  0.00    +0.379 N 
ATOM     24  C   UNL     1      -0.104  28.553  42.984  0.00  0.00    -0.096 C 
ATOM     25  H   UNL     1       0.319  26.937  41.715  0.00  0.00    -0.082 HD
ATOM     26  C   UNL     1      -0.944  28.297  40.647  0.00  0.00    -0.064 C 
ATOM     27  C   UNL     1      -0.589  27.729  39.244  0.00  0.00    +0.066 C 
ENDBRANCH  19  20
ENDBRANCH  18  19
ENDBRANCH  14  15
ENDBRANCH  12  13
TORSDOF 6
ENDMDL
MODEL 5
REMARK VINA RESULT:     -11.2      4.829      9.621
REMARK  Name = C:\Users\Docking\Desktop\test protocol\1iep_ligandH.pdb
REMARK  8 active torsions:
REMARK  status: ('A' for Active; 'I' for Inactive)
REMARK    1  A    between atoms: _5  and  _11
REMARK    2  A    between atoms: _19  and  _21
REMARK    3  A    between atoms: _22  and  _66
REMARK    4  A    between atoms: _27  and  _30
REMARK    5  A    between atoms: _32  and  _33
REMARK    6  A    between atoms: _38  and  _43
REMARK    7  A    between atoms: _43  and  _46
REMARK    8  A    between atoms: _53  and  _55
REMARK                            x       y       z     vdW  Elec       q    Type
REMARK                         _______ _______ _______ _____ _____    ______ ____
ROOT
ATOM     10  C   UNL     1       1.050  27.956  39.275  0.00  0.00    +0.038 A 
ATOM     11  C   UNL     1       0.358  28.248  40.478  0.00  0.00    +0.047 A 
ATOM     12  C   UNL     1       0.967  29.063  41.518  0.00  0.00    +0.035 A 
ATOM     32  C   UNL     1       2.282  29.566  41.298  0.00  0.00    +0.024 A 
ATOM     33  C   UNL     1       3.001  29.278  40.082  0.00  0.00    +0.007 A 
ATOM     34  C   UNL     1       2.406  28.473  39.054  0.00  0.00    -0.029 A 
ATOM     35  C   UNL     1       3.225  28.191  37.773  0.00  0.00    +0.045 C 
ENDROOT
BRANCH  10   9
ATOM      4  C   UNL     1      -1.605  27.440  35.310  0.00  0.00    +0.077 A 
ATOM      5  C   UNL     1      -1.768  28.858  35.163  0.00  0.00    +0.048 A 
ATOM      6  C   UNL     1      -1.159  29.685  36.134  0.00  0.00    +0.116 A 
ATOM      7  N   UNL     1      -0.442  29.125  37.169  0.00  0.00    -0.223 NA
ATOM      8  C   UNL     1      -0.305  27.753  37.282  0.00  0.00    +0.220 A 
ATOM      9  N   UNL     1       0.418  27.169  38.310  0.00  0.00    -0.283 N 
ATOM     36  H   UNL     1       0.489  26.153  38.363  0.00  0.00    +0.155 HD
ATOM     37  N   UNL     1      -0.879  26.942  36.369  0.00  0.00    -0.214 NA
BRANCH   4   3
ATOM      1  C   UNL     1      -2.912  24.098  33.752  0.00  0.00    +0.020 A 
ATOM      2  C   UNL     1      -2.345  25.027  34.703  0.00  0.00    +0.013 A 
ATOM      3  C   UNL     1      -2.186  26.436  34.364  0.00  0.00    +0.019 A 
ATOM     38  C   UNL     1      -2.615  26.876  33.045  0.00  0.00    +0.120 A 
ATOM     39  N   UNL     1      -3.157  25.958  32.150  0.00  0.00    -0.263 NA
ATOM     40  C   UNL     1      -3.313  24.600  32.464  0.00  0.00    +0.111 A 
ENDBRANCH   4   3
ENDBRANCH  10   9
BRANCH  12  13
ATOM     13  N   UNL     1       0.315  29.386  42.763  0.00  0.00    -0.281 N 
ATOM     14  C   UNL     1       0.339  28.668  43.948  0.00  0.00    +0.248 C 
ATOM     30  O   UNL     1       0.752  27.523  44.054  0.00  0.00    -0.270 OA
ATOM     31  H   UNL     1      -0.229  30.248  42.772  0.00  0.00    +0.155 HD
BRANCH  14  15
ATOM     15  C   UNL     1      -0.185  29.310  45.191  0.00  0.00    +0.037 A 
ATOM     16  C   UNL     1      -0.393  30.758  45.270  0.00  0.00    +0.013 A 
ATOM     17  C   UNL     1      -0.884  31.354  46.487  0.00  0.00    +0.005 A 
ATOM     18  C   UNL     1      -1.171  30.500  47.637  0.00  0.00    -0.033 A 
ATOM     28  C   UNL     1      -0.961  29.066  47.530  0.00  0.00    +0.005 A 
ATOM     29  C   UNL     1      -0.479  28.478  46.339  0.00  0.00    +0.013 A 
BRANCH  18  19
ATOM     19  C   UNL     1      -1.678  31.052  48.983  0.00  0.00    +0.119 C 
BRANCH  19  20
ATOM     20  N   UNL     1      -0.651  31.387  50.014  0.00  0.00    -0.302 NA
ATOM     21  C   UNL     1       0.726  31.636  49.394  0.00  0.00    +0.066 C 
ATOM     22  C   UNL     1       1.783  32.007  50.485  0.00  0.00    -0.064 C 
ATOM     23  N   UNL     1       1.852  30.888  51.525  0.00  0.00    +0.379 N 
ATOM     24  C   UNL     1       2.886  31.207  52.521  0.00  0.00    -0.096 C 
ATOM     25  H   UNL     1       2.165  29.956  51.000  0.00  0.00    -0.082 HD
ATOM     26  C   UNL     1       0.486  30.632  52.145  0.00  0.00    -0.064 C 
ATOM     27  C   UNL     1      -0.563  30.293  51.050  0.00  0.00    +0.066 C 
ENDBRANCH  19  20
ENDBRANCH  18  19
ENDBRANCH  14  15
ENDBRANCH  12  13
TORSDOF 6
ENDMDL
