MODEL 1
REMARK VINA RESULT:     -11.8      0.000      0.000
REMARK  Name = C:\Users\Docking\Desktop\test protocol\1iep_ligandH.pdb
REMARK  8 active torsions:
REMARK  status: ('A' for Active; 'I' for Inactive)
REMARK    1  A    between atoms: _5  and  _11
REMARK    2  A    between atoms: _19  and  _21
REMARK    3  A    between atoms: _22  and  _66
REMARK    4  A    between atoms: _27  and  _30
REMARK    5  A    between atoms: _32  and  _33
REMARK    6  A    between atoms: _38  and  _43
REMARK    7  A    between atoms: _43  and  _46
REMARK    8  A    between atoms: _53  and  _55
REMARK                            x       y       z     vdW  Elec       q    Type
REMARK                         _______ _______ _______ _____ _____    ______ ____
ROOT
ATOM     10  C   UNL     1       0.586  28.181  44.373  0.00  0.00    +0.038 A 
ATOM     11  C   UNL     1      -0.243  28.456  43.256  0.00  0.00    +0.047 A 
ATOM     12  C   UNL     1       0.322  28.661  41.932  0.00  0.00    +0.035 A 
ATOM     32  C   UNL     1       1.736  28.575  41.780  0.00  0.00    +0.024 A 
ATOM     33  C   UNL     1       2.595  28.298  42.905  0.00  0.00    +0.007 A 
ATOM     34  C   UNL     1       2.043  28.097  44.214  0.00  0.00    -0.029 A 
ATOM     35  C   UNL     1       3.011  27.809  45.385  0.00  0.00    +0.045 C 
ENDROOT
BRANCH  10   9
ATOM      4  C   UNL     1      -1.657  29.827  48.284  0.00  0.00    +0.077 A 
ATOM      5  C   UNL     1      -1.613  31.181  47.811  0.00  0.00    +0.048 A 
ATOM      6  C   UNL     1      -0.999  31.412  46.560  0.00  0.00    +0.116 A 
ATOM      7  N   UNL     1      -0.471  30.360  45.844  0.00  0.00    -0.223 NA
ATOM      8  C   UNL     1      -0.528  29.067  46.330  0.00  0.00    +0.220 A 
ATOM      9  N   UNL     1      -0.010  27.992  45.622  0.00  0.00    -0.283 N 
ATOM     36  H   UNL     1      -0.065  27.054  46.018  0.00  0.00    +0.155 HD
ATOM     37  N   UNL     1      -1.108  28.820  47.523  0.00  0.00    -0.214 NA
BRANCH   4   3
ATOM      1  C   UNL     1      -3.621  27.851  51.030  0.00  0.00    +0.020 A 
ATOM      2  C   UNL     1      -3.045  28.196  49.750  0.00  0.00    +0.013 A 
ATOM      3  C   UNL     1      -2.275  29.423  49.586  0.00  0.00    +0.019 A 
ATOM     38  C   UNL     1      -2.105  30.285  50.746  0.00  0.00    +0.120 A 
ATOM     39  N   UNL     1      -2.672  29.928  51.965  0.00  0.00    -0.263 NA
ATOM     40  C   UNL     1      -3.417  28.751  52.134  0.00  0.00    +0.111 A 
ENDBRANCH   4   3
ENDBRANCH  10   9
BRANCH  12  13
ATOM     13  N   UNL     1      -0.470  28.951  40.762  0.00  0.00    -0.281 N 
ATOM     14  C   UNL     1      -0.213  29.883  39.770  0.00  0.00    +0.248 C 
ATOM     30  O   UNL     1       0.632  30.762  39.849  0.00  0.00    -0.270 OA
ATOM     31  H   UNL     1      -1.323  28.403  40.652  0.00  0.00    +0.155 HD
BRANCH  14  15
ATOM     15  C   UNL     1      -1.022  29.841  38.513  0.00  0.00    +0.037 A 
ATOM     16  C   UNL     1      -2.486  29.896  38.550  0.00  0.00    +0.013 A 
ATOM     17  C   UNL     1      -3.242  29.837  37.324  0.00  0.00    +0.005 A 
ATOM     18  C   UNL     1      -2.535  29.724  36.051  0.00  0.00    -0.033 A 
ATOM     28  C   UNL     1      -1.082  29.677  36.043  0.00  0.00    +0.005 A 
ATOM     29  C   UNL     1      -0.337  29.733  37.243  0.00  0.00    +0.013 A 
BRANCH  18  19
ATOM     19  C   UNL     1      -3.262  29.634  34.696  0.00  0.00    +0.119 C 
BRANCH  19  20
ATOM     20  N   UNL     1      -3.742  28.287  34.266  0.00  0.00    -0.302 NA
ATOM     21  C   UNL     1      -2.626  27.455  33.627  0.00  0.00    +0.066 C 
ATOM     22  C   UNL     1      -3.141  26.041  33.204  0.00  0.00    -0.064 C 
ATOM     23  N   UNL     1      -4.319  26.197  32.241  0.00  0.00    +0.379 N 
ATOM     24  C   UNL     1      -4.768  24.870  31.796  0.00  0.00    -0.096 C 
ATOM     25  H   UNL     1      -3.952  26.748  31.344  0.00  0.00    -0.082 HD
ATOM     26  C   UNL     1      -5.433  27.025  32.868  0.00  0.00    -0.064 C 
ATOM     27  C   UNL     1      -4.903  28.417  33.311  0.00  0.00    +0.066 C 
ENDBRANCH  19  20
ENDBRANCH  18  19
ENDBRANCH  14  15
ENDBRANCH  12  13
TORSDOF 6
ENDMDL
MODEL 2
REMARK VINA RESULT:     -11.6      3.798     14.164
REMARK  Name = C:\Users\Docking\Desktop\test protocol\1iep_ligandH.pdb
REMARK  8 active torsions:
REMARK  status: ('A' for Active; 'I' for Inactive)
REMARK    1  A    between atoms: _5  and  _11
REMARK    2  A    between atoms: _19  and  _21
REMARK    3  A    between atoms: _22  and  _66
REMARK    4  A    between atoms: _27  and  _30
REMARK    5  A    between atoms: _32  and  _33
REMARK    6  A    between atoms: _38  and  _43
REMARK    7  A    between atoms: _43  and  _46
REMARK    8  A    between atoms: _53  and  _55
REMARK                            x       y       z     vdW  Elec       q    Type
REMARK                         _______ _______ _______ _____ _____    ______ ____
ROOT
ATOM     10  C   UNL     1      -4.662  26.313  31.421  0.00  0.00    +0.038 A 
ATOM     11  C   UNL     1      -3.886  26.926  32.437  0.00  0.00    +0.047 A 
ATOM     12  C   UNL     1      -2.480  26.595  32.613  0.00  0.00    +0.035 A 
ATOM     32  C   UNL     1      -1.896  25.638  31.732  0.00  0.00    +0.024 A 
ATOM     33  C   UNL     1      -2.671  25.005  30.694  0.00  0.00    +0.007 A 
ATOM     34  C   UNL     1      -4.059  25.325  30.518  0.00  0.00    -0.029 A 
ATOM     35  C   UNL     1      -4.843  24.610  29.393  0.00  0.00    +0.045 C 
ENDROOT
BRANCH  10   9
ATOM      4  C   UNL     1      -8.133  29.511  30.545  0.00  0.00    +0.077 A 
ATOM      5  C   UNL     1      -7.188  30.570  30.343  0.00  0.00    +0.048 A 
ATOM      6  C   UNL     1      -5.818  30.252  30.480  0.00  0.00    +0.116 A 
ATOM      7  N   UNL     1      -5.434  28.967  30.796  0.00  0.00    -0.223 NA
ATOM      8  C   UNL     1      -6.372  27.969  30.987  0.00  0.00    +0.220 A 
ATOM      9  N   UNL     1      -6.008  26.668  31.297  0.00  0.00    -0.283 N 
ATOM     36  H   UNL     1      -6.730  25.962  31.437  0.00  0.00    +0.155 HD
ATOM     37  N   UNL     1      -7.686  28.247  30.863  0.00  0.00    -0.214 NA
BRANCH   4   3
ATOM      1  C   UNL     1     -11.964  28.795  30.205  0.00  0.00    +0.020 A 
ATOM      2  C   UNL     1     -10.541  28.569  30.311  0.00  0.00    +0.013 A 
ATOM      3  C   UNL     1      -9.615  29.689  30.432  0.00  0.00    +0.019 A 
ATOM     38  C   UNL     1     -10.167  31.035  30.444  0.00  0.00    +0.120 A 
ATOM     39  N   UNL     1     -11.541  31.223  30.338  0.00  0.00    -0.263 NA
ATOM     40  C   UNL     1     -12.441  30.153  30.220  0.00  0.00    +0.111 A 
ENDBRANCH   4   3
ENDBRANCH  10   9
BRANCH  12  13
ATOM     13  N   UNL     1      -1.644  27.178  33.632  0.00  0.00    -0.281 N 
ATOM     14  C   UNL     1      -2.009  28.073  34.625  0.00  0.00    +0.248 C 
ATOM     30  O   UNL     1      -3.072  28.674  34.656  0.00  0.00    -0.270 OA
ATOM     31  H   UNL     1      -0.663  26.898  33.620  0.00  0.00    +0.155 HD
BRANCH  14  15
ATOM     15  C   UNL     1      -1.049  28.349  35.737  0.00  0.00    +0.037 A 
ATOM     16  C   UNL     1      -0.119  27.321  36.211  0.00  0.00    +0.013 A 
ATOM     17  C   UNL     1       0.785  27.609  37.296  0.00  0.00    +0.005 A 
ATOM     18  C   UNL     1       0.763  28.932  37.915  0.00  0.00    -0.033 A 
ATOM     28  C   UNL     1      -0.167  29.935  37.421  0.00  0.00    +0.005 A 
ATOM     29  C   UNL     1      -1.055  29.656  36.358  0.00  0.00    +0.013 A 
BRANCH  18  19
ATOM     19  C   UNL     1       1.677  29.320  39.092  0.00  0.00    +0.119 C 
BRANCH  19  20
ATOM     20  N   UNL     1       1.342  28.754  40.433  0.00  0.00    -0.302 NA
ATOM     21  C   UNL     1      -0.024  29.232  40.933  0.00  0.00    +0.066 C 
ATOM     22  C   UNL     1      -0.368  28.612  42.327  0.00  0.00    -0.064 C 
ATOM     23  N   UNL     1       0.732  28.972  43.328  0.00  0.00    +0.379 N 
ATOM     24  C   UNL     1       0.383  28.440  44.653  0.00  0.00    -0.096 C 
ATOM     25  H   UNL     1       0.765  30.084  43.407  0.00  0.00    -0.082 HD
ATOM     26  C   UNL     1       2.094  28.503  42.836  0.00  0.00    -0.064 C 
ATOM     27  C   UNL     1       2.413  29.101  41.438  0.00  0.00    +0.066 C 
ENDBRANCH  19  20
ENDBRANCH  18  19
ENDBRANCH  14  15
ENDBRANCH  12  13
TORSDOF 6
ENDMDL
MODEL 3
REMARK VINA RESULT:     -11.3      2.304     12.537
REMARK  Name = C:\Users\Docking\Desktop\test protocol\1iep_ligandH.pdb
REMARK  8 active torsions:
REMARK  status: ('A' for Active; 'I' for Inactive)
REMARK    1  A    between atoms: _5  and  _11
REMARK    2  A    between atoms: _19  and  _21
REMARK    3  A    between atoms: _22  and  _66
REMARK    4  A    between atoms: _27  and  _30
REMARK    5  A    between atoms: _32  and  _33
REMARK    6  A    between atoms: _38  and  _43
REMARK    7  A    between atoms: _43  and  _46
REMARK    8  A    between atoms: _53  and  _55
REMARK                            x       y       z     vdW  Elec       q    Type
REMARK                         _______ _______ _______ _____ _____    ______ ____
ROOT
ATOM     10  C   UNL     1       1.338  28.077  39.433  0.00  0.00    +0.038 A 
ATOM     11  C   UNL     1       0.602  28.221  40.636  0.00  0.00    +0.047 A 
ATOM     12  C   UNL     1       1.137  28.971  41.761  0.00  0.00    +0.035 A 
ATOM     32  C   UNL     1       2.426  29.564  41.626  0.00  0.00    +0.024 A 
ATOM     33  C   UNL     1       3.190  29.427  40.410  0.00  0.00    +0.007 A 
ATOM     34  C   UNL     1       2.667  28.686  39.298  0.00  0.00    -0.029 A 
ATOM     35  C   UNL     1       3.532  28.566  38.022  0.00  0.00    +0.045 C 
ENDROOT
BRANCH  10   9
ATOM      4  C   UNL     1      -1.282  27.759  35.424  0.00  0.00    +0.077 A 
ATOM      5  C   UNL     1      -1.577  29.163  35.435  0.00  0.00    +0.048 A 
ATOM      6  C   UNL     1      -1.042  29.930  36.494  0.00  0.00    +0.116 A 
ATOM      7  N   UNL     1      -0.269  29.328  37.463  0.00  0.00    -0.223 NA
ATOM      8  C   UNL     1      -0.005  27.971  37.424  0.00  0.00    +0.220 A 
ATOM      9  N   UNL     1       0.776  27.346  38.384  0.00  0.00    -0.283 N 
ATOM     36  H   UNL     1       0.941  26.342  38.323  0.00  0.00    +0.155 HD
ATOM     37  N   UNL     1      -0.506  27.216  36.424  0.00  0.00    -0.214 NA
BRANCH   4   3
ATOM      1  C   UNL     1      -2.291  24.504  33.503  0.00  0.00    +0.020 A 
ATOM      2  C   UNL     1      -1.807  25.371  34.553  0.00  0.00    +0.013 A 
ATOM      3  C   UNL     1      -1.773  26.816  34.369  0.00  0.00    +0.019 A 
ATOM     38  C   UNL     1      -2.240  27.358  33.102  0.00  0.00    +0.120 A 
ATOM     39  N   UNL     1      -2.699  26.499  32.109  0.00  0.00    -0.263 NA
ATOM     40  C   UNL     1      -2.735  25.106  32.273  0.00  0.00    +0.111 A 
ENDBRANCH   4   3
ENDBRANCH  10   9
BRANCH  12  13
ATOM     13  N   UNL     1       0.438  29.144  43.011  0.00  0.00    -0.281 N 
ATOM     14  C   UNL     1       0.819  28.702  44.267  0.00  0.00    +0.248 C 
ATOM     30  O   UNL     1       1.718  27.901  44.476  0.00  0.00    -0.270 OA
ATOM     31  H   UNL     1      -0.444  29.654  42.963  0.00  0.00    +0.155 HD
BRANCH  14  15
ATOM     15  C   UNL     1       0.084  29.213  45.465  0.00  0.00    +0.037 A 
ATOM     16  C   UNL     1      -0.200  30.640  45.630  0.00  0.00    +0.013 A 
ATOM     17  C   UNL     1      -0.895  31.108  46.803  0.00  0.00    +0.005 A 
ATOM     18  C   UNL     1      -1.312  30.146  47.820  0.00  0.00    -0.033 A 
ATOM     28  C   UNL     1      -1.022  28.735  47.628  0.00  0.00    +0.005 A 
ATOM     29  C   UNL     1      -0.340  28.272  46.480  0.00  0.00    +0.013 A 
BRANCH  18  19
ATOM     19  C   UNL     1      -2.040  30.558  49.113  0.00  0.00    +0.119 C 
BRANCH  19  20
ATOM     20  N   UNL     1      -3.272  29.797  49.477  0.00  0.00    -0.302 NA
ATOM     21  C   UNL     1      -4.524  30.381  48.816  0.00  0.00    +0.066 C 
ATOM     22  C   UNL     1      -5.800  29.559  49.189  0.00  0.00    -0.064 C 
ATOM     23  N   UNL     1      -5.956  29.527  50.710  0.00  0.00    +0.379 N 
ATOM     24  C   UNL     1      -7.187  28.804  51.062  0.00  0.00    -0.096 C 
ATOM     25  H   UNL     1      -6.070  30.579  51.060  0.00  0.00    -0.082 HD
ATOM     26  C   UNL     1      -4.715  28.950  51.376  0.00  0.00    -0.064 C 
ATOM     27  C   UNL     1      -3.448  29.756  50.975  0.00  0.00    +0.066 C 
ENDBRANCH  19  20
ENDBRANCH  18  19
ENDBRANCH  14  15
ENDBRANCH  12  13
TORSDOF 6
ENDMDL
MODEL 4
REMARK VINA RESULT:     -11.1      2.376     13.104
REMARK  Name = C:\Users\Docking\Desktop\test protocol\1iep_ligandH.pdb
REMARK  8 active torsions:
REMARK  status: ('A' for Active; 'I' for Inactive)
REMARK    1  A    between atoms: _5  and  _11
REMARK    2  A    between atoms: _19  and  _21
REMARK    3  A    between atoms: _22  and  _66
REMARK    4  A    between atoms: _27  and  _30
REMARK    5  A    between atoms: _32  and  _33
REMARK    6  A    between atoms: _38  and  _43
REMARK    7  A    between atoms: _43  and  _46
REMARK    8  A    between atoms: _53  and  _55
REMARK                            x       y       z     vdW  Elec       q    Type
REMARK                         _______ _______ _______ _____ _____    ______ ____
ROOT
ATOM     10  C   UNL     1       1.314  28.141  39.546  0.00  0.00    +0.038 A 
ATOM     11  C   UNL     1       0.589  28.324  40.751  0.00  0.00    +0.047 A 
ATOM     12  C   UNL     1       1.146  29.092  41.854  0.00  0.00    +0.035 A 
ATOM     32  C   UNL     1       2.443  29.661  41.695  0.00  0.00    +0.024 A 
ATOM     33  C   UNL     1       3.194  29.484  40.476  0.00  0.00    +0.007 A 
ATOM     34  C   UNL     1       2.650  28.726  39.386  0.00  0.00    -0.029 A 
ATOM     35  C   UNL     1       3.503  28.564  38.106  0.00  0.00    +0.045 C 
ENDROOT
BRANCH  10   9
ATOM      4  C   UNL     1      -1.241  27.785  35.498  0.00  0.00    +0.077 A 
ATOM      5  C   UNL     1      -1.456  29.202  35.439  0.00  0.00    +0.048 A 
ATOM      6  C   UNL     1      -0.898  29.987  36.473  0.00  0.00    +0.116 A 
ATOM      7  N   UNL     1      -0.181  29.388  37.486  0.00  0.00    -0.223 NA
ATOM      8  C   UNL     1       0.006  28.018  37.514  0.00  0.00    +0.220 A 
ATOM      9  N   UNL     1       0.731  27.395  38.519  0.00  0.00    -0.283 N 
ATOM     36  H   UNL     1       0.840  26.382  38.507  0.00  0.00    +0.155 HD
ATOM     37  N   UNL     1      -0.517  27.247  36.539  0.00  0.00    -0.214 NA
BRANCH   4   3
ATOM      1  C   UNL     1      -2.281  24.494  33.657  0.00  0.00    +0.020 A 
ATOM      2  C   UNL     1      -1.764  25.379  34.675  0.00  0.00    +0.013 A 
ATOM      3  C   UNL     1      -1.764  26.823  34.477  0.00  0.00    +0.019 A 
ATOM     38  C   UNL     1      -2.300  27.343  33.228  0.00  0.00    +0.120 A 
ATOM     39  N   UNL     1      -2.790  26.467  32.265  0.00  0.00    -0.263 NA
ATOM     40  C   UNL     1      -2.793  25.075  32.444  0.00  0.00    +0.111 A 
ENDBRANCH   4   3
ENDBRANCH  10   9
BRANCH  12  13
ATOM     13  N   UNL     1       0.461  29.304  43.105  0.00  0.00    -0.281 N 
ATOM     14  C   UNL     1       0.715  28.706  44.328  0.00  0.00    +0.248 C 
ATOM     30  O   UNL     1       1.438  27.733  44.484  0.00  0.00    -0.270 OA
ATOM     31  H   UNL     1      -0.305  29.978  43.087  0.00  0.00    +0.155 HD
BRANCH  14  15
ATOM     15  C   UNL     1       0.062  29.259  45.553  0.00  0.00    +0.037 A 
ATOM     16  C   UNL     1      -0.398  28.381  46.632  0.00  0.00    +0.013 A 
ATOM     17  C   UNL     1      -1.041  28.940  47.795  0.00  0.00    +0.005 A 
ATOM     18  C   UNL     1      -1.226  30.386  47.885  0.00  0.00    -0.033 A 
ATOM     28  C   UNL     1      -0.756  31.235  46.803  0.00  0.00    +0.005 A 
ATOM     29  C   UNL     1      -0.127  30.690  45.661  0.00  0.00    +0.013 A 
BRANCH  18  19
ATOM     19  C   UNL     1      -1.921  31.067  49.079  0.00  0.00    +0.119 C 
BRANCH  19  20
ATOM     20  N   UNL     1      -1.086  31.352  50.285  0.00  0.00    -0.302 NA
ATOM     21  C   UNL     1       0.367  30.909  50.094  0.00  0.00    +0.066 C 
ATOM     22  C   UNL     1       1.231  31.234  51.356  0.00  0.00    -0.064 C 
ATOM     23  N   UNL     1       0.615  30.557  52.581  0.00  0.00    +0.379 N 
ATOM     24  C   UNL     1       1.457  30.813  53.759  0.00  0.00    -0.096 C 
ATOM     25  H   UNL     1       0.617  29.458  52.396  0.00  0.00    -0.082 HD
ATOM     26  C   UNL     1      -0.831  30.990  52.776  0.00  0.00    -0.064 C 
ATOM     27  C   UNL     1      -1.674  30.689  51.506  0.00  0.00    +0.066 C 
ENDBRANCH  19  20
ENDBRANCH  18  19
ENDBRANCH  14  15
ENDBRANCH  12  13
TORSDOF 6
ENDMDL
MODEL 5
REMARK VINA RESULT:     -11.1      5.357     15.282
REMARK  Name = C:\Users\Docking\Desktop\test protocol\1iep_ligandH.pdb
REMARK  8 active torsions:
REMARK  status: ('A' for Active; 'I' for Inactive)
REMARK    1  A    between atoms: _5  and  _11
REMARK    2  A    between atoms: _19  and  _21
REMARK    3  A    between atoms: _22  and  _66
REMARK    4  A    between atoms: _27  and  _30
REMARK    5  A    between atoms: _32  and  _33
REMARK    6  A    between atoms: _38  and  _43
REMARK    7  A    between atoms: _43  and  _46
REMARK    8  A    between atoms: _53  and  _55
REMARK                            x       y       z     vdW  Elec       q    Type
REMARK                         _______ _______ _______ _____ _____    ______ ____
ROOT
ATOM     10  C   UNL     1      -6.288  29.294  30.719  0.00  0.00    +0.038 A 
ATOM     11  C   UNL     1      -5.355  29.469  31.772  0.00  0.00    +0.047 A 
ATOM     12  C   UNL     1      -5.064  28.392  32.706  0.00  0.00    +0.035 A 
ATOM     32  C   UNL     1      -5.739  27.149  32.535  0.00  0.00    +0.024 A 
ATOM     33  C   UNL     1      -6.691  26.954  31.470  0.00  0.00    +0.007 A 
ATOM     34  C   UNL     1      -6.985  28.014  30.548  0.00  0.00    -0.029 A 
ATOM     35  C   UNL     1      -8.020  27.751  29.429  0.00  0.00    +0.045 C 
ENDROOT
BRANCH  10   9
ATOM      4  C   UNL     1      -8.719  33.223  29.417  0.00  0.00    +0.077 A 
ATOM      5  C   UNL     1      -9.599  33.124  30.545  0.00  0.00    +0.048 A 
ATOM      6  C   UNL     1      -9.397  32.044  31.433  0.00  0.00    +0.116 A 
ATOM      7  N   UNL     1      -8.387  31.136  31.200  0.00  0.00    -0.223 NA
ATOM      8  C   UNL     1      -7.557  31.259  30.101  0.00  0.00    +0.220 A 
ATOM      9  N   UNL     1      -6.530  30.362  29.852  0.00  0.00    -0.283 N 
ATOM     36  H   UNL     1      -5.944  30.483  29.026  0.00  0.00    +0.155 HD
ATOM     37  N   UNL     1      -7.730  32.281  29.237  0.00  0.00    -0.214 NA
BRANCH   4   3
ATOM      1  C   UNL     1      -9.259  35.152  26.057  0.00  0.00    +0.020 A 
ATOM      2  C   UNL     1      -9.192  34.066  27.008  0.00  0.00    +0.013 A 
ATOM      3  C   UNL     1      -8.804  34.310  28.391  0.00  0.00    +0.019 A 
ATOM     38  C   UNL     1      -8.487  35.675  28.783  0.00  0.00    +0.120 A 
ATOM     39  N   UNL     1      -8.558  36.700  27.845  0.00  0.00    -0.263 NA
ATOM     40  C   UNL     1      -8.929  36.477  26.510  0.00  0.00    +0.111 A 
ENDBRANCH   4   3
ENDBRANCH  10   9
BRANCH  12  13
ATOM     13  N   UNL     1      -4.132  28.514  33.800  0.00  0.00    -0.281 N 
ATOM     14  C   UNL     1      -2.880  27.932  33.921  0.00  0.00    +0.248 C 
ATOM     30  O   UNL     1      -2.459  27.042  33.197  0.00  0.00    -0.270 OA
ATOM     31  H   UNL     1      -4.432  29.100  34.579  0.00  0.00    +0.155 HD
BRANCH  14  15
ATOM     15  C   UNL     1      -1.971  28.397  35.013  0.00  0.00    +0.037 A 
ATOM     16  C   UNL     1      -2.100  29.737  35.590  0.00  0.00    +0.013 A 
ATOM     17  C   UNL     1      -1.199  30.166  36.630  0.00  0.00    +0.005 A 
ATOM     18  C   UNL     1      -0.162  29.251  37.102  0.00  0.00    -0.033 A 
ATOM     28  C   UNL     1      -0.060  27.925  36.515  0.00  0.00    +0.005 A 
ATOM     29  C   UNL     1      -0.941  27.502  35.495  0.00  0.00    +0.013 A 
BRANCH  18  19
ATOM     19  C   UNL     1       0.856  29.632  38.193  0.00  0.00    +0.119 C 
BRANCH  19  20
ATOM     20  N   UNL     1       0.675  29.017  39.541  0.00  0.00    -0.302 NA
ATOM     21  C   UNL     1      -0.620  29.480  40.215  0.00  0.00    +0.066 C 
ATOM     22  C   UNL     1      -0.804  28.810  41.615  0.00  0.00    -0.064 C 
ATOM     23  N   UNL     1       0.407  29.127  42.494  0.00  0.00    +0.379 N 
ATOM     24  C   UNL     1       0.210  28.546  43.830  0.00  0.00    -0.096 C 
ATOM     25  H   UNL     1       0.459  30.235  42.610  0.00  0.00    -0.082 HD
ATOM     26  C   UNL     1       1.699  28.672  41.830  0.00  0.00    -0.064 C 
ATOM     27  C   UNL     1       1.858  29.321  40.427  0.00  0.00    +0.066 C 
ENDBRANCH  19  20
ENDBRANCH  18  19
ENDBRANCH  14  15
ENDBRANCH  12  13
TORSDOF 6
ENDMDL
