MODEL 1
REMARK VINA RESULT:     -10.3      0.000      0.000
REMARK  Name = C:\Users\Docking\Desktop\test protocol\1iep_ligandH.pdb
REMARK  8 active torsions:
REMARK  status: ('A' for Active; 'I' for Inactive)
REMARK    1  A    between atoms: _5  and  _11
REMARK    2  A    between atoms: _19  and  _21
REMARK    3  A    between atoms: _22  and  _66
REMARK    4  A    between atoms: _27  and  _30
REMARK    5  A    between atoms: _32  and  _33
REMARK    6  A    between atoms: _38  and  _43
REMARK    7  A    between atoms: _43  and  _46
REMARK    8  A    between atoms: _53  and  _55
REMARK                            x       y       z     vdW  Elec       q    Type
REMARK                         _______ _______ _______ _____ _____    ______ ____
ROOT
ATOM     10  C   UNL     1     -13.846  14.020  10.867  0.00  0.00    +0.038 A 
ATOM     11  C   UNL     1     -13.913  13.643  12.233  0.00  0.00    +0.047 A 
ATOM     12  C   UNL     1     -12.705  13.472  13.026  0.00  0.00    +0.035 A 
ATOM     32  C   UNL     1     -11.446  13.695  12.396  0.00  0.00    +0.024 A 
ATOM     33  C   UNL     1     -11.360  14.078  11.009  0.00  0.00    +0.007 A 
ATOM     34  C   UNL     1     -12.547  14.246  10.221  0.00  0.00    -0.029 A 
ATOM     35  C   UNL     1     -12.395  14.651   8.736  0.00  0.00    +0.045 C 
ENDROOT
BRANCH  10   9
ATOM      4  C   UNL     1     -17.536  12.239   8.368  0.00  0.00    +0.077 A 
ATOM      5  C   UNL     1     -17.036  10.898   8.471  0.00  0.00    +0.048 A 
ATOM      6  C   UNL     1     -15.822  10.711   9.169  0.00  0.00    +0.116 A 
ATOM      7  N   UNL     1     -15.166  11.791   9.720  0.00  0.00    -0.223 NA
ATOM      8  C   UNL     1     -15.675  13.071   9.600  0.00  0.00    +0.220 A 
ATOM      9  N   UNL     1     -15.037  14.170  10.153  0.00  0.00    -0.283 N 
ATOM     36  H   UNL     1     -15.441  15.099  10.036  0.00  0.00    +0.155 HD
ATOM     37  N   UNL     1     -16.832  13.276   8.937  0.00  0.00    -0.214 NA
BRANCH   4   3
ATOM      1  C   UNL     1     -20.752  14.139   7.207  0.00  0.00    +0.020 A 
ATOM      2  C   UNL     1     -19.528  13.840   7.914  0.00  0.00    +0.013 A 
ATOM      3  C   UNL     1     -18.808  12.598   7.664  0.00  0.00    +0.019 A 
ATOM     38  C   UNL     1     -19.357  11.672   6.685  0.00  0.00    +0.120 A 
ATOM     39  N   UNL     1     -20.539  11.986   6.020  0.00  0.00    -0.263 NA
ATOM     40  C   UNL     1     -21.241  13.178   6.253  0.00  0.00    +0.111 A 
ENDBRANCH   4   3
ENDBRANCH  10   9
BRANCH  12  13
ATOM     13  N   UNL     1     -12.711  13.083  14.414  0.00  0.00    -0.281 N 
ATOM     14  C   UNL     1     -12.015  13.661  15.463  0.00  0.00    +0.248 C 
ATOM     30  O   UNL     1     -11.112  14.474  15.330  0.00  0.00    -0.270 OA
ATOM     31  H   UNL     1     -13.298  12.284  14.652  0.00  0.00    +0.155 HD
BRANCH  14  15
ATOM     15  C   UNL     1     -12.364  13.270  16.863  0.00  0.00    +0.037 A 
ATOM     16  C   UNL     1     -11.815  12.056  17.472  0.00  0.00    +0.013 A 
ATOM     17  C   UNL     1     -12.181  11.693  18.818  0.00  0.00    +0.005 A 
ATOM     18  C   UNL     1     -13.101  12.548  19.566  0.00  0.00    -0.033 A 
ATOM     28  C   UNL     1     -13.626  13.749  18.939  0.00  0.00    +0.005 A 
ATOM     29  C   UNL     1     -13.271  14.108  17.620  0.00  0.00    +0.013 A 
BRANCH  18  19
ATOM     19  C   UNL     1     -13.562  12.226  20.999  0.00  0.00    +0.119 C 
BRANCH  19  20
ATOM     20  N   UNL     1     -14.585  11.151  21.164  0.00  0.00    -0.302 NA
ATOM     21  C   UNL     1     -15.888  11.479  20.429  0.00  0.00    +0.066 C 
ATOM     22  C   UNL     1     -16.938  10.333  20.593  0.00  0.00    -0.064 C 
ATOM     23  N   UNL     1     -17.201  10.094  22.081  0.00  0.00    +0.379 N 
ATOM     24  C   UNL     1     -18.231   9.057  22.237  0.00  0.00    -0.096 C 
ATOM     25  H   UNL     1     -17.606  11.040  22.509  0.00  0.00    -0.082 HD
ATOM     26  C   UNL     1     -15.910   9.769  22.819  0.00  0.00    -0.064 C 
ATOM     27  C   UNL     1     -14.862  10.901  22.626  0.00  0.00    +0.066 C 
ENDBRANCH  19  20
ENDBRANCH  18  19
ENDBRANCH  14  15
ENDBRANCH  12  13
TORSDOF 6
ENDMDL
MODEL 2
REMARK VINA RESULT:     -10.0      2.069     12.187
REMARK  Name = C:\Users\Docking\Desktop\test protocol\1iep_ligandH.pdb
REMARK  8 active torsions:
REMARK  status: ('A' for Active; 'I' for Inactive)
REMARK    1  A    between atoms: _5  and  _11
REMARK    2  A    between atoms: _19  and  _21
REMARK    3  A    between atoms: _22  and  _66
REMARK    4  A    between atoms: _27  and  _30
REMARK    5  A    between atoms: _32  and  _33
REMARK    6  A    between atoms: _38  and  _43
REMARK    7  A    between atoms: _43  and  _46
REMARK    8  A    between atoms: _53  and  _55
REMARK                            x       y       z     vdW  Elec       q    Type
REMARK                         _______ _______ _______ _____ _____    ______ ____
ROOT
ATOM     10  C   UNL     1     -12.496  12.697  13.643  0.00  0.00    +0.038 A 
ATOM     11  C   UNL     1     -13.668  12.559  12.856  0.00  0.00    +0.047 A 
ATOM     12  C   UNL     1     -13.753  13.138  11.525  0.00  0.00    +0.035 A 
ATOM     32  C   UNL     1     -12.624  13.851  11.025  0.00  0.00    +0.024 A 
ATOM     33  C   UNL     1     -11.426  14.003  11.812  0.00  0.00    +0.007 A 
ATOM     34  C   UNL     1     -11.337  13.435  13.127  0.00  0.00    -0.029 A 
ATOM     35  C   UNL     1     -10.029  13.634  13.929  0.00  0.00    +0.045 C 
ENDROOT
BRANCH  10   9
ATOM      4  C   UNL     1     -13.891  12.499  18.232  0.00  0.00    +0.077 A 
ATOM      5  C   UNL     1     -14.723  13.659  18.091  0.00  0.00    +0.048 A 
ATOM      6  C   UNL     1     -14.759  14.281  16.823  0.00  0.00    +0.116 A 
ATOM      7  N   UNL     1     -14.014  13.773  15.781  0.00  0.00    -0.223 NA
ATOM      8  C   UNL     1     -13.220  12.653  15.951  0.00  0.00    +0.220 A 
ATOM      9  N   UNL     1     -12.469  12.120  14.915  0.00  0.00    -0.283 N 
ATOM     36  H   UNL     1     -11.891  11.298  15.083  0.00  0.00    +0.155 HD
ATOM     37  N   UNL     1     -13.168  12.042  17.152  0.00  0.00    -0.214 NA
BRANCH   4   3
ATOM      1  C   UNL     1     -12.403  10.425  21.196  0.00  0.00    +0.020 A 
ATOM      2  C   UNL     1     -12.485  11.160  19.955  0.00  0.00    +0.013 A 
ATOM      3  C   UNL     1     -13.750  11.729  19.508  0.00  0.00    +0.019 A 
ATOM     38  C   UNL     1     -14.923  11.535  20.347  0.00  0.00    +0.120 A 
ATOM     39  N   UNL     1     -14.814  10.822  21.537  0.00  0.00    -0.263 NA
ATOM     40  C   UNL     1     -13.602  10.268  21.976  0.00  0.00    +0.111 A 
ENDBRANCH   4   3
ENDBRANCH  10   9
BRANCH  12  13
ATOM     13  N   UNL     1     -14.919  13.037  10.683  0.00  0.00    -0.281 N 
ATOM     14  C   UNL     1     -14.974  12.690   9.343  0.00  0.00    +0.248 C 
ATOM     30  O   UNL     1     -14.002  12.621   8.606  0.00  0.00    -0.270 OA
ATOM     31  H   UNL     1     -15.812  13.247  11.128  0.00  0.00    +0.155 HD
BRANCH  14  15
ATOM     15  C   UNL     1     -16.303  12.391   8.729  0.00  0.00    +0.037 A 
ATOM     16  C   UNL     1     -16.738  13.053   7.496  0.00  0.00    +0.013 A 
ATOM     17  C   UNL     1     -18.032  12.758   6.934  0.00  0.00    +0.005 A 
ATOM     18  C   UNL     1     -18.901  11.795   7.605  0.00  0.00    -0.033 A 
ATOM     28  C   UNL     1     -18.443  11.148   8.823  0.00  0.00    +0.005 A 
ATOM     29  C   UNL     1     -17.176  11.435   9.378  0.00  0.00    +0.013 A 
BRANCH  18  19
ATOM     19  C   UNL     1     -20.307  11.435   7.088  0.00  0.00    +0.119 C 
BRANCH  19  20
ATOM     20  N   UNL     1     -20.857  12.260   5.971  0.00  0.00    -0.302 NA
ATOM     21  C   UNL     1     -22.084  13.068   6.403  0.00  0.00    +0.066 C 
ATOM     22  C   UNL     1     -22.632  13.943   5.229  0.00  0.00    -0.064 C 
ATOM     23  N   UNL     1     -22.968  13.042   4.040  0.00  0.00    +0.379 N 
ATOM     24  C   UNL     1     -23.538  13.854   2.955  0.00  0.00    -0.096 C 
ATOM     25  H   UNL     1     -23.753  12.322   4.372  0.00  0.00    -0.082 HD
ATOM     26  C   UNL     1     -21.754  12.233   3.605  0.00  0.00    -0.064 C 
ATOM     27  C   UNL     1     -21.200  11.390   4.787  0.00  0.00    +0.066 C 
ENDBRANCH  19  20
ENDBRANCH  18  19
ENDBRANCH  14  15
ENDBRANCH  12  13
TORSDOF 6
ENDMDL
MODEL 3
REMARK VINA RESULT:      -9.9      4.495      8.562
REMARK  Name = C:\Users\Docking\Desktop\test protocol\1iep_ligandH.pdb
REMARK  8 active torsions:
REMARK  status: ('A' for Active; 'I' for Inactive)
REMARK    1  A    between atoms: _5  and  _11
REMARK    2  A    between atoms: _19  and  _21
REMARK    3  A    between atoms: _22  and  _66
REMARK    4  A    between atoms: _27  and  _30
REMARK    5  A    between atoms: _32  and  _33
REMARK    6  A    between atoms: _38  and  _43
REMARK    7  A    between atoms: _43  and  _46
REMARK    8  A    between atoms: _53  and  _55
REMARK                            x       y       z     vdW  Elec       q    Type
REMARK                         _______ _______ _______ _____ _____    ______ ____
ROOT
ATOM     10  C   UNL     1     -12.747  13.250  18.776  0.00  0.00    +0.038 A 
ATOM     11  C   UNL     1     -13.082  12.025  19.408  0.00  0.00    +0.047 A 
ATOM     12  C   UNL     1     -12.711  11.765  20.790  0.00  0.00    +0.035 A 
ATOM     32  C   UNL     1     -12.001  12.776  21.500  0.00  0.00    +0.024 A 
ATOM     33  C   UNL     1     -11.651  14.027  20.874  0.00  0.00    +0.007 A 
ATOM     34  C   UNL     1     -12.013  14.288  19.510  0.00  0.00    -0.029 A 
ATOM     35  C   UNL     1     -11.606  15.644  18.887  0.00  0.00    +0.045 C 
ENDROOT
BRANCH  10   9
ATOM      4  C   UNL     1     -11.964  12.909  14.053  0.00  0.00    +0.077 A 
ATOM      5  C   UNL     1     -10.674  12.313  14.250  0.00  0.00    +0.048 A 
ATOM      6  C   UNL     1     -10.246  12.117  15.582  0.00  0.00    +0.116 A 
ATOM      7  N   UNL     1     -11.056  12.494  16.632  0.00  0.00    -0.223 NA
ATOM      8  C   UNL     1     -12.294  13.068  16.407  0.00  0.00    +0.220 A 
ATOM      9  N   UNL     1     -13.129  13.447  17.447  0.00  0.00    -0.283 N 
ATOM     36  H   UNL     1     -14.031  13.874  17.239  0.00  0.00    +0.155 HD
ATOM     37  N   UNL     1     -12.725  13.267  15.144  0.00  0.00    -0.214 NA
BRANCH   4   3
ATOM      1  C   UNL     1     -14.447  13.089  11.035  0.00  0.00    +0.020 A 
ATOM      2  C   UNL     1     -13.922  12.807  12.352  0.00  0.00    +0.013 A 
ATOM      3  C   UNL     1     -12.557  13.177  12.705  0.00  0.00    +0.019 A 
ATOM     38  C   UNL     1     -11.743  13.837  11.695  0.00  0.00    +0.120 A 
ATOM     39  N   UNL     1     -12.275  14.094  10.435  0.00  0.00    -0.263 NA
ATOM     40  C   UNL     1     -13.586  13.741  10.083  0.00  0.00    +0.111 A 
ENDBRANCH   4   3
ENDBRANCH  10   9
BRANCH  12  13
ATOM     13  N   UNL     1     -13.016  10.537  21.481  0.00  0.00    -0.281 N 
ATOM     14  C   UNL     1     -13.655  10.383  22.701  0.00  0.00    +0.248 C 
ATOM     30  O   UNL     1     -13.871  11.292  23.487  0.00  0.00    -0.270 OA
ATOM     31  H   UNL     1     -12.726   9.677  21.015  0.00  0.00    +0.155 HD
BRANCH  14  15
ATOM     15  C   UNL     1     -14.105   9.018  23.112  0.00  0.00    +0.037 A 
ATOM     16  C   UNL     1     -15.497   8.759  23.487  0.00  0.00    +0.013 A 
ATOM     17  C   UNL     1     -15.902   7.437  23.897  0.00  0.00    +0.005 A 
ATOM     18  C   UNL     1     -14.911   6.364  23.931  0.00  0.00    -0.033 A 
ATOM     28  C   UNL     1     -13.538   6.648  23.549  0.00  0.00    +0.005 A 
ATOM     29  C   UNL     1     -13.138   7.942  23.148  0.00  0.00    +0.013 A 
BRANCH  18  19
ATOM     19  C   UNL     1     -15.249   4.928  24.375  0.00  0.00    +0.119 C 
BRANCH  19  20
ATOM     20  N   UNL     1     -14.124   4.087  24.882  0.00  0.00    -0.302 NA
ATOM     21  C   UNL     1     -14.300   2.610  24.516  0.00  0.00    +0.066 C 
ATOM     22  C   UNL     1     -13.103   1.748  25.034  0.00  0.00    -0.064 C 
ATOM     23  N   UNL     1     -12.974   1.919  26.549  0.00  0.00    +0.379 N 
ATOM     24  C   UNL     1     -11.886   1.065  27.048  0.00  0.00    -0.096 C 
ATOM     25  H   UNL     1     -13.924   1.562  27.011  0.00  0.00    -0.082 HD
ATOM     26  C   UNL     1     -12.801   3.384  26.922  0.00  0.00    -0.064 C 
ATOM     27  C   UNL     1     -13.981   4.237  26.377  0.00  0.00    +0.066 C 
ENDBRANCH  19  20
ENDBRANCH  18  19
ENDBRANCH  14  15
ENDBRANCH  12  13
TORSDOF 6
ENDMDL
MODEL 4
REMARK VINA RESULT:      -9.5      3.787      7.908
REMARK  Name = C:\Users\Docking\Desktop\test protocol\1iep_ligandH.pdb
REMARK  8 active torsions:
REMARK  status: ('A' for Active; 'I' for Inactive)
REMARK    1  A    between atoms: _5  and  _11
REMARK    2  A    between atoms: _19  and  _21
REMARK    3  A    between atoms: _22  and  _66
REMARK    4  A    between atoms: _27  and  _30
REMARK    5  A    between atoms: _32  and  _33
REMARK    6  A    between atoms: _38  and  _43
REMARK    7  A    between atoms: _43  and  _46
REMARK    8  A    between atoms: _53  and  _55
REMARK                            x       y       z     vdW  Elec       q    Type
REMARK                         _______ _______ _______ _____ _____    ______ ____
ROOT
ATOM     10  C   UNL     1     -12.231  13.224  18.355  0.00  0.00    +0.038 A 
ATOM     11  C   UNL     1     -12.764  12.138  19.095  0.00  0.00    +0.047 A 
ATOM     12  C   UNL     1     -12.296  11.842  20.440  0.00  0.00    +0.035 A 
ATOM     32  C   UNL     1     -11.286  12.676  21.002  0.00  0.00    +0.024 A 
ATOM     33  C   UNL     1     -10.733  13.784  20.263  0.00  0.00    +0.007 A 
ATOM     34  C   UNL     1     -11.189  14.078  18.935  0.00  0.00    -0.029 A 
ATOM     35  C   UNL     1     -10.555  15.275  18.187  0.00  0.00    +0.045 C 
ENDROOT
BRANCH  10   9
ATOM      4  C   UNL     1     -11.943  12.823  13.580  0.00  0.00    +0.077 A 
ATOM      5  C   UNL     1     -10.705  12.102  13.656  0.00  0.00    +0.048 A 
ATOM      6  C   UNL     1     -10.173  11.861  14.943  0.00  0.00    +0.116 A 
ATOM      7  N   UNL     1     -10.837  12.312  16.063  0.00  0.00    -0.223 NA
ATOM      8  C   UNL     1     -12.028  13.006  15.954  0.00  0.00    +0.220 A 
ATOM      9  N   UNL     1     -12.718  13.462  17.067  0.00  0.00    -0.283 N 
ATOM     36  H   UNL     1     -13.589  13.977  16.944  0.00  0.00    +0.155 HD
ATOM     37  N   UNL     1     -12.557  13.250  14.737  0.00  0.00    -0.214 NA
BRANCH   4   3
ATOM      1  C   UNL     1     -14.640  13.137  10.764  0.00  0.00    +0.020 A 
ATOM      2  C   UNL     1     -14.020  12.794  12.024  0.00  0.00    +0.013 A 
ATOM      3  C   UNL     1     -12.634  13.153  12.293  0.00  0.00    +0.019 A 
ATOM     38  C   UNL     1     -11.896  13.864  11.260  0.00  0.00    +0.120 A 
ATOM     39  N   UNL     1     -12.519  14.179  10.056  0.00  0.00    -0.263 NA
ATOM     40  C   UNL     1     -13.852  13.838   9.785  0.00  0.00    +0.111 A 
ENDBRANCH   4   3
ENDBRANCH  10   9
BRANCH  12  13
ATOM     13  N   UNL     1     -12.794  10.748  21.236  0.00  0.00    -0.281 N 
ATOM     14  C   UNL     1     -13.587  10.812  22.370  0.00  0.00    +0.248 C 
ATOM     30  O   UNL     1     -13.814  11.835  22.998  0.00  0.00    -0.270 OA
ATOM     31  H   UNL     1     -12.529   9.813  20.927  0.00  0.00    +0.155 HD
BRANCH  14  15
ATOM     15  C   UNL     1     -14.206   9.555  22.890  0.00  0.00    +0.037 A 
ATOM     16  C   UNL     1     -13.390   8.382  23.211  0.00  0.00    +0.013 A 
ATOM     17  C   UNL     1     -14.014   7.176  23.694  0.00  0.00    +0.005 A 
ATOM     18  C   UNL     1     -15.465   7.138  23.861  0.00  0.00    -0.033 A 
ATOM     28  C   UNL     1     -16.251   8.318  23.540  0.00  0.00    +0.005 A 
ATOM     29  C   UNL     1     -15.642   9.501  23.065  0.00  0.00    +0.013 A 
BRANCH  18  19
ATOM     19  C   UNL     1     -16.218   5.887  24.351  0.00  0.00    +0.119 C 
BRANCH  19  20
ATOM     20  N   UNL     1     -16.122   5.556  25.804  0.00  0.00    -0.302 NA
ATOM     21  C   UNL     1     -15.983   6.811  26.671  0.00  0.00    +0.066 C 
ATOM     22  C   UNL     1     -15.906   6.448  28.190  0.00  0.00    -0.064 C 
ATOM     23  N   UNL     1     -14.733   5.495  28.425  0.00  0.00    +0.379 N 
ATOM     24  C   UNL     1     -14.622   5.198  29.860  0.00  0.00    -0.096 C 
ATOM     25  H   UNL     1     -13.801   6.024  28.116  0.00  0.00    -0.082 HD
ATOM     26  C   UNL     1     -14.861   4.246  27.564  0.00  0.00    -0.064 C 
ATOM     27  C   UNL     1     -14.967   4.620  26.059  0.00  0.00    +0.066 C 
ENDBRANCH  19  20
ENDBRANCH  18  19
ENDBRANCH  14  15
ENDBRANCH  12  13
TORSDOF 6
ENDMDL
MODEL 5
REMARK VINA RESULT:      -9.0      2.029     11.500
REMARK  Name = C:\Users\Docking\Desktop\test protocol\1iep_ligandH.pdb
REMARK  8 active torsions:
REMARK  status: ('A' for Active; 'I' for Inactive)
REMARK    1  A    between atoms: _5  and  _11
REMARK    2  A    between atoms: _19  and  _21
REMARK    3  A    between atoms: _22  and  _66
REMARK    4  A    between atoms: _27  and  _30
REMARK    5  A    between atoms: _32  and  _33
REMARK    6  A    between atoms: _38  and  _43
REMARK    7  A    between atoms: _43  and  _46
REMARK    8  A    between atoms: _53  and  _55
REMARK                            x       y       z     vdW  Elec       q    Type
REMARK                         _______ _______ _______ _____ _____    ______ ____
ROOT
ATOM     10  C   UNL     1     -11.959  12.736  15.453  0.00  0.00    +0.038 A 
ATOM     11  C   UNL     1     -12.969  12.424  14.507  0.00  0.00    +0.047 A 
ATOM     12  C   UNL     1     -12.897  12.915  13.140  0.00  0.00    +0.035 A 
ATOM     32  C   UNL     1     -11.780  13.720  12.769  0.00  0.00    +0.024 A 
ATOM     33  C   UNL     1     -10.745  14.047  13.718  0.00  0.00    +0.007 A 
ATOM     34  C   UNL     1     -10.812  13.568  15.069  0.00  0.00    -0.029 A 
ATOM     35  C   UNL     1      -9.678  13.955  16.046  0.00  0.00    +0.045 C 
ENDROOT
BRANCH  10   9
ATOM      4  C   UNL     1     -14.477  11.914  19.456  0.00  0.00    +0.077 A 
ATOM      5  C   UNL     1     -15.644  12.556  18.924  0.00  0.00    +0.048 A 
ATOM      6  C   UNL     1     -15.553  13.091  17.620  0.00  0.00    +0.116 A 
ATOM      7  N   UNL     1     -14.377  12.985  16.909  0.00  0.00    -0.223 NA
ATOM      8  C   UNL     1     -13.269  12.361  17.452  0.00  0.00    +0.220 A 
ATOM      9  N   UNL     1     -12.079  12.237  16.752  0.00  0.00    -0.283 N 
ATOM     36  H   UNL     1     -11.282  11.776  17.191  0.00  0.00    +0.155 HD
ATOM     37  N   UNL     1     -13.330  11.844  18.697  0.00  0.00    -0.214 NA
BRANCH   4   3
ATOM      1  C   UNL     1     -13.296   9.896  22.592  0.00  0.00    +0.020 A 
ATOM      2  C   UNL     1     -13.305  10.468  21.266  0.00  0.00    +0.013 A 
ATOM      3  C   UNL     1     -14.417  11.297  20.819  0.00  0.00    +0.019 A 
ATOM     38  C   UNL     1     -15.514  11.530  21.747  0.00  0.00    +0.120 A 
ATOM     39  N   UNL     1     -15.479  10.965  23.018  0.00  0.00    -0.263 NA
ATOM     40  C   UNL     1     -14.414  10.165  23.458  0.00  0.00    +0.111 A 
ENDBRANCH   4   3
ENDBRANCH  10   9
BRANCH  12  13
ATOM     13  N   UNL     1     -13.896  12.638  12.138  0.00  0.00    -0.281 N 
ATOM     14  C   UNL     1     -13.882  12.995  10.800  0.00  0.00    +0.248 C 
ATOM     30  O   UNL     1     -13.102  13.797  10.306  0.00  0.00    -0.270 OA
ATOM     31  H   UNL     1     -14.713  12.116  12.454  0.00  0.00    +0.155 HD
BRANCH  14  15
ATOM     15  C   UNL     1     -14.889  12.385   9.879  0.00  0.00    +0.037 A 
ATOM     16  C   UNL     1     -15.871  11.412  10.364  0.00  0.00    +0.013 A 
ATOM     17  C   UNL     1     -16.820  10.825   9.451  0.00  0.00    +0.005 A 
ATOM     18  C   UNL     1     -16.792  11.212   8.043  0.00  0.00    -0.033 A 
ATOM     28  C   UNL     1     -15.810  12.183   7.589  0.00  0.00    +0.005 A 
ATOM     29  C   UNL     1     -14.878  12.759   8.481  0.00  0.00    +0.013 A 
BRANCH  18  19
ATOM     19  C   UNL     1     -17.752  10.621   6.994  0.00  0.00    +0.119 C 
BRANCH  19  20
ATOM     20  N   UNL     1     -19.069  11.302   6.813  0.00  0.00    -0.302 NA
ATOM     21  C   UNL     1     -19.096  12.685   7.469  0.00  0.00    +0.066 C 
ATOM     22  C   UNL     1     -20.473  13.392   7.251  0.00  0.00    -0.064 C 
ATOM     23  N   UNL     1     -21.591  12.508   7.805  0.00  0.00    +0.379 N 
ATOM     24  C   UNL     1     -22.881  13.196   7.654  0.00  0.00    -0.096 C 
ATOM     25  H   UNL     1     -21.406  12.373   8.896  0.00  0.00    -0.082 HD
ATOM     26  C   UNL     1     -21.570  11.130   7.160  0.00  0.00    -0.064 C 
ATOM     27  C   UNL     1     -20.188  10.448   7.357  0.00  0.00    +0.066 C 
ENDBRANCH  19  20
ENDBRANCH  18  19
ENDBRANCH  14  15
ENDBRANCH  12  13
TORSDOF 6
ENDMDL
