MODEL 1
REMARK VINA RESULT:     -11.1      0.000      0.000
REMARK  Name = C:\Users\Docking\Desktop\test protocol\1iep_ligandH.pdb
REMARK  8 active torsions:
REMARK  status: ('A' for Active; 'I' for Inactive)
REMARK    1  A    between atoms: _5  and  _11
REMARK    2  A    between atoms: _19  and  _21
REMARK    3  A    between atoms: _22  and  _66
REMARK    4  A    between atoms: _27  and  _30
REMARK    5  A    between atoms: _32  and  _33
REMARK    6  A    between atoms: _38  and  _43
REMARK    7  A    between atoms: _43  and  _46
REMARK    8  A    between atoms: _53  and  _55
REMARK                            x       y       z     vdW  Elec       q    Type
REMARK                         _______ _______ _______ _____ _____    ______ ____
ROOT
ATOM     10  C   UNL     1      14.611  -6.041  20.070  0.00  0.00    +0.038 A 
ATOM     11  C   UNL     1      13.550  -6.851  20.548  0.00  0.00    +0.047 A 
ATOM     12  C   UNL     1      12.216  -6.306  20.743  0.00  0.00    +0.035 A 
ATOM     32  C   UNL     1      11.997  -4.931  20.438  0.00  0.00    +0.024 A 
ATOM     33  C   UNL     1      13.064  -4.092  19.952  0.00  0.00    +0.007 A 
ATOM     34  C   UNL     1      14.383  -4.624  19.760  0.00  0.00    -0.029 A 
ATOM     35  C   UNL     1      15.491  -3.678  19.242  0.00  0.00    +0.045 C 
ENDROOT
BRANCH  10   9
ATOM      4  C   UNL     1      18.102  -9.052  21.405  0.00  0.00    +0.077 A 
ATOM      5  C   UNL     1      17.362  -9.496  22.550  0.00  0.00    +0.048 A 
ATOM      6  C   UNL     1      16.090  -8.920  22.765  0.00  0.00    +0.116 A 
ATOM      7  N   UNL     1      15.604  -7.971  21.891  0.00  0.00    -0.223 NA
ATOM      8  C   UNL     1      16.345  -7.564  20.797  0.00  0.00    +0.220 A 
ATOM      9  N   UNL     1      15.872  -6.617  19.901  0.00  0.00    -0.283 N 
ATOM     36  H   UNL     1      16.452  -6.338  19.110  0.00  0.00    +0.155 HD
ATOM     37  N   UNL     1      17.563  -8.098  20.571  0.00  0.00    -0.214 NA
BRANCH   4   3
ATOM      1  C   UNL     1      21.225 -10.234  19.367  0.00  0.00    +0.020 A 
ATOM      2  C   UNL     1      19.904  -9.731  19.663  0.00  0.00    +0.013 A 
ATOM      3  C   UNL     1      19.460  -9.570  21.042  0.00  0.00    +0.019 A 
ATOM     38  C   UNL     1      20.384  -9.930  22.106  0.00  0.00    +0.120 A 
ATOM     39  N   UNL     1      21.650 -10.414  21.791  0.00  0.00    -0.263 NA
ATOM     40  C   UNL     1      22.088 -10.574  20.468  0.00  0.00    +0.111 A 
ENDBRANCH   4   3
ENDBRANCH  10   9
BRANCH  12  13
ATOM     13  N   UNL     1      11.101  -7.078  21.234  0.00  0.00    -0.281 N 
ATOM     14  C   UNL     1       9.765  -6.962  20.885  0.00  0.00    +0.248 C 
ATOM     30  O   UNL     1       9.295  -6.028  20.253  0.00  0.00    -0.270 OA
ATOM     31  H   UNL     1      11.324  -7.797  21.922  0.00  0.00    +0.155 HD
BRANCH  14  15
ATOM     15  C   UNL     1       8.812  -8.030  21.313  0.00  0.00    +0.037 A 
ATOM     16  C   UNL     1       8.891  -9.385  20.760  0.00  0.00    +0.013 A 
ATOM     17  C   UNL     1       7.948 -10.392  21.177  0.00  0.00    +0.005 A 
ATOM     18  C   UNL     1       6.919 -10.049  22.155  0.00  0.00    -0.033 A 
ATOM     28  C   UNL     1       6.867  -8.699  22.692  0.00  0.00    +0.005 A 
ATOM     29  C   UNL     1       7.789  -7.709  22.285  0.00  0.00    +0.013 A 
BRANCH  18  19
ATOM     19  C   UNL     1       5.858 -11.054  22.641  0.00  0.00    +0.119 C 
BRANCH  19  20
ATOM     20  N   UNL     1       4.681 -10.504  23.377  0.00  0.00    -0.302 NA
ATOM     21  C   UNL     1       4.690 -10.902  24.855  0.00  0.00    +0.066 C 
ATOM     22  C   UNL     1       3.463 -10.299  25.614  0.00  0.00    -0.064 C 
ATOM     23  N   UNL     1       2.171 -10.761  24.937  0.00  0.00    +0.379 N 
ATOM     24  C   UNL     1       1.014 -10.243  25.683  0.00  0.00    -0.096 C 
ATOM     25  H   UNL     1       2.139 -11.874  24.993  0.00  0.00    -0.082 HD
ATOM     26  C   UNL     1       2.155 -10.372  23.466  0.00  0.00    -0.064 C 
ATOM     27  C   UNL     1       3.394 -10.951  22.727  0.00  0.00    +0.066 C 
ENDBRANCH  19  20
ENDBRANCH  18  19
ENDBRANCH  14  15
ENDBRANCH  12  13
TORSDOF 6
ENDMDL
MODEL 2
REMARK VINA RESULT:     -10.9      1.581      2.282
REMARK  Name = C:\Users\Docking\Desktop\test protocol\1iep_ligandH.pdb
REMARK  8 active torsions:
REMARK  status: ('A' for Active; 'I' for Inactive)
REMARK    1  A    between atoms: _5  and  _11
REMARK    2  A    between atoms: _19  and  _21
REMARK    3  A    between atoms: _22  and  _66
REMARK    4  A    between atoms: _27  and  _30
REMARK    5  A    between atoms: _32  and  _33
REMARK    6  A    between atoms: _38  and  _43
REMARK    7  A    between atoms: _43  and  _46
REMARK    8  A    between atoms: _53  and  _55
REMARK                            x       y       z     vdW  Elec       q    Type
REMARK                         _______ _______ _______ _____ _____    ______ ____
ROOT
ATOM     10  C   UNL     1      14.364  -6.102  20.224  0.00  0.00    +0.038 A 
ATOM     11  C   UNL     1      13.331  -6.986  20.628  0.00  0.00    +0.047 A 
ATOM     12  C   UNL     1      11.966  -6.516  20.806  0.00  0.00    +0.035 A 
ATOM     32  C   UNL     1      11.687  -5.140  20.561  0.00  0.00    +0.024 A 
ATOM     33  C   UNL     1      12.725  -4.227  20.151  0.00  0.00    +0.007 A 
ATOM     34  C   UNL     1      14.074  -4.684  19.977  0.00  0.00    -0.029 A 
ATOM     35  C   UNL     1      15.148  -3.660  19.542  0.00  0.00    +0.045 C 
ENDROOT
BRANCH  10   9
ATOM      4  C   UNL     1      17.910  -9.104  21.430  0.00  0.00    +0.077 A 
ATOM      5  C   UNL     1      17.129  -9.700  22.476  0.00  0.00    +0.048 A 
ATOM      6  C   UNL     1      15.823  -9.200  22.676  0.00  0.00    +0.116 A 
ATOM      7  N   UNL     1      15.343  -8.180  21.882  0.00  0.00    -0.223 NA
ATOM      8  C   UNL     1      16.122  -7.627  20.883  0.00  0.00    +0.220 A 
ATOM      9  N   UNL     1      15.657  -6.606  20.069  0.00  0.00    -0.283 N 
ATOM     36  H   UNL     1      16.266  -6.219  19.348  0.00  0.00    +0.155 HD
ATOM     37  N   UNL     1      17.374  -8.085  20.673  0.00  0.00    -0.214 NA
BRANCH   4   3
ATOM      1  C   UNL     1      21.611 -10.333  21.726  0.00  0.00    +0.020 A 
ATOM      2  C   UNL     1      20.275  -9.934  22.103  0.00  0.00    +0.013 A 
ATOM      3  C   UNL     1      19.306  -9.525  21.094  0.00  0.00    +0.019 A 
ATOM     38  C   UNL     1      19.725  -9.532  19.700  0.00  0.00    +0.120 A 
ATOM     39  N   UNL     1      21.019  -9.919  19.367  0.00  0.00    -0.263 NA
ATOM     40  C   UNL     1      21.960 -10.313  20.329  0.00  0.00    +0.111 A 
ENDBRANCH   4   3
ENDBRANCH  10   9
BRANCH  12  13
ATOM     13  N   UNL     1      10.877  -7.365  21.222  0.00  0.00    -0.281 N 
ATOM     14  C   UNL     1       9.536  -7.254  20.893  0.00  0.00    +0.248 C 
ATOM     30  O   UNL     1       9.035  -6.276  20.358  0.00  0.00    -0.270 OA
ATOM     31  H   UNL     1      11.125  -8.143  21.834  0.00  0.00    +0.155 HD
BRANCH  14  15
ATOM     15  C   UNL     1       8.617  -8.388  21.216  0.00  0.00    +0.037 A 
ATOM     16  C   UNL     1       7.491  -8.214  22.137  0.00  0.00    +0.013 A 
ATOM     17  C   UNL     1       6.630  -9.328  22.445  0.00  0.00    +0.005 A 
ATOM     18  C   UNL     1       6.891 -10.627  21.829  0.00  0.00    -0.033 A 
ATOM     28  C   UNL     1       8.012 -10.770  20.915  0.00  0.00    +0.005 A 
ATOM     29  C   UNL     1       8.859  -9.680  20.611  0.00  0.00    +0.013 A 
BRANCH  18  19
ATOM     19  C   UNL     1       6.036 -11.875  22.116  0.00  0.00    +0.119 C 
BRANCH  19  20
ATOM     20  N   UNL     1       6.143 -12.478  23.478  0.00  0.00    -0.302 NA
ATOM     21  C   UNL     1       6.351 -13.994  23.421  0.00  0.00    +0.066 C 
ATOM     22  C   UNL     1       6.483 -14.605  24.854  0.00  0.00    -0.064 C 
ATOM     23  N   UNL     1       5.235 -14.260  25.669  0.00  0.00    +0.379 N 
ATOM     24  C   UNL     1       5.330 -14.882  26.998  0.00  0.00    -0.096 C 
ATOM     25  H   UNL     1       4.357 -14.707  25.148  0.00  0.00    -0.082 HD
ATOM     26  C   UNL     1       5.019 -12.755  25.729  0.00  0.00    -0.064 C 
ATOM     27  C   UNL     1       4.919 -12.154  24.299  0.00  0.00    +0.066 C 
ENDBRANCH  19  20
ENDBRANCH  18  19
ENDBRANCH  14  15
ENDBRANCH  12  13
TORSDOF 6
ENDMDL
MODEL 3
REMARK VINA RESULT:     -10.1      2.468      3.283
REMARK  Name = C:\Users\Docking\Desktop\test protocol\1iep_ligandH.pdb
REMARK  8 active torsions:
REMARK  status: ('A' for Active; 'I' for Inactive)
REMARK    1  A    between atoms: _5  and  _11
REMARK    2  A    between atoms: _19  and  _21
REMARK    3  A    between atoms: _22  and  _66
REMARK    4  A    between atoms: _27  and  _30
REMARK    5  A    between atoms: _32  and  _33
REMARK    6  A    between atoms: _38  and  _43
REMARK    7  A    between atoms: _43  and  _46
REMARK    8  A    between atoms: _53  and  _55
REMARK                            x       y       z     vdW  Elec       q    Type
REMARK                         _______ _______ _______ _____ _____    ______ ____
ROOT
ATOM     10  C   UNL     1      14.018  -6.285  20.236  0.00  0.00    +0.038 A 
ATOM     11  C   UNL     1      13.001  -7.220  20.555  0.00  0.00    +0.047 A 
ATOM     12  C   UNL     1      11.622  -6.798  20.740  0.00  0.00    +0.035 A 
ATOM     32  C   UNL     1      11.313  -5.415  20.589  0.00  0.00    +0.024 A 
ATOM     33  C   UNL     1      12.334  -4.450  20.265  0.00  0.00    +0.007 A 
ATOM     34  C   UNL     1      13.697  -4.861  20.084  0.00  0.00    -0.029 A 
ATOM     35  C   UNL     1      14.752  -3.782  19.745  0.00  0.00    +0.045 C 
ENDROOT
BRANCH  10   9
ATOM      4  C   UNL     1      17.721  -9.063  21.505  0.00  0.00    +0.077 A 
ATOM      5  C   UNL     1      16.997  -9.625  22.609  0.00  0.00    +0.048 A 
ATOM      6  C   UNL     1      15.677  -9.167  22.820  0.00  0.00    +0.116 A 
ATOM      7  N   UNL     1      15.132  -8.218  21.983  0.00  0.00    -0.223 NA
ATOM      8  C   UNL     1      15.858  -7.695  20.929  0.00  0.00    +0.220 A 
ATOM      9  N   UNL     1      15.327  -6.746  20.070  0.00  0.00    -0.283 N 
ATOM     36  H   UNL     1      15.897  -6.380  19.308  0.00  0.00    +0.155 HD
ATOM     37  N   UNL     1      17.121  -8.115  20.707  0.00  0.00    -0.214 NA
BRANCH   4   3
ATOM      1  C   UNL     1      21.457 -10.196  21.753  0.00  0.00    +0.020 A 
ATOM      2  C   UNL     1      20.115  -9.833  22.148  0.00  0.00    +0.013 A 
ATOM      3  C   UNL     1      19.124  -9.448  21.151  0.00  0.00    +0.019 A 
ATOM     38  C   UNL     1      19.525  -9.441  19.753  0.00  0.00    +0.120 A 
ATOM     39  N   UNL     1      20.824  -9.795  19.402  0.00  0.00    -0.263 NA
ATOM     40  C   UNL     1      21.787 -10.165  20.352  0.00  0.00    +0.111 A 
ENDBRANCH   4   3
ENDBRANCH  10   9
BRANCH  12  13
ATOM     13  N   UNL     1      10.548  -7.701  21.073  0.00  0.00    -0.281 N 
ATOM     14  C   UNL     1       9.191  -7.530  20.852  0.00  0.00    +0.248 C 
ATOM     30  O   UNL     1       8.673  -6.473  20.523  0.00  0.00    -0.270 OA
ATOM     31  H   UNL     1      10.821  -8.572  21.528  0.00  0.00    +0.155 HD
BRANCH  14  15
ATOM     15  C   UNL     1       8.277  -8.697  21.035  0.00  0.00    +0.037 A 
ATOM     16  C   UNL     1       8.762 -10.073  20.893  0.00  0.00    +0.013 A 
ATOM     17  C   UNL     1       7.855 -11.180  21.058  0.00  0.00    +0.005 A 
ATOM     18  C   UNL     1       6.452 -10.917  21.369  0.00  0.00    -0.033 A 
ATOM     28  C   UNL     1       5.998  -9.543  21.509  0.00  0.00    +0.005 A 
ATOM     29  C   UNL     1       6.884  -8.455  21.347  0.00  0.00    +0.013 A 
BRANCH  18  19
ATOM     19  C   UNL     1       5.409 -12.037  21.541  0.00  0.00    +0.119 C 
BRANCH  19  20
ATOM     20  N   UNL     1       5.461 -13.174  20.575  0.00  0.00    -0.302 NA
ATOM     21  C   UNL     1       4.912 -12.785  19.199  0.00  0.00    +0.066 C 
ATOM     22  C   UNL     1       4.995 -13.980  18.194  0.00  0.00    -0.064 C 
ATOM     23  N   UNL     1       4.230 -15.176  18.764  0.00  0.00    +0.379 N 
ATOM     24  C   UNL     1       4.257 -16.282  17.796  0.00  0.00    -0.096 C 
ATOM     25  H   UNL     1       3.167 -14.866  18.895  0.00  0.00    -0.082 HD
ATOM     26  C   UNL     1       4.768 -15.568  20.133  0.00  0.00    -0.064 C 
ATOM     27  C   UNL     1       4.708 -14.365  21.116  0.00  0.00    +0.066 C 
ENDBRANCH  19  20
ENDBRANCH  18  19
ENDBRANCH  14  15
ENDBRANCH  12  13
TORSDOF 6
ENDMDL
MODEL 4
REMARK VINA RESULT:      -9.6      2.239      2.944
REMARK  Name = C:\Users\Docking\Desktop\test protocol\1iep_ligandH.pdb
REMARK  8 active torsions:
REMARK  status: ('A' for Active; 'I' for Inactive)
REMARK    1  A    between atoms: _5  and  _11
REMARK    2  A    between atoms: _19  and  _21
REMARK    3  A    between atoms: _22  and  _66
REMARK    4  A    between atoms: _27  and  _30
REMARK    5  A    between atoms: _32  and  _33
REMARK    6  A    between atoms: _38  and  _43
REMARK    7  A    between atoms: _43  and  _46
REMARK    8  A    between atoms: _53  and  _55
REMARK                            x       y       z     vdW  Elec       q    Type
REMARK                         _______ _______ _______ _____ _____    ______ ____
ROOT
ATOM     10  C   UNL     1      12.987  -6.126  20.343  0.00  0.00    +0.038 A 
ATOM     11  C   UNL     1      12.067  -7.144  20.702  0.00  0.00    +0.047 A 
ATOM     12  C   UNL     1      10.695  -6.825  21.064  0.00  0.00    +0.035 A 
ATOM     32  C   UNL     1      10.292  -5.458  21.046  0.00  0.00    +0.024 A 
ATOM     33  C   UNL     1      11.214  -4.410  20.684  0.00  0.00    +0.007 A 
ATOM     34  C   UNL     1      12.570  -4.719  20.329  0.00  0.00    -0.029 A 
ATOM     35  C   UNL     1      13.517  -3.555  19.956  0.00  0.00    +0.045 C 
ENDROOT
BRANCH  10   9
ATOM      4  C   UNL     1      16.985  -8.686  21.046  0.00  0.00    +0.077 A 
ATOM      5  C   UNL     1      16.437  -9.335  22.202  0.00  0.00    +0.048 A 
ATOM      6  C   UNL     1      15.126  -8.977  22.587  0.00  0.00    +0.116 A 
ATOM      7  N   UNL     1      14.424  -8.038  21.862  0.00  0.00    -0.223 NA
ATOM      8  C   UNL     1      14.983  -7.430  20.753  0.00  0.00    +0.220 A 
ATOM      9  N   UNL     1      14.292  -6.490  20.004  0.00  0.00    -0.283 N 
ATOM     36  H   UNL     1      14.742  -6.058  19.197  0.00  0.00    +0.155 HD
ATOM     37  N   UNL     1      16.234  -7.754  20.366  0.00  0.00    -0.214 NA
BRANCH   4   3
ATOM      1  C   UNL     1      20.437 -10.375  20.312  0.00  0.00    +0.020 A 
ATOM      2  C   UNL     1      19.115 -10.157  20.855  0.00  0.00    +0.013 A 
ATOM      3  C   UNL     1      18.357  -8.960  20.513  0.00  0.00    +0.019 A 
ATOM     38  C   UNL     1      18.969  -7.996  19.612  0.00  0.00    +0.120 A 
ATOM     39  N   UNL     1      20.244  -8.231  19.106  0.00  0.00    -0.263 NA
ATOM     40  C   UNL     1      20.983  -9.379  19.429  0.00  0.00    +0.111 A 
ENDBRANCH   4   3
ENDBRANCH  10   9
BRANCH  12  13
ATOM     13  N   UNL     1       9.718  -7.815  21.446  0.00  0.00    -0.281 N 
ATOM     14  C   UNL     1       9.030  -8.693  20.624  0.00  0.00    +0.248 C 
ATOM     30  O   UNL     1       8.992  -8.614  19.406  0.00  0.00    -0.270 OA
ATOM     31  H   UNL     1       9.510  -7.876  22.442  0.00  0.00    +0.155 HD
BRANCH  14  15
ATOM     15  C   UNL     1       8.260  -9.812  21.248  0.00  0.00    +0.037 A 
ATOM     16  C   UNL     1       7.248  -9.558  22.276  0.00  0.00    +0.013 A 
ATOM     17  C   UNL     1       6.532 -10.657  22.874  0.00  0.00    +0.005 A 
ATOM     18  C   UNL     1       6.826 -12.022  22.442  0.00  0.00    -0.033 A 
ATOM     28  C   UNL     1       7.831 -12.245  21.417  0.00  0.00    +0.005 A 
ATOM     29  C   UNL     1       8.536 -11.170  20.830  0.00  0.00    +0.013 A 
BRANCH  18  19
ATOM     19  C   UNL     1       6.126 -13.257  23.040  0.00  0.00    +0.119 C 
BRANCH  19  20
ATOM     20  N   UNL     1       4.990 -13.841  22.266  0.00  0.00    -0.302 NA
ATOM     21  C   UNL     1       3.692 -13.054  22.470  0.00  0.00    +0.066 C 
ATOM     22  C   UNL     1       2.519 -13.665  21.635  0.00  0.00    -0.064 C 
ATOM     23  N   UNL     1       2.330 -15.132  22.024  0.00  0.00    +0.379 N 
ATOM     24  C   UNL     1       1.191 -15.694  21.283  0.00  0.00    -0.096 C 
ATOM     25  H   UNL     1       2.077 -15.164  23.110  0.00  0.00    -0.082 HD
ATOM     26  C   UNL     1       3.617 -15.921  21.828  0.00  0.00    -0.064 C 
ATOM     27  C   UNL     1       4.783 -15.288  22.638  0.00  0.00    +0.066 C 
ENDBRANCH  19  20
ENDBRANCH  18  19
ENDBRANCH  14  15
ENDBRANCH  12  13
TORSDOF 6
ENDMDL
MODEL 5
REMARK VINA RESULT:      -9.1     24.103     28.669
REMARK  Name = C:\Users\Docking\Desktop\test protocol\1iep_ligandH.pdb
REMARK  8 active torsions:
REMARK  status: ('A' for Active; 'I' for Inactive)
REMARK    1  A    between atoms: _5  and  _11
REMARK    2  A    between atoms: _19  and  _21
REMARK    3  A    between atoms: _22  and  _66
REMARK    4  A    between atoms: _27  and  _30
REMARK    5  A    between atoms: _32  and  _33
REMARK    6  A    between atoms: _38  and  _43
REMARK    7  A    between atoms: _43  and  _46
REMARK    8  A    between atoms: _53  and  _55
REMARK                            x       y       z     vdW  Elec       q    Type
REMARK                         _______ _______ _______ _____ _____    ______ ____
ROOT
ATOM     10  C   UNL     1       9.350  10.025   5.535  0.00  0.00    +0.038 A 
ATOM     11  C   UNL     1      10.728  10.322   5.692  0.00  0.00    +0.047 A 
ATOM     12  C   UNL     1      11.246  10.855   6.942  0.00  0.00    +0.035 A 
ATOM     32  C   UNL     1      10.332  11.071   8.014  0.00  0.00    +0.024 A 
ATOM     33  C   UNL     1       8.928  10.776   7.872  0.00  0.00    +0.007 A 
ATOM     34  C   UNL     1       8.411  10.252   6.640  0.00  0.00    -0.029 A 
ATOM     35  C   UNL     1       6.895   9.960   6.542  0.00  0.00    +0.045 C 
ENDROOT
BRANCH  10   9
ATOM      4  C   UNL     1       8.014  10.568   0.957  0.00  0.00    +0.077 A 
ATOM      5  C   UNL     1       8.188  11.991   1.013  0.00  0.00    +0.048 A 
ATOM      6  C   UNL     1       8.615  12.544   2.241  0.00  0.00    +0.116 A 
ATOM      7  N   UNL     1       8.849  11.726   3.325  0.00  0.00    -0.223 NA
ATOM      8  C   UNL     1       8.670  10.358   3.237  0.00  0.00    +0.220 A 
ATOM      9  N   UNL     1       8.907   9.515   4.313  0.00  0.00    -0.283 N 
ATOM     36  H   UNL     1       8.757   8.512   4.210  0.00  0.00    +0.155 HD
ATOM     37  N   UNL     1       8.262   9.805   2.076  0.00  0.00    -0.214 NA
BRANCH   4   3
ATOM      1  C   UNL     1       5.830   8.652  -1.662  0.00  0.00    +0.020 A 
ATOM      2  C   UNL     1       6.207   9.356  -0.458  0.00  0.00    +0.013 A 
ATOM      3  C   UNL     1       7.571   9.834  -0.270  0.00  0.00    +0.019 A 
ATOM     38  C   UNL     1       8.537   9.584  -1.330  0.00  0.00    +0.120 A 
ATOM     39  N   UNL     1       8.146   8.903  -2.478  0.00  0.00    -0.263 NA
ATOM     40  C   UNL     1       6.836   8.436  -2.669  0.00  0.00    +0.111 A 
ENDBRANCH   4   3
ENDBRANCH  10   9
BRANCH  12  13
ATOM     13  N   UNL     1      12.633  11.183   7.157  0.00  0.00    -0.281 N 
ATOM     14  C   UNL     1      13.670  10.324   7.485  0.00  0.00    +0.248 C 
ATOM     30  O   UNL     1      13.521   9.170   7.855  0.00  0.00    -0.270 OA
ATOM     31  H   UNL     1      12.882  12.167   7.054  0.00  0.00    +0.155 HD
BRANCH  14  15
ATOM     15  C   UNL     1      15.076  10.826   7.404  0.00  0.00    +0.037 A 
ATOM     16  C   UNL     1      15.366  12.257   7.280  0.00  0.00    +0.013 A 
ATOM     17  C   UNL     1      16.730  12.713   7.186  0.00  0.00    +0.005 A 
ATOM     18  C   UNL     1      17.816  11.735   7.218  0.00  0.00    -0.033 A 
ATOM     28  C   UNL     1      17.500  10.322   7.347  0.00  0.00    +0.005 A 
ATOM     29  C   UNL     1      16.164   9.872   7.438  0.00  0.00    +0.013 A 
BRANCH  18  19
ATOM     19  C   UNL     1      19.300  12.130   7.103  0.00  0.00    +0.119 C 
BRANCH  19  20
ATOM     20  N   UNL     1      19.816  12.462   5.742  0.00  0.00    -0.302 NA
ATOM     21  C   UNL     1      19.104  11.663   4.647  0.00  0.00    +0.066 C 
ATOM     22  C   UNL     1      19.640  12.040   3.227  0.00  0.00    -0.064 C 
ATOM     23  N   UNL     1      21.150  11.803   3.176  0.00  0.00    +0.379 N 
ATOM     24  C   UNL     1      21.648  12.102   1.825  0.00  0.00    -0.096 C 
ATOM     25  H   UNL     1      21.329  10.721   3.371  0.00  0.00    -0.082 HD
ATOM     26  C   UNL     1      21.865  12.593   4.263  0.00  0.00    -0.064 C 
ATOM     27  C   UNL     1      21.305  12.232   5.667  0.00  0.00    +0.066 C 
ENDBRANCH  19  20
ENDBRANCH  18  19
ENDBRANCH  14  15
ENDBRANCH  12  13
TORSDOF 6
ENDMDL
