MODEL 1
REMARK VINA RESULT:      -6.8      0.000      0.000
REMARK  Name = C:\Users\Docking\Desktop\test protocol\1iep_ligandH.pdb
REMARK  8 active torsions:
REMARK  status: ('A' for Active; 'I' for Inactive)
REMARK    1  A    between atoms: _5  and  _11
REMARK    2  A    between atoms: _19  and  _21
REMARK    3  A    between atoms: _22  and  _66
REMARK    4  A    between atoms: _27  and  _30
REMARK    5  A    between atoms: _32  and  _33
REMARK    6  A    between atoms: _38  and  _43
REMARK    7  A    between atoms: _43  and  _46
REMARK    8  A    between atoms: _53  and  _55
REMARK                            x       y       z     vdW  Elec       q    Type
REMARK                         _______ _______ _______ _____ _____    ______ ____
ROOT
ATOM     10  C   UNL     1      11.769   2.091  -5.490  0.00  0.00    +0.038 A 
ATOM     11  C   UNL     1      10.704   2.113  -4.553  0.00  0.00    +0.047 A 
ATOM     12  C   UNL     1       9.317   2.090  -4.990  0.00  0.00    +0.035 A 
ATOM     32  C   UNL     1       9.050   2.042  -6.389  0.00  0.00    +0.024 A 
ATOM     33  C   UNL     1      10.120   2.021  -7.355  0.00  0.00    +0.007 A 
ATOM     34  C   UNL     1      11.490   2.046  -6.930  0.00  0.00    -0.029 A 
ATOM     35  C   UNL     1      12.597   2.027  -8.011  0.00  0.00    +0.045 C 
ENDROOT
BRANCH  10   9
ATOM      4  C   UNL     1      15.728  -0.094  -3.880  0.00  0.00    +0.077 A 
ATOM      5  C   UNL     1      15.119  -1.390  -3.968  0.00  0.00    +0.048 A 
ATOM      6  C   UNL     1      13.784  -1.450  -4.425  0.00  0.00    +0.116 A 
ATOM      7  N   UNL     1      13.116  -0.294  -4.767  0.00  0.00    -0.223 NA
ATOM      8  C   UNL     1      13.732   0.940  -4.669  0.00  0.00    +0.220 A 
ATOM      9  N   UNL     1      13.082   2.115  -5.015  0.00  0.00    -0.283 N 
ATOM     36  H   UNL     1      13.569   3.006  -4.922  0.00  0.00    +0.155 HD
ATOM     37  N   UNL     1      15.006   1.025  -4.234  0.00  0.00    -0.214 NA
BRANCH   4   3
ATOM      1  C   UNL     1      19.343   1.350  -3.493  0.00  0.00    +0.020 A 
ATOM      2  C   UNL     1      17.992   1.172  -3.974  0.00  0.00    +0.013 A 
ATOM      3  C   UNL     1      17.134   0.133  -3.419  0.00  0.00    +0.019 A 
ATOM     38  C   UNL     1      17.676  -0.714  -2.367  0.00  0.00    +0.120 A 
ATOM     39  N   UNL     1      18.981  -0.520  -1.924  0.00  0.00    -0.263 NA
ATOM     40  C   UNL     1      19.817   0.474  -2.453  0.00  0.00    +0.111 A 
ENDBRANCH   4   3
ENDBRANCH  10   9
BRANCH  12  13
ATOM     13  N   UNL     1       8.195   2.119  -4.085  0.00  0.00    -0.281 N 
ATOM     14  C   UNL     1       7.855   1.185  -3.119  0.00  0.00    +0.248 C 
ATOM     30  O   UNL     1       8.350   0.071  -3.031  0.00  0.00    -0.270 OA
ATOM     31  H   UNL     1       7.575   2.925  -4.167  0.00  0.00    +0.155 HD
BRANCH  14  15
ATOM     15  C   UNL     1       6.805   1.535  -2.115  0.00  0.00    +0.037 A 
ATOM     16  C   UNL     1       6.808   0.943  -0.775  0.00  0.00    +0.013 A 
ATOM     17  C   UNL     1       5.773   1.284   0.169  0.00  0.00    +0.005 A 
ATOM     18  C   UNL     1       4.726   2.224  -0.225  0.00  0.00    -0.033 A 
ATOM     28  C   UNL     1       4.750   2.800  -1.560  0.00  0.00    +0.005 A 
ATOM     29  C   UNL     1       5.762   2.467  -2.487  0.00  0.00    +0.013 A 
BRANCH  18  19
ATOM     19  C   UNL     1       3.571   2.629   0.709  0.00  0.00    +0.119 C 
BRANCH  19  20
ATOM     20  N   UNL     1       2.837   3.888   0.383  0.00  0.00    -0.302 NA
ATOM     21  C   UNL     1       2.760   4.836   1.583  0.00  0.00    +0.066 C 
ATOM     22  C   UNL     1       2.008   6.157   1.218  0.00  0.00    -0.064 C 
ATOM     23  N   UNL     1       0.608   5.819   0.705  0.00  0.00    +0.379 N 
ATOM     24  C   UNL     1      -0.122   7.062   0.415  0.00  0.00    -0.096 C 
ATOM     25  H   UNL     1       0.066   5.291   1.524  0.00  0.00    -0.082 HD
ATOM     26  C   UNL     1       0.675   4.875  -0.487  0.00  0.00    -0.064 C 
ATOM     27  C   UNL     1       1.449   3.578  -0.122  0.00  0.00    +0.066 C 
ENDBRANCH  19  20
ENDBRANCH  18  19
ENDBRANCH  14  15
ENDBRANCH  12  13
TORSDOF 6
ENDMDL
MODEL 2
REMARK VINA RESULT:      -6.8     31.707     35.253
REMARK  Name = C:\Users\Docking\Desktop\test protocol\1iep_ligandH.pdb
REMARK  8 active torsions:
REMARK  status: ('A' for Active; 'I' for Inactive)
REMARK    1  A    between atoms: _5  and  _11
REMARK    2  A    between atoms: _19  and  _21
REMARK    3  A    between atoms: _22  and  _66
REMARK    4  A    between atoms: _27  and  _30
REMARK    5  A    between atoms: _32  and  _33
REMARK    6  A    between atoms: _38  and  _43
REMARK    7  A    between atoms: _43  and  _46
REMARK    8  A    between atoms: _53  and  _55
REMARK                            x       y       z     vdW  Elec       q    Type
REMARK                         _______ _______ _______ _____ _____    ______ ____
ROOT
ATOM     10  C   UNL     1      17.412  -6.777  30.995  0.00  0.00    +0.038 A 
ATOM     11  C   UNL     1      17.943  -6.693  29.683  0.00  0.00    +0.047 A 
ATOM     12  C   UNL     1      18.220  -5.407  29.063  0.00  0.00    +0.035 A 
ATOM     32  C   UNL     1      17.947  -4.224  29.811  0.00  0.00    +0.024 A 
ATOM     33  C   UNL     1      17.406  -4.290  31.145  0.00  0.00    +0.007 A 
ATOM     34  C   UNL     1      17.128  -5.557  31.761  0.00  0.00    -0.029 A 
ATOM     35  C   UNL     1      16.542  -5.567  33.192  0.00  0.00    +0.045 C 
ENDROOT
BRANCH  10   9
ATOM      4  C   UNL     1      18.879 -10.866  33.034  0.00  0.00    +0.077 A 
ATOM      5  C   UNL     1      20.256 -10.467  32.983  0.00  0.00    +0.048 A 
ATOM      6  C   UNL     1      20.545  -9.205  32.417  0.00  0.00    +0.116 A 
ATOM      7  N   UNL     1      19.525  -8.410  31.943  0.00  0.00    -0.223 NA
ATOM      8  C   UNL     1      18.208  -8.825  32.006  0.00  0.00    +0.220 A 
ATOM      9  N   UNL     1      17.166  -8.038  31.542  0.00  0.00    -0.283 N 
ATOM     36  H   UNL     1      16.208  -8.384  31.600  0.00  0.00    +0.155 HD
ATOM     37  N   UNL     1      17.906 -10.027  32.540  0.00  0.00    -0.214 NA
BRANCH   4   3
ATOM      1  C   UNL     1      16.798 -14.103  33.740  0.00  0.00    +0.020 A 
ATOM      2  C   UNL     1      17.203 -12.845  33.155  0.00  0.00    +0.013 A 
ATOM      3  C   UNL     1      18.414 -12.170  33.605  0.00  0.00    +0.019 A 
ATOM     38  C   UNL     1      19.200 -12.800  34.656  0.00  0.00    +0.120 A 
ATOM     39  N   UNL     1      18.784 -14.011  35.201  0.00  0.00    -0.263 NA
ATOM     40  C   UNL     1      17.620 -14.669  34.777  0.00  0.00    +0.111 A 
ENDBRANCH   4   3
ENDBRANCH  10   9
BRANCH  12  13
ATOM     13  N   UNL     1      18.752  -5.260  27.731  0.00  0.00    -0.281 N 
ATOM     14  C   UNL     1      20.082  -5.229  27.344  0.00  0.00    +0.248 C 
ATOM     30  O   UNL     1      21.023  -5.108  28.113  0.00  0.00    -0.270 OA
ATOM     31  H   UNL     1      18.065  -5.168  26.983  0.00  0.00    +0.155 HD
BRANCH  14  15
ATOM     15  C   UNL     1      20.413  -5.333  25.890  0.00  0.00    +0.037 A 
ATOM     16  C   UNL     1      20.708  -4.141  25.091  0.00  0.00    +0.013 A 
ATOM     17  C   UNL     1      21.007  -4.267  23.686  0.00  0.00    +0.005 A 
ATOM     18  C   UNL     1      21.014  -5.593  23.072  0.00  0.00    -0.033 A 
ATOM     28  C   UNL     1      20.723  -6.759  23.890  0.00  0.00    +0.005 A 
ATOM     29  C   UNL     1      20.428  -6.639  25.266  0.00  0.00    +0.013 A 
BRANCH  18  19
ATOM     19  C   UNL     1      21.302  -5.820  21.576  0.00  0.00    +0.119 C 
BRANCH  19  20
ATOM     20  N   UNL     1      21.541  -4.610  20.735  0.00  0.00    -0.302 NA
ATOM     21  C   UNL     1      20.499  -4.470  19.622  0.00  0.00    +0.066 C 
ATOM     22  C   UNL     1      20.751  -3.186  18.765  0.00  0.00    -0.064 C 
ATOM     23  N   UNL     1      22.164  -3.236  18.180  0.00  0.00    +0.379 N 
ATOM     24  C   UNL     1      22.383  -2.059  17.327  0.00  0.00    -0.096 C 
ATOM     25  H   UNL     1      22.230  -4.141  17.533  0.00  0.00    -0.082 HD
ATOM     26  C   UNL     1      23.207  -3.379  19.280  0.00  0.00    -0.064 C 
ATOM     27  C   UNL     1      22.930  -4.641  20.144  0.00  0.00    +0.066 C 
ENDBRANCH  19  20
ENDBRANCH  18  19
ENDBRANCH  14  15
ENDBRANCH  12  13
TORSDOF 6
ENDMDL
MODEL 3
REMARK VINA RESULT:      -6.7     33.502     35.999
REMARK  Name = C:\Users\Docking\Desktop\test protocol\1iep_ligandH.pdb
REMARK  8 active torsions:
REMARK  status: ('A' for Active; 'I' for Inactive)
REMARK    1  A    between atoms: _5  and  _11
REMARK    2  A    between atoms: _19  and  _21
REMARK    3  A    between atoms: _22  and  _66
REMARK    4  A    between atoms: _27  and  _30
REMARK    5  A    between atoms: _32  and  _33
REMARK    6  A    between atoms: _38  and  _43
REMARK    7  A    between atoms: _43  and  _46
REMARK    8  A    between atoms: _53  and  _55
REMARK                            x       y       z     vdW  Elec       q    Type
REMARK                         _______ _______ _______ _____ _____    ______ ____
ROOT
ATOM     10  C   UNL     1      18.043  -4.962  28.583  0.00  0.00    +0.038 A 
ATOM     11  C   UNL     1      17.895  -6.262  29.130  0.00  0.00    +0.047 A 
ATOM     12  C   UNL     1      17.609  -6.455  30.544  0.00  0.00    +0.035 A 
ATOM     32  C   UNL     1      17.478  -5.301  31.370  0.00  0.00    +0.024 A 
ATOM     33  C   UNL     1      17.627  -3.972  30.830  0.00  0.00    +0.007 A 
ATOM     34  C   UNL     1      17.911  -3.776  29.437  0.00  0.00    -0.029 A 
ATOM     35  C   UNL     1      18.067  -2.329  28.914  0.00  0.00    +0.045 C 
ENDROOT
BRANCH  10   9
ATOM      4  C   UNL     1      21.089  -4.735  24.880  0.00  0.00    +0.077 A 
ATOM      5  C   UNL     1      22.233  -4.853  25.738  0.00  0.00    +0.048 A 
ATOM      6  C   UNL     1      21.995  -4.962  27.126  0.00  0.00    +0.116 A 
ATOM      7  N   UNL     1      20.704  -4.954  27.610  0.00  0.00    -0.223 NA
ATOM      8  C   UNL     1      19.623  -4.837  26.755  0.00  0.00    +0.220 A 
ATOM      9  N   UNL     1      18.317  -4.835  27.219  0.00  0.00    -0.283 N 
ATOM     36  H   UNL     1      17.547  -4.740  26.557  0.00  0.00    +0.155 HD
ATOM     37  N   UNL     1      19.825  -4.730  25.425  0.00  0.00    -0.214 NA
BRANCH   4   3
ATOM      1  C   UNL     1      21.475  -3.283  21.269  0.00  0.00    +0.020 A 
ATOM      2  C   UNL     1      21.397  -3.344  22.710  0.00  0.00    +0.013 A 
ATOM      3  C   UNL     1      21.178  -4.615  23.390  0.00  0.00    +0.019 A 
ATOM     38  C   UNL     1      21.042  -5.813  22.577  0.00  0.00    +0.120 A 
ATOM     39  N   UNL     1      21.120  -5.723  21.190  0.00  0.00    -0.263 NA
ATOM     40  C   UNL     1      21.329  -4.506  20.525  0.00  0.00    +0.111 A 
ENDBRANCH   4   3
ENDBRANCH  10   9
BRANCH  12  13
ATOM     13  N   UNL     1      17.456  -7.750  31.158  0.00  0.00    -0.281 N 
ATOM     14  C   UNL     1      18.405  -8.478  31.858  0.00  0.00    +0.248 C 
ATOM     30  O   UNL     1      19.598  -8.218  31.879  0.00  0.00    -0.270 OA
ATOM     31  H   UNL     1      16.537  -8.183  31.065  0.00  0.00    +0.155 HD
BRANCH  14  15
ATOM     15  C   UNL     1      17.965  -9.677  32.635  0.00  0.00    +0.037 A 
ATOM     16  C   UNL     1      17.195  -9.539  33.873  0.00  0.00    +0.013 A 
ATOM     17  C   UNL     1      16.798 -10.711  34.613  0.00  0.00    +0.005 A 
ATOM     18  C   UNL     1      17.171 -12.033  34.114  0.00  0.00    -0.033 A 
ATOM     28  C   UNL     1      17.932 -12.141  32.880  0.00  0.00    +0.005 A 
ATOM     29  C   UNL     1      18.323 -10.994  32.153  0.00  0.00    +0.013 A 
BRANCH  18  19
ATOM     19  C   UNL     1      16.809 -13.337  34.849  0.00  0.00    +0.119 C 
BRANCH  19  20
ATOM     20  N   UNL     1      15.396 -13.495  35.305  0.00  0.00    -0.302 NA
ATOM     21  C   UNL     1      15.170 -14.828  36.024  0.00  0.00    +0.066 C 
ATOM     22  C   UNL     1      13.692 -14.968  36.513  0.00  0.00    -0.064 C 
ATOM     23  N   UNL     1      12.747 -14.830  35.318  0.00  0.00    +0.379 N 
ATOM     24  C   UNL     1      11.359 -15.018  35.766  0.00  0.00    -0.096 C 
ATOM     25  H   UNL     1      12.985 -15.650  34.602  0.00  0.00    -0.082 HD
ATOM     26  C   UNL     1      12.966 -13.508  34.596  0.00  0.00    -0.064 C 
ATOM     27  C   UNL     1      14.445 -13.367  34.140  0.00  0.00    +0.066 C 
ENDBRANCH  19  20
ENDBRANCH  18  19
ENDBRANCH  14  15
ENDBRANCH  12  13
TORSDOF 6
ENDMDL
MODEL 4
REMARK VINA RESULT:      -6.7     31.437     35.410
REMARK  Name = C:\Users\Docking\Desktop\test protocol\1iep_ligandH.pdb
REMARK  8 active torsions:
REMARK  status: ('A' for Active; 'I' for Inactive)
REMARK    1  A    between atoms: _5  and  _11
REMARK    2  A    between atoms: _19  and  _21
REMARK    3  A    between atoms: _22  and  _66
REMARK    4  A    between atoms: _27  and  _30
REMARK    5  A    between atoms: _32  and  _33
REMARK    6  A    between atoms: _38  and  _43
REMARK    7  A    between atoms: _43  and  _46
REMARK    8  A    between atoms: _53  and  _55
REMARK                            x       y       z     vdW  Elec       q    Type
REMARK                         _______ _______ _______ _____ _____    ______ ____
ROOT
ATOM     10  C   UNL     1      17.303  -0.972  27.918  0.00  0.00    +0.038 A 
ATOM     11  C   UNL     1      17.920  -2.240  28.063  0.00  0.00    +0.047 A 
ATOM     12  C   UNL     1      19.125  -2.580  27.321  0.00  0.00    +0.035 A 
ATOM     32  C   UNL     1      19.676  -1.602  26.442  0.00  0.00    +0.024 A 
ATOM     33  C   UNL     1      19.060  -0.308  26.282  0.00  0.00    +0.007 A 
ATOM     34  C   UNL     1      17.871   0.032  27.009  0.00  0.00    -0.029 A 
ATOM     35  C   UNL     1      17.250   1.432  26.793  0.00  0.00    +0.045 C 
ENDROOT
BRANCH  10   9
ATOM      4  C   UNL     1      15.067   0.740  31.805  0.00  0.00    +0.077 A 
ATOM      5  C   UNL     1      16.307   1.097  32.433  0.00  0.00    +0.048 A 
ATOM      6  C   UNL     1      17.497   0.816  31.726  0.00  0.00    +0.116 A 
ATOM      7  N   UNL     1      17.441   0.223  30.483  0.00  0.00    -0.223 NA
ATOM      8  C   UNL     1      16.229  -0.109  29.906  0.00  0.00    +0.220 A 
ATOM      9  N   UNL     1      16.148  -0.698  28.654  0.00  0.00    -0.283 N 
ATOM     36  H   UNL     1      15.235  -0.935  28.266  0.00  0.00    +0.155 HD
ATOM     37  N   UNL     1      15.078   0.147  30.562  0.00  0.00    -0.214 NA
BRANCH   4   3
ATOM      1  C   UNL     1      11.297   0.397  32.786  0.00  0.00    +0.020 A 
ATOM      2  C   UNL     1      12.571   0.126  32.161  0.00  0.00    +0.013 A 
ATOM      3  C   UNL     1      13.725   0.976  32.424  0.00  0.00    +0.019 A 
ATOM     38  C   UNL     1      13.555   2.101  33.332  0.00  0.00    +0.120 A 
ATOM     39  N   UNL     1      12.316   2.338  33.918  0.00  0.00    -0.263 NA
ATOM     40  C   UNL     1      11.197   1.528  33.671  0.00  0.00    +0.111 A 
ENDBRANCH   4   3
ENDBRANCH  10   9
BRANCH  12  13
ATOM     13  N   UNL     1      19.791  -3.855  27.422  0.00  0.00    -0.281 N 
ATOM     14  C   UNL     1      19.652  -4.956  26.593  0.00  0.00    +0.248 C 
ATOM     30  O   UNL     1      18.768  -5.086  25.759  0.00  0.00    -0.270 OA
ATOM     31  H   UNL     1      20.445  -3.958  28.198  0.00  0.00    +0.155 HD
BRANCH  14  15
ATOM     15  C   UNL     1      20.627  -6.082  26.719  0.00  0.00    +0.037 A 
ATOM     16  C   UNL     1      20.875  -7.001  25.605  0.00  0.00    +0.013 A 
ATOM     17  C   UNL     1      21.808  -8.089  25.758  0.00  0.00    +0.005 A 
ATOM     18  C   UNL     1      22.502  -8.263  27.032  0.00  0.00    -0.033 A 
ATOM     28  C   UNL     1      22.241  -7.334  28.119  0.00  0.00    +0.005 A 
ATOM     29  C   UNL     1      21.326  -6.267  27.973  0.00  0.00    +0.013 A 
BRANCH  18  19
ATOM     19  C   UNL     1      23.498  -9.408  27.292  0.00  0.00    +0.119 C 
BRANCH  19  20
ATOM     20  N   UNL     1      23.836 -10.295  26.139  0.00  0.00    -0.302 NA
ATOM     21  C   UNL     1      23.670 -11.777  26.486  0.00  0.00    +0.066 C 
ATOM     22  C   UNL     1      24.006 -12.689  25.261  0.00  0.00    -0.064 C 
ATOM     23  N   UNL     1      25.433 -12.400  24.790  0.00  0.00    +0.379 N 
ATOM     24  C   UNL     1      25.773 -13.297  23.676  0.00  0.00    -0.096 C 
ATOM     25  H   UNL     1      26.122 -12.634  25.635  0.00  0.00    -0.082 HD
ATOM     26  C   UNL     1      25.608 -10.928  24.446  0.00  0.00    -0.064 C 
ATOM     27  C   UNL     1      25.242 -10.029  25.660  0.00  0.00    +0.066 C 
ENDBRANCH  19  20
ENDBRANCH  18  19
ENDBRANCH  14  15
ENDBRANCH  12  13
TORSDOF 6
ENDMDL
MODEL 5
REMARK VINA RESULT:      -6.6     33.705     36.558
REMARK  Name = C:\Users\Docking\Desktop\test protocol\1iep_ligandH.pdb
REMARK  8 active torsions:
REMARK  status: ('A' for Active; 'I' for Inactive)
REMARK    1  A    between atoms: _5  and  _11
REMARK    2  A    between atoms: _19  and  _21
REMARK    3  A    between atoms: _22  and  _66
REMARK    4  A    between atoms: _27  and  _30
REMARK    5  A    between atoms: _32  and  _33
REMARK    6  A    between atoms: _38  and  _43
REMARK    7  A    between atoms: _43  and  _46
REMARK    8  A    between atoms: _53  and  _55
REMARK                            x       y       z     vdW  Elec       q    Type
REMARK                         _______ _______ _______ _____ _____    ______ ____
ROOT
ATOM     10  C   UNL     1      18.058  -4.899  28.515  0.00  0.00    +0.038 A 
ATOM     11  C   UNL     1      17.940  -6.204  29.057  0.00  0.00    +0.047 A 
ATOM     12  C   UNL     1      17.666  -6.410  30.470  0.00  0.00    +0.035 A 
ATOM     32  C   UNL     1      17.514  -5.263  31.303  0.00  0.00    +0.024 A 
ATOM     33  C   UNL     1      17.631  -3.929  30.769  0.00  0.00    +0.007 A 
ATOM     34  C   UNL     1      17.904  -3.720  29.376  0.00  0.00    -0.029 A 
ATOM     35  C   UNL     1      18.026  -2.267  28.859  0.00  0.00    +0.045 C 
ENDROOT
BRANCH  10   9
ATOM      4  C   UNL     1      21.072  -4.719  24.784  0.00  0.00    +0.077 A 
ATOM      5  C   UNL     1      22.220  -4.891  25.628  0.00  0.00    +0.048 A 
ATOM      6  C   UNL     1      21.992  -5.015  27.016  0.00  0.00    +0.116 A 
ATOM      7  N   UNL     1      20.708  -4.969  27.514  0.00  0.00    -0.223 NA
ATOM      8  C   UNL     1      19.623  -4.800  26.673  0.00  0.00    +0.220 A 
ATOM      9  N   UNL     1      18.322  -4.759  27.150  0.00  0.00    -0.283 N 
ATOM     36  H   UNL     1      17.550  -4.626  26.498  0.00  0.00    +0.155 HD
ATOM     37  N   UNL     1      19.814  -4.679  25.343  0.00  0.00    -0.214 NA
BRANCH   4   3
ATOM      1  C   UNL     1      21.441  -3.217  21.191  0.00  0.00    +0.020 A 
ATOM      2  C   UNL     1      21.373  -3.299  22.632  0.00  0.00    +0.013 A 
ATOM      3  C   UNL     1      21.150  -4.578  23.296  0.00  0.00    +0.019 A 
ATOM     38  C   UNL     1      21.000  -5.764  22.466  0.00  0.00    +0.120 A 
ATOM     39  N   UNL     1      21.068  -5.654  21.080  0.00  0.00    -0.263 NA
ATOM     40  C   UNL     1      21.280  -4.428  20.431  0.00  0.00    +0.111 A 
ENDBRANCH   4   3
ENDBRANCH  10   9
BRANCH  12  13
ATOM     13  N   UNL     1      17.544  -7.712  31.079  0.00  0.00    -0.281 N 
ATOM     14  C   UNL     1      18.478  -8.380  31.853  0.00  0.00    +0.248 C 
ATOM     30  O   UNL     1      19.649  -8.049  31.963  0.00  0.00    -0.270 OA
ATOM     31  H   UNL     1      16.662  -8.199  30.919  0.00  0.00    +0.155 HD
BRANCH  14  15
ATOM     15  C   UNL     1      18.053  -9.602  32.602  0.00  0.00    +0.037 A 
ATOM     16  C   UNL     1      17.327  -9.502  33.871  0.00  0.00    +0.013 A 
ATOM     17  C   UNL     1      16.944 -10.696  34.581  0.00  0.00    +0.005 A 
ATOM     18  C   UNL     1      17.285 -12.002  34.023  0.00  0.00    -0.033 A 
ATOM     28  C   UNL     1      18.000 -12.073  32.759  0.00  0.00    +0.005 A 
ATOM     29  C   UNL     1      18.378 -10.904  32.061  0.00  0.00    +0.013 A 
BRANCH  18  19
ATOM     19  C   UNL     1      16.934 -13.328  34.723  0.00  0.00    +0.119 C 
BRANCH  19  20
ATOM     20  N   UNL     1      17.979 -14.395  34.729  0.00  0.00    -0.302 NA
ATOM     21  C   UNL     1      17.397 -15.768  35.079  0.00  0.00    +0.066 C 
ATOM     22  C   UNL     1      18.500 -16.876  35.059  0.00  0.00    -0.064 C 
ATOM     23  N   UNL     1      19.617 -16.497  36.033  0.00  0.00    +0.379 N 
ATOM     24  C   UNL     1      20.628 -17.565  36.059  0.00  0.00    -0.096 C 
ATOM     25  H   UNL     1      19.169 -16.429  37.051  0.00  0.00    -0.082 HD
ATOM     26  C   UNL     1      20.200 -15.132  35.693  0.00  0.00    -0.064 C 
ATOM     27  C   UNL     1      19.091 -14.044  35.687  0.00  0.00    +0.066 C 
ENDBRANCH  19  20
ENDBRANCH  18  19
ENDBRANCH  14  15
ENDBRANCH  12  13
TORSDOF 6
ENDMDL
