MODEL 1
REMARK VINA RESULT:     -11.7      0.000      0.000
REMARK  Name = C:\Users\Docking\Desktop\test protocol\1iep_ligandH.pdb
REMARK  8 active torsions:
REMARK  status: ('A' for Active; 'I' for Inactive)
REMARK    1  A    between atoms: _5  and  _11
REMARK    2  A    between atoms: _19  and  _21
REMARK    3  A    between atoms: _22  and  _66
REMARK    4  A    between atoms: _27  and  _30
REMARK    5  A    between atoms: _32  and  _33
REMARK    6  A    between atoms: _38  and  _43
REMARK    7  A    between atoms: _43  and  _46
REMARK    8  A    between atoms: _53  and  _55
REMARK                            x       y       z     vdW  Elec       q    Type
REMARK                         _______ _______ _______ _____ _____    ______ ____
ROOT
ATOM     10  C   UNL     1       0.675  -3.200  -3.570  0.00  0.00    +0.038 A 
ATOM     11  C   UNL     1      -0.086  -2.780  -4.690  0.00  0.00    +0.047 A 
ATOM     12  C   UNL     1       0.554  -2.458  -5.956  0.00  0.00    +0.035 A 
ATOM     32  C   UNL     1       1.971  -2.577  -6.046  0.00  0.00    +0.024 A 
ATOM     33  C   UNL     1       2.761  -3.001  -4.917  0.00  0.00    +0.007 A 
ATOM     34  C   UNL     1       2.135  -3.318  -3.665  0.00  0.00    -0.029 A 
ATOM     35  C   UNL     1       3.032  -3.762  -2.485  0.00  0.00    +0.045 C 
ENDROOT
BRANCH  10   9
ATOM      4  C   UNL     1      -1.699  -1.893   0.392  0.00  0.00    +0.077 A 
ATOM      5  C   UNL     1      -1.578  -0.499   0.076  0.00  0.00    +0.048 A 
ATOM      6  C   UNL     1      -0.892  -0.160  -1.112  0.00  0.00    +0.116 A 
ATOM      7  N   UNL     1      -0.369  -1.150  -1.916  0.00  0.00    -0.223 NA
ATOM      8  C   UNL     1      -0.502  -2.485  -1.581  0.00  0.00    +0.220 A 
ATOM      9  N   UNL     1       0.009  -3.497  -2.379  0.00  0.00    -0.283 N 
ATOM     36  H   UNL     1      -0.103  -4.470  -2.093  0.00  0.00    +0.155 HD
ATOM     37  N   UNL     1      -1.151  -2.835  -0.451  0.00  0.00    -0.214 NA
BRANCH   4   3
ATOM      1  C   UNL     1      -3.701  -4.170   2.863  0.00  0.00    +0.020 A 
ATOM      2  C   UNL     1      -3.039  -3.718   1.661  0.00  0.00    +0.013 A 
ATOM      3  C   UNL     1      -2.398  -2.410   1.610  0.00  0.00    +0.019 A 
ATOM     38  C   UNL     1      -2.446  -1.577   2.803  0.00  0.00    +0.120 A 
ATOM     39  N   UNL     1      -3.092  -2.038   3.945  0.00  0.00    -0.263 NA
ATOM     40  C   UNL     1      -3.714  -3.294   4.005  0.00  0.00    +0.111 A 
ENDBRANCH   4   3
ENDBRANCH  10   9
BRANCH  12  13
ATOM     13  N   UNL     1      -0.166  -2.019  -7.126  0.00  0.00    -0.281 N 
ATOM     14  C   UNL     1      -0.207  -2.616  -8.375  0.00  0.00    +0.248 C 
ATOM     30  O   UNL     1       0.545  -3.508  -8.739  0.00  0.00    -0.270 OA
ATOM     31  H   UNL     1      -0.712  -1.163  -7.020  0.00  0.00    +0.155 HD
BRANCH  14  15
ATOM     15  C   UNL     1      -1.220  -2.145  -9.368  0.00  0.00    +0.037 A 
ATOM     16  C   UNL     1      -0.836  -1.797 -10.739  0.00  0.00    +0.013 A 
ATOM     17  C   UNL     1      -1.830  -1.329 -11.671  0.00  0.00    +0.005 A 
ATOM     18  C   UNL     1      -3.219  -1.207 -11.236  0.00  0.00    -0.033 A 
ATOM     28  C   UNL     1      -3.573  -1.563  -9.872  0.00  0.00    +0.005 A 
ATOM     29  C   UNL     1      -2.602  -2.022  -8.955  0.00  0.00    +0.013 A 
BRANCH  18  19
ATOM     19  C   UNL     1      -4.342  -0.696 -12.158  0.00  0.00    +0.119 C 
BRANCH  19  20
ATOM     20  N   UNL     1      -4.433  -1.295 -13.523  0.00  0.00    -0.302 NA
ATOM     21  C   UNL     1      -5.553  -0.664 -14.354  0.00  0.00    +0.066 C 
ATOM     22  C   UNL     1      -5.619  -1.287 -15.787  0.00  0.00    -0.064 C 
ATOM     23  N   UNL     1      -5.816  -2.799 -15.673  0.00  0.00    +0.379 N 
ATOM     24  C   UNL     1      -5.936  -3.381 -17.018  0.00  0.00    -0.096 C 
ATOM     25  H   UNL     1      -6.779  -2.976 -15.141  0.00  0.00    -0.082 HD
ATOM     26  C   UNL     1      -4.708  -3.435 -14.846  0.00  0.00    -0.064 C 
ATOM     27  C   UNL     1      -4.632  -2.788 -13.434  0.00  0.00    +0.066 C 
ENDBRANCH  19  20
ENDBRANCH  18  19
ENDBRANCH  14  15
ENDBRANCH  12  13
TORSDOF 6
ENDMDL
MODEL 2
REMARK VINA RESULT:     -11.6      4.047     13.767
REMARK  Name = C:\Users\Docking\Desktop\test protocol\1iep_ligandH.pdb
REMARK  8 active torsions:
REMARK  status: ('A' for Active; 'I' for Inactive)
REMARK    1  A    between atoms: _5  and  _11
REMARK    2  A    between atoms: _19  and  _21
REMARK    3  A    between atoms: _22  and  _66
REMARK    4  A    between atoms: _27  and  _30
REMARK    5  A    between atoms: _32  and  _33
REMARK    6  A    between atoms: _38  and  _43
REMARK    7  A    between atoms: _43  and  _46
REMARK    8  A    between atoms: _53  and  _55
REMARK                            x       y       z     vdW  Elec       q    Type
REMARK                         _______ _______ _______ _____ _____    ______ ____
ROOT
ATOM     10  C   UNL     1      -4.029  -5.319 -15.711  0.00  0.00    +0.038 A 
ATOM     11  C   UNL     1      -3.251  -4.849 -14.622  0.00  0.00    +0.047 A 
ATOM     12  C   UNL     1      -2.389  -5.747 -13.870  0.00  0.00    +0.035 A 
ATOM     32  C   UNL     1      -2.342  -7.119 -14.256  0.00  0.00    +0.024 A 
ATOM     33  C   UNL     1      -3.126  -7.614 -15.359  0.00  0.00    +0.007 A 
ATOM     34  C   UNL     1      -3.981  -6.733 -16.103  0.00  0.00    -0.029 A 
ATOM     35  C   UNL     1      -4.805  -7.320 -17.273  0.00  0.00    +0.045 C 
ENDROOT
BRANCH  10   9
ATOM      4  C   UNL     1      -6.306  -1.110 -16.076  0.00  0.00    +0.077 A 
ATOM      5  C   UNL     1      -5.866  -0.692 -14.776  0.00  0.00    +0.048 A 
ATOM      6  C   UNL     1      -5.061  -1.592 -14.043  0.00  0.00    +0.116 A 
ATOM      7  N   UNL     1      -4.727  -2.817 -14.580  0.00  0.00    -0.223 NA
ATOM      8  C   UNL     1      -5.170  -3.189 -15.836  0.00  0.00    +0.220 A 
ATOM      9  N   UNL     1      -4.840  -4.413 -16.398  0.00  0.00    -0.283 N 
ATOM     36  H   UNL     1      -5.192  -4.653 -17.324  0.00  0.00    +0.155 HD
ATOM     37  N   UNL     1      -5.941  -2.348 -16.555  0.00  0.00    -0.214 NA
BRANCH   4   3
ATOM      1  C   UNL     1      -9.204   0.115 -18.400  0.00  0.00    +0.020 A 
ATOM      2  C   UNL     1      -8.417  -0.738 -17.540  0.00  0.00    +0.013 A 
ATOM      3  C   UNL     1      -7.159  -0.268 -16.973  0.00  0.00    +0.019 A 
ATOM     38  C   UNL     1      -6.723   1.081 -17.299  0.00  0.00    +0.120 A 
ATOM     39  N   UNL     1      -7.501   1.879 -18.132  0.00  0.00    -0.263 NA
ATOM     40  C   UNL     1      -8.712   1.437 -18.685  0.00  0.00    +0.111 A 
ENDBRANCH   4   3
ENDBRANCH  10   9
BRANCH  12  13
ATOM     13  N   UNL     1      -1.583  -5.329 -12.750  0.00  0.00    -0.281 N 
ATOM     14  C   UNL     1      -0.216  -5.107 -12.721  0.00  0.00    +0.248 C 
ATOM     30  O   UNL     1       0.558  -5.443 -13.606  0.00  0.00    -0.270 OA
ATOM     31  H   UNL     1      -2.080  -5.178 -11.873  0.00  0.00    +0.155 HD
BRANCH  14  15
ATOM     15  C   UNL     1       0.380  -4.427 -11.532  0.00  0.00    +0.037 A 
ATOM     16  C   UNL     1      -0.441  -4.061 -10.375  0.00  0.00    +0.013 A 
ATOM     17  C   UNL     1       0.156  -3.390  -9.247  0.00  0.00    +0.005 A 
ATOM     18  C   UNL     1       1.584  -3.081  -9.271  0.00  0.00    -0.033 A 
ATOM     28  C   UNL     1       2.376  -3.460 -10.429  0.00  0.00    +0.005 A 
ATOM     29  C   UNL     1       1.794  -4.117 -11.536  0.00  0.00    +0.013 A 
BRANCH  18  19
ATOM     19  C   UNL     1       2.300  -2.349  -8.121  0.00  0.00    +0.119 C 
BRANCH  19  20
ATOM     20  N   UNL     1       2.181  -2.940  -6.755  0.00  0.00    -0.302 NA
ATOM     21  C   UNL     1       1.080  -2.266  -5.931  0.00  0.00    +0.066 C 
ATOM     22  C   UNL     1       0.954  -2.912  -4.513  0.00  0.00    -0.064 C 
ATOM     23  N   UNL     1       2.301  -2.821  -3.793  0.00  0.00    +0.379 N 
ATOM     24  C   UNL     1       2.171  -3.374  -2.437  0.00  0.00    -0.096 C 
ATOM     25  H   UNL     1       2.559  -1.741  -3.694  0.00  0.00    -0.082 HD
ATOM     26  C   UNL     1       3.403  -3.486  -4.606  0.00  0.00    -0.064 C 
ATOM     27  C   UNL     1       3.499  -2.857  -6.024  0.00  0.00    +0.066 C 
ENDBRANCH  19  20
ENDBRANCH  18  19
ENDBRANCH  14  15
ENDBRANCH  12  13
TORSDOF 6
ENDMDL
MODEL 3
REMARK VINA RESULT:     -11.5      1.393      1.850
REMARK  Name = C:\Users\Docking\Desktop\test protocol\1iep_ligandH.pdb
REMARK  8 active torsions:
REMARK  status: ('A' for Active; 'I' for Inactive)
REMARK    1  A    between atoms: _5  and  _11
REMARK    2  A    between atoms: _19  and  _21
REMARK    3  A    between atoms: _22  and  _66
REMARK    4  A    between atoms: _27  and  _30
REMARK    5  A    between atoms: _32  and  _33
REMARK    6  A    between atoms: _38  and  _43
REMARK    7  A    between atoms: _43  and  _46
REMARK    8  A    between atoms: _53  and  _55
REMARK                            x       y       z     vdW  Elec       q    Type
REMARK                         _______ _______ _______ _____ _____    ______ ____
ROOT
ATOM     10  C   UNL     1       0.625  -3.381  -3.413  0.00  0.00    +0.038 A 
ATOM     11  C   UNL     1      -0.176  -3.168  -4.564  0.00  0.00    +0.047 A 
ATOM     12  C   UNL     1       0.426  -2.954  -5.871  0.00  0.00    +0.035 A 
ATOM     32  C   UNL     1       1.848  -2.966  -5.970  0.00  0.00    +0.024 A 
ATOM     33  C   UNL     1       2.677  -3.180  -4.810  0.00  0.00    +0.007 A 
ATOM     34  C   UNL     1       2.089  -3.389  -3.518  0.00  0.00    -0.029 A 
ATOM     35  C   UNL     1       3.027  -3.607  -2.308  0.00  0.00    +0.045 C 
ENDROOT
BRANCH  10   9
ATOM      4  C   UNL     1      -1.679  -1.764   0.474  0.00  0.00    +0.077 A 
ATOM      5  C   UNL     1      -1.595  -0.402   0.031  0.00  0.00    +0.048 A 
ATOM      6  C   UNL     1      -0.945  -0.160  -1.200  0.00  0.00    +0.116 A 
ATOM      7  N   UNL     1      -0.422  -1.209  -1.925  0.00  0.00    -0.223 NA
ATOM      8  C   UNL     1      -0.518  -2.510  -1.467  0.00  0.00    +0.220 A 
ATOM      9  N   UNL     1      -0.006  -3.581  -2.183  0.00  0.00    -0.283 N 
ATOM     36  H   UNL     1      -0.091  -4.525  -1.808  0.00  0.00    +0.155 HD
ATOM     37  N   UNL     1      -1.134  -2.767  -0.294  0.00  0.00    -0.214 NA
BRANCH   4   3
ATOM      1  C   UNL     1      -3.696  -3.785   3.148  0.00  0.00    +0.020 A 
ATOM      2  C   UNL     1      -3.078  -3.429   1.892  0.00  0.00    +0.013 A 
ATOM      3  C   UNL     1      -2.339  -2.181   1.752  0.00  0.00    +0.019 A 
ATOM     38  C   UNL     1      -2.243  -1.308   2.912  0.00  0.00    +0.120 A 
ATOM     39  N   UNL     1      -2.850  -1.676   4.109  0.00  0.00    -0.263 NA
ATOM     40  C   UNL     1      -3.565  -2.874   4.255  0.00  0.00    +0.111 A 
ENDBRANCH   4   3
ENDBRANCH  10   9
BRANCH  12  13
ATOM     13  N   UNL     1      -0.336  -2.725  -7.073  0.00  0.00    -0.281 N 
ATOM     14  C   UNL     1      -0.229  -1.666  -7.960  0.00  0.00    +0.248 C 
ATOM     30  O   UNL     1       0.396  -0.639  -7.738  0.00  0.00    -0.270 OA
ATOM     31  H   UNL     1      -1.039  -3.428  -7.298  0.00  0.00    +0.155 HD
BRANCH  14  15
ATOM     15  C   UNL     1      -0.929  -1.754  -9.278  0.00  0.00    +0.037 A 
ATOM     16  C   UNL     1      -2.377  -1.552  -9.384  0.00  0.00    +0.013 A 
ATOM     17  C   UNL     1      -3.030  -1.660 -10.665  0.00  0.00    +0.005 A 
ATOM     18  C   UNL     1      -2.234  -1.969 -11.850  0.00  0.00    -0.033 A 
ATOM     28  C   UNL     1      -0.799  -2.159 -11.717  0.00  0.00    +0.005 A 
ATOM     29  C   UNL     1      -0.156  -2.056 -10.463  0.00  0.00    +0.013 A 
BRANCH  18  19
ATOM     19  C   UNL     1      -2.850  -2.124 -13.253  0.00  0.00    +0.119 C 
BRANCH  19  20
ATOM     20  N   UNL     1      -3.150  -3.510 -13.719  0.00  0.00    -0.302 NA
ATOM     21  C   UNL     1      -2.453  -3.835 -15.043  0.00  0.00    +0.066 C 
ATOM     22  C   UNL     1      -2.760  -5.297 -15.505  0.00  0.00    -0.064 C 
ATOM     23  N   UNL     1      -4.273  -5.482 -15.630  0.00  0.00    +0.379 N 
ATOM     24  C   UNL     1      -4.562  -6.838 -16.119  0.00  0.00    -0.096 C 
ATOM     25  H   UNL     1      -4.640  -4.760 -16.396  0.00  0.00    -0.082 HD
ATOM     26  C   UNL     1      -4.975  -5.159 -14.319  0.00  0.00    -0.064 C 
ATOM     27  C   UNL     1      -4.639  -3.714 -13.854  0.00  0.00    +0.066 C 
ENDBRANCH  19  20
ENDBRANCH  18  19
ENDBRANCH  14  15
ENDBRANCH  12  13
TORSDOF 6
ENDMDL
MODEL 4
REMARK VINA RESULT:     -11.5      2.831     14.162
REMARK  Name = C:\Users\Docking\Desktop\test protocol\1iep_ligandH.pdb
REMARK  8 active torsions:
REMARK  status: ('A' for Active; 'I' for Inactive)
REMARK    1  A    between atoms: _5  and  _11
REMARK    2  A    between atoms: _19  and  _21
REMARK    3  A    between atoms: _22  and  _66
REMARK    4  A    between atoms: _27  and  _30
REMARK    5  A    between atoms: _32  and  _33
REMARK    6  A    between atoms: _38  and  _43
REMARK    7  A    between atoms: _43  and  _46
REMARK    8  A    between atoms: _53  and  _55
REMARK                            x       y       z     vdW  Elec       q    Type
REMARK                         _______ _______ _______ _____ _____    ______ ____
ROOT
ATOM     10  C   UNL     1      -4.575  -1.856 -14.067  0.00  0.00    +0.038 A 
ATOM     11  C   UNL     1      -3.586  -2.324 -13.166  0.00  0.00    +0.047 A 
ATOM     12  C   UNL     1      -3.497  -1.805 -11.810  0.00  0.00    +0.035 A 
ATOM     32  C   UNL     1      -4.435  -0.811 -11.404  0.00  0.00    +0.024 A 
ATOM     33  C   UNL     1      -5.447  -0.323 -12.308  0.00  0.00    +0.007 A 
ATOM     34  C   UNL     1      -5.537  -0.829 -13.647  0.00  0.00    -0.029 A 
ATOM     35  C   UNL     1      -6.638  -0.265 -14.575  0.00  0.00    +0.045 C 
ENDROOT
BRANCH  10   9
ATOM      4  C   UNL     1      -4.665  -5.563 -17.114  0.00  0.00    +0.077 A 
ATOM      5  C   UNL     1      -4.602  -6.519 -16.045  0.00  0.00    +0.048 A 
ATOM      6  C   UNL     1      -4.540  -6.015 -14.727  0.00  0.00    +0.116 A 
ATOM      7  N   UNL     1      -4.542  -4.655 -14.505  0.00  0.00    -0.223 NA
ATOM      8  C   UNL     1      -4.603  -3.761 -15.558  0.00  0.00    +0.220 A 
ATOM      9  N   UNL     1      -4.615  -2.389 -15.357  0.00  0.00    -0.283 N 
ATOM     36  H   UNL     1      -4.653  -1.762 -16.161  0.00  0.00    +0.155 HD
ATOM     37  N   UNL     1      -4.661  -4.217 -16.826  0.00  0.00    -0.214 NA
BRANCH   4   3
ATOM      1  C   UNL     1      -5.902  -6.007 -20.798  0.00  0.00    +0.020 A 
ATOM      2  C   UNL     1      -5.882  -5.620 -19.406  0.00  0.00    +0.013 A 
ATOM      3  C   UNL     1      -4.739  -5.940 -18.561  0.00  0.00    +0.019 A 
ATOM     38  C   UNL     1      -3.623  -6.657 -19.160  0.00  0.00    +0.120 A 
ATOM     39  N   UNL     1      -3.671  -7.018 -20.503  0.00  0.00    -0.263 NA
ATOM     40  C   UNL     1      -4.767  -6.717 -21.325  0.00  0.00    +0.111 A 
ENDBRANCH   4   3
ENDBRANCH  10   9
BRANCH  12  13
ATOM     13  N   UNL     1      -2.508  -2.236 -10.852  0.00  0.00    -0.281 N 
ATOM     14  C   UNL     1      -1.142  -2.368 -11.040  0.00  0.00    +0.248 C 
ATOM     30  O   UNL     1      -0.588  -2.339 -12.129  0.00  0.00    -0.270 OA
ATOM     31  H   UNL     1      -2.858  -2.473  -9.924  0.00  0.00    +0.155 HD
BRANCH  14  15
ATOM     15  C   UNL     1      -0.267  -2.576  -9.847  0.00  0.00    +0.037 A 
ATOM     16  C   UNL     1      -0.362  -3.795  -9.038  0.00  0.00    +0.013 A 
ATOM     17  C   UNL     1       0.483  -3.963  -7.882  0.00  0.00    +0.005 A 
ATOM     18  C   UNL     1       1.432  -2.910  -7.529  0.00  0.00    -0.033 A 
ATOM     28  C   UNL     1       1.509  -1.714  -8.352  0.00  0.00    +0.005 A 
ATOM     29  C   UNL     1       0.682  -1.545  -9.485  0.00  0.00    +0.013 A 
BRANCH  18  19
ATOM     19  C   UNL     1       2.357  -2.996  -6.301  0.00  0.00    +0.119 C 
BRANCH  19  20
ATOM     20  N   UNL     1       1.707  -3.058  -4.958  0.00  0.00    -0.302 NA
ATOM     21  C   UNL     1       0.725  -1.904  -4.741  0.00  0.00    +0.066 C 
ATOM     22  C   UNL     1       0.037  -1.997  -3.340  0.00  0.00    -0.064 C 
ATOM     23  N   UNL     1       1.109  -2.008  -2.249  0.00  0.00    +0.379 N 
ATOM     24  C   UNL     1       0.463  -2.038  -0.928  0.00  0.00    -0.096 C 
ATOM     25  H   UNL     1       1.679  -1.054  -2.326  0.00  0.00    -0.082 HD
ATOM     26  C   UNL     1       2.092  -3.152  -2.458  0.00  0.00    -0.064 C 
ATOM     27  C   UNL     1       2.747  -3.066  -3.865  0.00  0.00    +0.066 C 
ENDBRANCH  19  20
ENDBRANCH  18  19
ENDBRANCH  14  15
ENDBRANCH  12  13
TORSDOF 6
ENDMDL
MODEL 5
REMARK VINA RESULT:     -10.9      4.653     14.600
REMARK  Name = C:\Users\Docking\Desktop\test protocol\1iep_ligandH.pdb
REMARK  8 active torsions:
REMARK  status: ('A' for Active; 'I' for Inactive)
REMARK    1  A    between atoms: _5  and  _11
REMARK    2  A    between atoms: _19  and  _21
REMARK    3  A    between atoms: _22  and  _66
REMARK    4  A    between atoms: _27  and  _30
REMARK    5  A    between atoms: _32  and  _33
REMARK    6  A    between atoms: _38  and  _43
REMARK    7  A    between atoms: _43  and  _46
REMARK    8  A    between atoms: _53  and  _55
REMARK                            x       y       z     vdW  Elec       q    Type
REMARK                         _______ _______ _______ _____ _____    ______ ____
ROOT
ATOM     10  C   UNL     1      -4.792  -4.349 -16.940  0.00  0.00    +0.038 A 
ATOM     11  C   UNL     1      -4.249  -3.759 -15.771  0.00  0.00    +0.047 A 
ATOM     12  C   UNL     1      -3.006  -4.244 -15.191  0.00  0.00    +0.035 A 
ATOM     32  C   UNL     1      -2.341  -5.331 -15.830  0.00  0.00    +0.024 A 
ATOM     33  C   UNL     1      -2.880  -5.943 -17.019  0.00  0.00    +0.007 A 
ATOM     34  C   UNL     1      -4.107  -5.471 -17.594  0.00  0.00    -0.029 A 
ATOM     35  C   UNL     1      -4.641  -6.170 -18.866  0.00  0.00    +0.045 C 
ENDROOT
BRANCH  10   9
ATOM      4  C   UNL     1      -7.946  -0.792 -17.603  0.00  0.00    +0.077 A 
ATOM      5  C   UNL     1      -7.157   0.129 -16.837  0.00  0.00    +0.048 A 
ATOM      6  C   UNL     1      -5.950  -0.354 -16.284  0.00  0.00    +0.116 A 
ATOM      7  N   UNL     1      -5.570  -1.662 -16.488  0.00  0.00    -0.223 NA
ATOM      8  C   UNL     1      -6.355  -2.526 -17.230  0.00  0.00    +0.220 A 
ATOM      9  N   UNL     1      -5.988  -3.844 -17.455  0.00  0.00    -0.283 N 
ATOM     36  H   UNL     1      -6.599  -4.451 -18.001  0.00  0.00    +0.155 HD
ATOM     37  N   UNL     1      -7.513  -2.089 -17.768  0.00  0.00    -0.214 NA
BRANCH   4   3
ATOM      1  C   UNL     1     -10.897   1.239 -19.173  0.00  0.00    +0.020 A 
ATOM      2  C   UNL     1      -9.631   0.944 -18.542  0.00  0.00    +0.013 A 
ATOM      3  C   UNL     1      -9.245  -0.431 -18.254  0.00  0.00    +0.019 A 
ATOM     38  C   UNL     1     -10.169  -1.494 -18.620  0.00  0.00    +0.120 A 
ATOM     39  N   UNL     1     -11.382  -1.179 -19.226  0.00  0.00    -0.263 NA
ATOM     40  C   UNL     1     -11.765   0.141 -19.506  0.00  0.00    +0.111 A 
ENDBRANCH   4   3
ENDBRANCH  10   9
BRANCH  12  13
ATOM     13  N   UNL     1      -2.411  -3.690 -14.000  0.00  0.00    -0.281 N 
ATOM     14  C   UNL     1      -1.993  -4.363 -12.864  0.00  0.00    +0.248 C 
ATOM     30  O   UNL     1      -2.265  -5.527 -12.611  0.00  0.00    -0.270 OA
ATOM     31  H   UNL     1      -2.282  -2.678 -13.994  0.00  0.00    +0.155 HD
BRANCH  14  15
ATOM     15  C   UNL     1      -1.165  -3.634 -11.856  0.00  0.00    +0.037 A 
ATOM     16  C   UNL     1      -1.324  -2.193 -11.641  0.00  0.00    +0.013 A 
ATOM     17  C   UNL     1      -0.501  -1.511 -10.674  0.00  0.00    +0.005 A 
ATOM     18  C   UNL     1       0.488  -2.270  -9.913  0.00  0.00    -0.033 A 
ATOM     28  C   UNL     1       0.621  -3.699 -10.143  0.00  0.00    +0.005 A 
ATOM     29  C   UNL     1      -0.183  -4.371 -11.090  0.00  0.00    +0.013 A 
BRANCH  18  19
ATOM     19  C   UNL     1       1.424  -1.621  -8.876  0.00  0.00    +0.119 C 
BRANCH  19  20
ATOM     20  N   UNL     1       1.731  -2.408  -7.645  0.00  0.00    -0.302 NA
ATOM     21  C   UNL     1       0.903  -1.942  -6.444  0.00  0.00    +0.066 C 
ATOM     22  C   UNL     1       1.220  -2.791  -5.170  0.00  0.00    -0.064 C 
ATOM     23  N   UNL     1       2.716  -2.704  -4.862  0.00  0.00    +0.379 N 
ATOM     24  C   UNL     1       3.008  -3.454  -3.632  0.00  0.00    -0.096 C 
ATOM     25  H   UNL     1       2.960  -1.633  -4.672  0.00  0.00    -0.082 HD
ATOM     26  C   UNL     1       3.547  -3.163  -6.052  0.00  0.00    -0.064 C 
ATOM     27  C   UNL     1       3.203  -2.333  -7.320  0.00  0.00    +0.066 C 
ENDBRANCH  19  20
ENDBRANCH  18  19
ENDBRANCH  14  15
ENDBRANCH  12  13
TORSDOF 6
ENDMDL
