MODEL 1
REMARK VINA RESULT:      -6.9      0.000      0.000
REMARK  Name = C:\Users\Docking\Desktop\test protocol\1iep_ligandH.pdb
REMARK  8 active torsions:
REMARK  status: ('A' for Active; 'I' for Inactive)
REMARK    1  A    between atoms: _5  and  _11
REMARK    2  A    between atoms: _19  and  _21
REMARK    3  A    between atoms: _22  and  _66
REMARK    4  A    between atoms: _27  and  _30
REMARK    5  A    between atoms: _32  and  _33
REMARK    6  A    between atoms: _38  and  _43
REMARK    7  A    between atoms: _43  and  _46
REMARK    8  A    between atoms: _53  and  _55
REMARK                            x       y       z     vdW  Elec       q    Type
REMARK                         _______ _______ _______ _____ _____    ______ ____
ROOT
ATOM     10  C   UNL     1      -6.924 -37.193 -30.539  0.00  0.00    +0.038 A 
ATOM     11  C   UNL     1      -6.666 -37.067 -31.928  0.00  0.00    +0.047 A 
ATOM     12  C   UNL     1      -6.212 -38.203 -32.715  0.00  0.00    +0.035 A 
ATOM     32  C   UNL     1      -6.032 -39.453 -32.055  0.00  0.00    +0.024 A 
ATOM     33  C   UNL     1      -6.287 -39.599 -30.644  0.00  0.00    +0.007 A 
ATOM     34  C   UNL     1      -6.734 -38.481 -29.862  0.00  0.00    -0.029 A 
ATOM     35  C   UNL     1      -6.986 -38.693 -28.351  0.00  0.00    +0.045 C 
ENDROOT
BRANCH  10   9
ATOM      4  C   UNL     1      -6.128 -32.980 -28.380  0.00  0.00    +0.077 A 
ATOM      5  C   UNL     1      -4.722 -33.035 -28.661  0.00  0.00    +0.048 A 
ATOM      6  C   UNL     1      -4.243 -34.168 -29.357  0.00  0.00    +0.116 A 
ATOM      7  N   UNL     1      -5.114 -35.165 -29.739  0.00  0.00    -0.223 NA
ATOM      8  C   UNL     1      -6.463 -35.082 -29.451  0.00  0.00    +0.220 A 
ATOM      9  N   UNL     1      -7.359 -36.069 -29.832  0.00  0.00    -0.283 N 
ATOM     36  H   UNL     1      -8.346 -35.975 -29.594  0.00  0.00    +0.155 HD
ATOM     37  N   UNL     1      -6.946 -34.011 -28.786  0.00  0.00    -0.214 NA
BRANCH   4   3
ATOM      1  C   UNL     1      -6.726 -29.656 -26.407  0.00  0.00    +0.020 A 
ATOM      2  C   UNL     1      -6.042 -30.725 -27.097  0.00  0.00    +0.013 A 
ATOM      3  C   UNL     1      -6.786 -31.847 -27.656  0.00  0.00    +0.019 A 
ATOM     38  C   UNL     1      -8.232 -31.857 -27.498  0.00  0.00    +0.120 A 
ATOM     39  N   UNL     1      -8.864 -30.814 -26.828  0.00  0.00    -0.263 NA
ATOM     40  C   UNL     1      -8.158 -29.730 -26.284  0.00  0.00    +0.111 A 
ENDBRANCH   4   3
ENDBRANCH  10   9
BRANCH  12  13
ATOM     13  N   UNL     1      -5.927 -38.133 -34.127  0.00  0.00    -0.281 N 
ATOM     14  C   UNL     1      -4.691 -38.188 -34.750  0.00  0.00    +0.248 C 
ATOM     30  O   UNL     1      -3.620 -38.090 -34.170  0.00  0.00    -0.270 OA
ATOM     31  H   UNL     1      -6.735 -38.031 -34.741  0.00  0.00    +0.155 HD
BRANCH  14  15
ATOM     15  C   UNL     1      -4.637 -38.362 -36.233  0.00  0.00    +0.037 A 
ATOM     16  C   UNL     1      -5.750 -37.941 -37.089  0.00  0.00    +0.013 A 
ATOM     17  C   UNL     1      -5.679 -38.136 -38.515  0.00  0.00    +0.005 A 
ATOM     18  C   UNL     1      -4.490 -38.755 -39.096  0.00  0.00    -0.033 A 
ATOM     28  C   UNL     1      -3.399 -39.158 -38.224  0.00  0.00    +0.005 A 
ATOM     29  C   UNL     1      -3.465 -38.969 -36.826  0.00  0.00    +0.013 A 
BRANCH  18  19
ATOM     19  C   UNL     1      -4.338 -39.021 -40.605  0.00  0.00    +0.119 C 
BRANCH  19  20
ATOM     20  N   UNL     1      -2.950 -39.072 -41.154  0.00  0.00    -0.302 NA
ATOM     21  C   UNL     1      -2.400 -37.676 -41.457  0.00  0.00    +0.066 C 
ATOM     22  C   UNL     1      -0.938 -37.747 -42.009  0.00  0.00    -0.064 C 
ATOM     23  N   UNL     1      -0.912 -38.624 -43.262  0.00  0.00    +0.379 N 
ATOM     24  C   UNL     1       0.450 -38.646 -43.816  0.00  0.00    -0.096 C 
ATOM     25  H   UNL     1      -1.578 -38.150 -44.020  0.00  0.00    -0.082 HD
ATOM     26  C   UNL     1      -1.460 -40.013 -42.970  0.00  0.00    -0.064 C 
ATOM     27  C   UNL     1      -2.901 -39.930 -42.394  0.00  0.00    +0.066 C 
ENDBRANCH  19  20
ENDBRANCH  18  19
ENDBRANCH  14  15
ENDBRANCH  12  13
TORSDOF 6
ENDMDL
MODEL 2
REMARK VINA RESULT:      -6.9     28.225     32.782
REMARK  Name = C:\Users\Docking\Desktop\test protocol\1iep_ligandH.pdb
REMARK  8 active torsions:
REMARK  status: ('A' for Active; 'I' for Inactive)
REMARK    1  A    between atoms: _5  and  _11
REMARK    2  A    between atoms: _19  and  _21
REMARK    3  A    between atoms: _22  and  _66
REMARK    4  A    between atoms: _27  and  _30
REMARK    5  A    between atoms: _32  and  _33
REMARK    6  A    between atoms: _38  and  _43
REMARK    7  A    between atoms: _43  and  _46
REMARK    8  A    between atoms: _53  and  _55
REMARK                            x       y       z     vdW  Elec       q    Type
REMARK                         _______ _______ _______ _____ _____    ______ ____
ROOT
ATOM     10  C   UNL     1      10.758 -15.230 -50.737  0.00  0.00    +0.038 A 
ATOM     11  C   UNL     1       9.498 -14.706 -51.125  0.00  0.00    +0.047 A 
ATOM     12  C   UNL     1       9.264 -13.271 -51.177  0.00  0.00    +0.035 A 
ATOM     32  C   UNL     1      10.336 -12.399 -50.830  0.00  0.00    +0.024 A 
ATOM     33  C   UNL     1      11.623 -12.915 -50.432  0.00  0.00    +0.007 A 
ATOM     34  C   UNL     1      11.859 -14.329 -50.376  0.00  0.00    -0.029 A 
ATOM     35  C   UNL     1      13.256 -14.826 -49.936  0.00  0.00    +0.045 C 
ENDROOT
BRANCH  10   9
ATOM      4  C   UNL     1      11.759 -19.423 -52.848  0.00  0.00    +0.077 A 
ATOM      5  C   UNL     1      11.933 -18.803 -54.130  0.00  0.00    +0.048 A 
ATOM      6  C   UNL     1      11.749 -17.404 -54.205  0.00  0.00    +0.116 A 
ATOM      7  N   UNL     1      11.416 -16.688 -53.076  0.00  0.00    -0.223 NA
ATOM      8  C   UNL     1      11.254 -17.317 -51.855  0.00  0.00    +0.220 A 
ATOM      9  N   UNL     1      10.927 -16.616 -50.704  0.00  0.00    -0.283 N 
ATOM     36  H   UNL     1      10.809 -17.118 -49.825  0.00  0.00    +0.155 HD
ATOM     37  N   UNL     1      11.423 -18.653 -51.758  0.00  0.00    -0.214 NA
BRANCH   4   3
ATOM      1  C   UNL     1      11.154 -23.102 -51.667  0.00  0.00    +0.020 A 
ATOM      2  C   UNL     1      10.949 -21.687 -51.871  0.00  0.00    +0.013 A 
ATOM      3  C   UNL     1      11.923 -20.891 -52.608  0.00  0.00    +0.019 A 
ATOM     38  C   UNL     1      13.103 -21.564 -53.130  0.00  0.00    +0.120 A 
ATOM     39  N   UNL     1      13.275 -22.928 -52.916  0.00  0.00    -0.263 NA
ATOM     40  C   UNL     1      12.345 -23.704 -52.208  0.00  0.00    +0.111 A 
ENDBRANCH   4   3
ENDBRANCH  10   9
BRANCH  12  13
ATOM     13  N   UNL     1       8.004 -12.681 -51.556  0.00  0.00    -0.281 N 
ATOM     14  C   UNL     1       7.426 -12.644 -52.814  0.00  0.00    +0.248 C 
ATOM     30  O   UNL     1       8.007 -12.927 -53.851  0.00  0.00    -0.270 OA
ATOM     31  H   UNL     1       7.475 -12.237 -50.806  0.00  0.00    +0.155 HD
BRANCH  14  15
ATOM     15  C   UNL     1       5.999 -12.215 -52.940  0.00  0.00    +0.037 A 
ATOM     16  C   UNL     1       5.501 -11.021 -52.253  0.00  0.00    +0.013 A 
ATOM     17  C   UNL     1       4.116 -10.640 -52.378  0.00  0.00    +0.005 A 
ATOM     18  C   UNL     1       3.220 -11.455 -53.195  0.00  0.00    -0.033 A 
ATOM     28  C   UNL     1       3.742 -12.631 -53.870  0.00  0.00    +0.005 A 
ATOM     29  C   UNL     1       5.098 -13.008 -53.749  0.00  0.00    +0.013 A 
BRANCH  18  19
ATOM     19  C   UNL     1       1.723 -11.135 -53.368  0.00  0.00    +0.119 C 
BRANCH  19  20
ATOM     20  N   UNL     1       0.749 -12.028 -52.672  0.00  0.00    -0.302 NA
ATOM     21  C   UNL     1      -0.571 -11.313 -52.369  0.00  0.00    +0.066 C 
ATOM     22  C   UNL     1      -1.587 -12.268 -51.662  0.00  0.00    -0.064 C 
ATOM     23  N   UNL     1      -0.960 -12.815 -50.379  0.00  0.00    +0.379 N 
ATOM     24  C   UNL     1      -1.933 -13.668 -49.682  0.00  0.00    -0.096 C 
ATOM     25  H   UNL     1      -0.735 -11.947 -49.716  0.00  0.00    -0.082 HD
ATOM     26  C   UNL     1       0.354 -13.525 -50.671  0.00  0.00    -0.064 C 
ATOM     27  C   UNL     1       1.346 -12.576 -51.400  0.00  0.00    +0.066 C 
ENDBRANCH  19  20
ENDBRANCH  18  19
ENDBRANCH  14  15
ENDBRANCH  12  13
TORSDOF 6
ENDMDL
MODEL 3
REMARK VINA RESULT:      -6.8     44.987     48.334
REMARK  Name = C:\Users\Docking\Desktop\test protocol\1iep_ligandH.pdb
REMARK  8 active torsions:
REMARK  status: ('A' for Active; 'I' for Inactive)
REMARK    1  A    between atoms: _5  and  _11
REMARK    2  A    between atoms: _19  and  _21
REMARK    3  A    between atoms: _22  and  _66
REMARK    4  A    between atoms: _27  and  _30
REMARK    5  A    between atoms: _32  and  _33
REMARK    6  A    between atoms: _38  and  _43
REMARK    7  A    between atoms: _43  and  _46
REMARK    8  A    between atoms: _53  and  _55
REMARK                            x       y       z     vdW  Elec       q    Type
REMARK                         _______ _______ _______ _____ _____    ______ ____
ROOT
ATOM     10  C   UNL     1       2.725  10.204 -32.961  0.00  0.00    +0.038 A 
ATOM     11  C   UNL     1       3.629   9.657 -33.907  0.00  0.00    +0.047 A 
ATOM     12  C   UNL     1       3.219   8.597 -34.815  0.00  0.00    +0.035 A 
ATOM     32  C   UNL     1       1.879   8.119 -34.733  0.00  0.00    +0.024 A 
ATOM     33  C   UNL     1       0.947   8.662 -33.776  0.00  0.00    +0.007 A 
ATOM     34  C   UNL     1       1.347   9.706 -32.877  0.00  0.00    -0.029 A 
ATOM     35  C   UNL     1       0.307  10.247 -31.867  0.00  0.00    +0.045 C 
ENDROOT
BRANCH  10   9
ATOM      4  C   UNL     1       3.351  14.836 -31.870  0.00  0.00    +0.077 A 
ATOM      5  C   UNL     1       2.761  15.267 -33.104  0.00  0.00    +0.048 A 
ATOM      6  C   UNL     1       2.316  14.265 -33.996  0.00  0.00    +0.116 A 
ATOM      7  N   UNL     1       2.455  12.934 -33.667  0.00  0.00    -0.223 NA
ATOM      8  C   UNL     1       3.030  12.552 -32.468  0.00  0.00    +0.220 A 
ATOM      9  N   UNL     1       3.172  11.220 -32.113  0.00  0.00    -0.283 N 
ATOM     36  H   UNL     1       3.609  10.979 -31.224  0.00  0.00    +0.155 HD
ATOM     37  N   UNL     1       3.464  13.490 -31.601  0.00  0.00    -0.214 NA
BRANCH   4   3
ATOM      1  C   UNL     1       3.686  16.975 -28.612  0.00  0.00    +0.020 A 
ATOM      2  C   UNL     1       3.144  16.060 -29.590  0.00  0.00    +0.013 A 
ATOM      3  C   UNL     1       3.866  15.775 -30.824  0.00  0.00    +0.019 A 
ATOM     38  C   UNL     1       5.144  16.436 -31.038  0.00  0.00    +0.120 A 
ATOM     39  N   UNL     1       5.641  17.313 -30.079  0.00  0.00    -0.263 NA
ATOM     40  C   UNL     1       4.954  17.597 -28.889  0.00  0.00    +0.111 A 
ENDBRANCH   4   3
ENDBRANCH  10   9
BRANCH  12  13
ATOM     13  N   UNL     1       4.095   7.998 -35.791  0.00  0.00    -0.281 N 
ATOM     14  C   UNL     1       4.377   8.446 -37.071  0.00  0.00    +0.248 C 
ATOM     30  O   UNL     1       3.750   9.320 -37.651  0.00  0.00    -0.270 OA
ATOM     31  H   UNL     1       4.565   7.139 -35.503  0.00  0.00    +0.155 HD
BRANCH  14  15
ATOM     15  C   UNL     1       5.511   7.824 -37.820  0.00  0.00    +0.037 A 
ATOM     16  C   UNL     1       5.595   6.373 -38.003  0.00  0.00    +0.013 A 
ATOM     17  C   UNL     1       6.708   5.797 -38.716  0.00  0.00    +0.005 A 
ATOM     18  C   UNL     1       7.746   6.674 -39.252  0.00  0.00    -0.033 A 
ATOM     28  C   UNL     1       7.635   8.110 -39.061  0.00  0.00    +0.005 A 
ATOM     29  C   UNL     1       6.546   8.678 -38.362  0.00  0.00    +0.013 A 
BRANCH  18  19
ATOM     19  C   UNL     1       8.979   6.145 -40.008  0.00  0.00    +0.119 C 
BRANCH  19  20
ATOM     20  N   UNL     1      10.010   7.144 -40.418  0.00  0.00    -0.302 NA
ATOM     21  C   UNL     1      10.105   7.279 -41.941  0.00  0.00    +0.066 C 
ATOM     22  C   UNL     1      11.172   8.345 -42.352  0.00  0.00    -0.064 C 
ATOM     23  N   UNL     1      12.528   7.962 -41.757  0.00  0.00    +0.379 N 
ATOM     24  C   UNL     1      13.545   8.931 -42.190  0.00  0.00    -0.096 C 
ATOM     25  H   UNL     1      12.810   6.967 -42.172  0.00  0.00    -0.082 HD
ATOM     26  C   UNL     1      12.442   7.823 -40.244  0.00  0.00    -0.064 C 
ATOM     27  C   UNL     1      11.358   6.783 -39.845  0.00  0.00    +0.066 C 
ENDBRANCH  19  20
ENDBRANCH  18  19
ENDBRANCH  14  15
ENDBRANCH  12  13
TORSDOF 6
ENDMDL
MODEL 4
REMARK VINA RESULT:      -6.8     36.399     42.423
REMARK  Name = C:\Users\Docking\Desktop\test protocol\1iep_ligandH.pdb
REMARK  8 active torsions:
REMARK  status: ('A' for Active; 'I' for Inactive)
REMARK    1  A    between atoms: _5  and  _11
REMARK    2  A    between atoms: _19  and  _21
REMARK    3  A    between atoms: _22  and  _66
REMARK    4  A    between atoms: _27  and  _30
REMARK    5  A    between atoms: _32  and  _33
REMARK    6  A    between atoms: _38  and  _43
REMARK    7  A    between atoms: _43  and  _46
REMARK    8  A    between atoms: _53  and  _55
REMARK                            x       y       z     vdW  Elec       q    Type
REMARK                         _______ _______ _______ _____ _____    ______ ____
ROOT
ATOM     10  C   UNL     1       4.117  -1.099 -23.798  0.00  0.00    +0.038 A 
ATOM     11  C   UNL     1       5.118  -0.486 -23.000  0.00  0.00    +0.047 A 
ATOM     12  C   UNL     1       4.827  -0.024 -21.652  0.00  0.00    +0.035 A 
ATOM     32  C   UNL     1       3.506  -0.204 -21.146  0.00  0.00    +0.024 A 
ATOM     33  C   UNL     1       2.477  -0.823 -21.944  0.00  0.00    +0.007 A 
ATOM     34  C   UNL     1       2.758  -1.279 -23.275  0.00  0.00    -0.029 A 
ATOM     35  C   UNL     1       1.614  -1.930 -24.087  0.00  0.00    +0.045 C 
ENDROOT
BRANCH  10   9
ATOM      4  C   UNL     1       5.466  -0.238 -28.323  0.00  0.00    +0.077 A 
ATOM      5  C   UNL     1       5.480   1.181 -28.111  0.00  0.00    +0.048 A 
ATOM      6  C   UNL     1       5.126   1.649 -26.826  0.00  0.00    +0.116 A 
ATOM      7  N   UNL     1       4.787   0.755 -25.833  0.00  0.00    -0.223 NA
ATOM      8  C   UNL     1       4.782  -0.607 -26.071  0.00  0.00    +0.220 A 
ATOM      9  N   UNL     1       4.452  -1.524 -25.085  0.00  0.00    -0.283 N 
ATOM     36  H   UNL     1       4.453  -2.520 -25.303  0.00  0.00    +0.155 HD
ATOM     37  N   UNL     1       5.114  -1.079 -27.291  0.00  0.00    -0.214 NA
BRANCH   4   3
ATOM      1  C   UNL     1       6.984  -0.921 -31.862  0.00  0.00    +0.020 A 
ATOM      2  C   UNL     1       6.675  -0.252 -30.620  0.00  0.00    +0.013 A 
ATOM      3  C   UNL     1       5.818  -0.886 -29.626  0.00  0.00    +0.019 A 
ATOM     38  C   UNL     1       5.288  -2.208 -29.921  0.00  0.00    +0.120 A 
ATOM     39  N   UNL     1       5.602  -2.828 -31.127  0.00  0.00    -0.263 NA
ATOM     40  C   UNL     1       6.424  -2.226 -32.092  0.00  0.00    +0.111 A 
ENDBRANCH   4   3
ENDBRANCH  10   9
BRANCH  12  13
ATOM     13  N   UNL     1       5.800   0.612 -20.799  0.00  0.00    -0.281 N 
ATOM     14  C   UNL     1       6.622   0.019 -19.855  0.00  0.00    +0.248 C 
ATOM     30  O   UNL     1       6.493  -1.126 -19.448  0.00  0.00    -0.270 OA
ATOM     31  H   UNL     1       5.894   1.622 -20.904  0.00  0.00    +0.155 HD
BRANCH  14  15
ATOM     15  C   UNL     1       7.740   0.818 -19.267  0.00  0.00    +0.037 A 
ATOM     16  C   UNL     1       7.543   2.208 -18.849  0.00  0.00    +0.013 A 
ATOM     17  C   UNL     1       8.643   2.962 -18.301  0.00  0.00    +0.005 A 
ATOM     18  C   UNL     1       9.950   2.324 -18.165  0.00  0.00    -0.033 A 
ATOM     28  C   UNL     1      10.116   0.942 -18.582  0.00  0.00    +0.005 A 
ATOM     29  C   UNL     1       9.041   0.201 -19.121  0.00  0.00    +0.013 A 
BRANCH  18  19
ATOM     19  C   UNL     1      11.185   3.059 -17.610  0.00  0.00    +0.119 C 
BRANCH  19  20
ATOM     20  N   UNL     1      11.445   2.946 -16.144  0.00  0.00    -0.302 NA
ATOM     21  C   UNL     1      11.556   4.319 -15.473  0.00  0.00    +0.066 C 
ATOM     22  C   UNL     1      11.806   4.182 -13.936  0.00  0.00    -0.064 C 
ATOM     23  N   UNL     1      13.074   3.360 -13.699  0.00  0.00    +0.379 N 
ATOM     24  C   UNL     1      13.344   3.279 -12.256  0.00  0.00    -0.096 C 
ATOM     25  H   UNL     1      13.924   3.905 -14.173  0.00  0.00    -0.082 HD
ATOM     26  C   UNL     1      12.974   1.995 -14.365  0.00  0.00    -0.064 C 
ATOM     27  C   UNL     1      12.696   2.141 -15.887  0.00  0.00    +0.066 C 
ENDBRANCH  19  20
ENDBRANCH  18  19
ENDBRANCH  14  15
ENDBRANCH  12  13
TORSDOF 6
ENDMDL
MODEL 5
REMARK VINA RESULT:      -6.8     32.960     37.198
REMARK  Name = C:\Users\Docking\Desktop\test protocol\1iep_ligandH.pdb
REMARK  8 active torsions:
REMARK  status: ('A' for Active; 'I' for Inactive)
REMARK    1  A    between atoms: _5  and  _11
REMARK    2  A    between atoms: _19  and  _21
REMARK    3  A    between atoms: _22  and  _66
REMARK    4  A    between atoms: _27  and  _30
REMARK    5  A    between atoms: _32  and  _33
REMARK    6  A    between atoms: _38  and  _43
REMARK    7  A    between atoms: _43  and  _46
REMARK    8  A    between atoms: _53  and  _55
REMARK                            x       y       z     vdW  Elec       q    Type
REMARK                         _______ _______ _______ _____ _____    ______ ____
ROOT
ATOM     10  C   UNL     1       8.256 -11.977 -52.220  0.00  0.00    +0.038 A 
ATOM     11  C   UNL     1       8.816 -10.909 -51.474  0.00  0.00    +0.047 A 
ATOM     12  C   UNL     1      10.181 -10.463 -51.706  0.00  0.00    +0.035 A 
ATOM     32  C   UNL     1      10.948 -11.127 -52.708  0.00  0.00    +0.024 A 
ATOM     33  C   UNL     1      10.395 -12.216 -53.475  0.00  0.00    +0.007 A 
ATOM     34  C   UNL     1       9.050 -12.661 -53.249  0.00  0.00    -0.029 A 
ATOM     35  C   UNL     1       8.511 -13.837 -54.096  0.00  0.00    +0.045 C 
ENDROOT
BRANCH  10   9
ATOM      4  C   UNL     1       3.510 -11.404 -52.647  0.00  0.00    +0.077 A 
ATOM      5  C   UNL     1       3.665 -10.219 -53.441  0.00  0.00    +0.048 A 
ATOM      6  C   UNL     1       4.983  -9.787 -53.711  0.00  0.00    +0.116 A 
ATOM      7  N   UNL     1       6.058 -10.494 -53.219  0.00  0.00    -0.223 NA
ATOM      8  C   UNL     1       5.874 -11.632 -52.455  0.00  0.00    +0.220 A 
ATOM      9  N   UNL     1       6.940 -12.364 -51.956  0.00  0.00    -0.283 N 
ATOM     36  H   UNL     1       6.763 -13.193 -51.391  0.00  0.00    +0.155 HD
ATOM     37  N   UNL     1       4.625 -12.065 -52.182  0.00  0.00    -0.214 NA
BRANCH   4   3
ATOM      1  C   UNL     1       0.733 -13.656 -51.061  0.00  0.00    +0.020 A 
ATOM      2  C   UNL     1       2.039 -13.130 -51.385  0.00  0.00    +0.013 A 
ATOM      3  C   UNL     1       2.182 -11.989 -52.279  0.00  0.00    +0.019 A 
ATOM     38  C   UNL     1       0.973 -11.398 -52.834  0.00  0.00    +0.120 A 
ATOM     39  N   UNL     1      -0.271 -11.926 -52.506  0.00  0.00    -0.263 NA
ATOM     40  C   UNL     1      -0.421 -13.026 -51.647  0.00  0.00    +0.111 A 
ENDBRANCH   4   3
ENDBRANCH  10   9
BRANCH  12  13
ATOM     13  N   UNL     1      10.806  -9.389 -50.974  0.00  0.00    -0.281 N 
ATOM     14  C   UNL     1      10.699  -8.027 -51.203  0.00  0.00    +0.248 C 
ATOM     30  O   UNL     1      10.217  -7.532 -52.211  0.00  0.00    -0.270 OA
ATOM     31  H   UNL     1      11.399  -9.667 -50.192  0.00  0.00    +0.155 HD
BRANCH  14  15
ATOM     15  C   UNL     1      11.215  -7.078 -50.171  0.00  0.00    +0.037 A 
ATOM     16  C   UNL     1      10.308  -6.395 -49.245  0.00  0.00    +0.013 A 
ATOM     17  C   UNL     1      10.831  -5.472 -48.269  0.00  0.00    +0.005 A 
ATOM     18  C   UNL     1      12.270  -5.227 -48.214  0.00  0.00    -0.033 A 
ATOM     28  C   UNL     1      13.148  -5.923 -49.140  0.00  0.00    +0.005 A 
ATOM     29  C   UNL     1      12.639  -6.828 -50.098  0.00  0.00    +0.013 A 
BRANCH  18  19
ATOM     19  C   UNL     1      12.913  -4.243 -47.219  0.00  0.00    +0.119 C 
BRANCH  19  20
ATOM     20  N   UNL     1      13.049  -2.821 -47.656  0.00  0.00    -0.302 NA
ATOM     21  C   UNL     1      14.485  -2.481 -48.066  0.00  0.00    +0.066 C 
ATOM     22  C   UNL     1      14.604  -0.996 -48.542  0.00  0.00    -0.064 C 
ATOM     23  N   UNL     1      14.125  -0.066 -47.425  0.00  0.00    +0.379 N 
ATOM     24  C   UNL     1      14.291   1.332 -47.847  0.00  0.00    -0.096 C 
ATOM     25  H   UNL     1      14.783  -0.233 -46.541  0.00  0.00    -0.082 HD
ATOM     26  C   UNL     1      12.700  -0.399 -47.009  0.00  0.00    -0.064 C 
ATOM     27  C   UNL     1      12.586  -1.885 -46.567  0.00  0.00    +0.066 C 
ENDBRANCH  19  20
ENDBRANCH  18  19
ENDBRANCH  14  15
ENDBRANCH  12  13
TORSDOF 6
ENDMDL
