MODEL 1
REMARK VINA RESULT:      -7.9      0.000      0.000
REMARK  Name = C:\Users\Docking\Desktop\test protocol\1iep_ligandH.pdb
REMARK  8 active torsions:
REMARK  status: ('A' for Active; 'I' for Inactive)
REMARK    1  A    between atoms: _5  and  _11
REMARK    2  A    between atoms: _19  and  _21
REMARK    3  A    between atoms: _22  and  _66
REMARK    4  A    between atoms: _27  and  _30
REMARK    5  A    between atoms: _32  and  _33
REMARK    6  A    between atoms: _38  and  _43
REMARK    7  A    between atoms: _43  and  _46
REMARK    8  A    between atoms: _53  and  _55
REMARK                            x       y       z     vdW  Elec       q    Type
REMARK                         _______ _______ _______ _____ _____    ______ ____
ROOT
ATOM     10  C   UNL     1     -49.203 156.380 -26.948  0.00  0.00    +0.038 A 
ATOM     11  C   UNL     1     -49.908 155.164 -26.754  0.00  0.00    +0.047 A 
ATOM     12  C   UNL     1     -49.898 154.119 -27.765  0.00  0.00    +0.035 A 
ATOM     32  C   UNL     1     -49.157 154.343 -28.962  0.00  0.00    +0.024 A 
ATOM     33  C   UNL     1     -48.436 155.573 -29.176  0.00  0.00    +0.007 A 
ATOM     34  C   UNL     1     -48.444 156.609 -28.183  0.00  0.00    -0.029 A 
ATOM     35  C   UNL     1     -47.658 157.910 -28.470  0.00  0.00    +0.045 C 
ENDROOT
BRANCH  10   9
ATOM      4  C   UNL     1     -48.428 157.848 -22.445  0.00  0.00    +0.077 A 
ATOM      5  C   UNL     1     -47.917 156.566 -22.052  0.00  0.00    +0.048 A 
ATOM      6  C   UNL     1     -47.877 155.554 -23.037  0.00  0.00    +0.116 A 
ATOM      7  N   UNL     1     -48.318 155.815 -24.316  0.00  0.00    -0.223 NA
ATOM      8  C   UNL     1     -48.806 157.062 -24.661  0.00  0.00    +0.220 A 
ATOM      9  N   UNL     1     -49.247 157.350 -25.944  0.00  0.00    -0.283 N 
ATOM     36  H   UNL     1     -49.607 158.280 -26.157  0.00  0.00    +0.155 HD
ATOM     37  N   UNL     1     -48.855 158.045 -23.738  0.00  0.00    -0.214 NA
BRANCH   4   3
ATOM      1  C   UNL     1     -48.144 160.156 -19.299  0.00  0.00    +0.020 A 
ATOM      2  C   UNL     1     -48.021 158.997 -20.153  0.00  0.00    +0.013 A 
ATOM      3  C   UNL     1     -48.530 159.019 -21.518  0.00  0.00    +0.019 A 
ATOM     38  C   UNL     1     -49.163 160.241 -21.993  0.00  0.00    +0.120 A 
ATOM     39  N   UNL     1     -49.269 161.341 -21.148  0.00  0.00    -0.263 NA
ATOM     40  C   UNL     1     -48.784 161.330 -19.831  0.00  0.00    +0.111 A 
ENDBRANCH   4   3
ENDBRANCH  10   9
BRANCH  12  13
ATOM     13  N   UNL     1     -50.601 152.868 -27.626  0.00  0.00    -0.281 N 
ATOM     14  C   UNL     1     -50.063 151.604 -27.448  0.00  0.00    +0.248 C 
ATOM     30  O   UNL     1     -48.882 151.328 -27.594  0.00  0.00    -0.270 OA
ATOM     31  H   UNL     1     -51.619 152.920 -27.665  0.00  0.00    +0.155 HD
BRANCH  14  15
ATOM     15  C   UNL     1     -50.972 150.480 -27.065  0.00  0.00    +0.037 A 
ATOM     16  C   UNL     1     -51.964 149.951 -28.005  0.00  0.00    +0.013 A 
ATOM     17  C   UNL     1     -52.839 148.878 -27.604  0.00  0.00    +0.005 A 
ATOM     18  C   UNL     1     -52.724 148.325 -26.257  0.00  0.00    -0.033 A 
ATOM     28  C   UNL     1     -51.728 148.865 -25.347  0.00  0.00    +0.005 A 
ATOM     29  C   UNL     1     -50.869 149.918 -25.735  0.00  0.00    +0.013 A 
BRANCH  18  19
ATOM     19  C   UNL     1     -53.631 147.194 -25.737  0.00  0.00    +0.119 C 
BRANCH  19  20
ATOM     20  N   UNL     1     -54.901 147.592 -25.058  0.00  0.00    -0.302 NA
ATOM     21  C   UNL     1     -54.690 148.751 -24.080  0.00  0.00    +0.066 C 
ATOM     22  C   UNL     1     -56.032 149.169 -23.396  0.00  0.00    -0.064 C 
ATOM     23  N   UNL     1     -56.636 147.959 -22.681  0.00  0.00    +0.379 N 
ATOM     24  C   UNL     1     -57.868 148.363 -21.988  0.00  0.00    -0.096 C 
ATOM     25  H   UNL     1     -55.906 147.625 -21.907  0.00  0.00    -0.082 HD
ATOM     26  C   UNL     1     -56.846 146.801 -23.646  0.00  0.00    -0.064 C 
ATOM     27  C   UNL     1     -55.512 146.413 -24.342  0.00  0.00    +0.066 C 
ENDBRANCH  19  20
ENDBRANCH  18  19
ENDBRANCH  14  15
ENDBRANCH  12  13
TORSDOF 6
ENDMDL
MODEL 2
REMARK VINA RESULT:      -7.8     45.151     48.272
REMARK  Name = C:\Users\Docking\Desktop\test protocol\1iep_ligandH.pdb
REMARK  8 active torsions:
REMARK  status: ('A' for Active; 'I' for Inactive)
REMARK    1  A    between atoms: _5  and  _11
REMARK    2  A    between atoms: _19  and  _21
REMARK    3  A    between atoms: _22  and  _66
REMARK    4  A    between atoms: _27  and  _30
REMARK    5  A    between atoms: _32  and  _33
REMARK    6  A    between atoms: _38  and  _43
REMARK    7  A    between atoms: _43  and  _46
REMARK    8  A    between atoms: _53  and  _55
REMARK                            x       y       z     vdW  Elec       q    Type
REMARK                         _______ _______ _______ _____ _____    ______ ____
ROOT
ATOM     10  C   UNL     1     -55.107 107.693 -30.908  0.00  0.00    +0.038 A 
ATOM     11  C   UNL     1     -54.832 107.674 -29.517  0.00  0.00    +0.047 A 
ATOM     12  C   UNL     1     -53.464 107.678 -29.020  0.00  0.00    +0.035 A 
ATOM     32  C   UNL     1     -52.401 107.704 -29.969  0.00  0.00    +0.024 A 
ATOM     33  C   UNL     1     -52.663 107.722 -31.387  0.00  0.00    +0.007 A 
ATOM     34  C   UNL     1     -54.009 107.716 -31.883  0.00  0.00    -0.029 A 
ATOM     35  C   UNL     1     -54.231 107.730 -33.413  0.00  0.00    +0.045 C 
ENDROOT
BRANCH  10   9
ATOM      4  C   UNL     1     -59.398 105.590 -31.355  0.00  0.00    +0.077 A 
ATOM      5  C   UNL     1     -58.941 104.388 -30.719  0.00  0.00    +0.048 A 
ATOM      6  C   UNL     1     -57.593 104.349 -30.298  0.00  0.00    +0.116 A 
ATOM      7  N   UNL     1     -56.772 105.437 -30.503  0.00  0.00    -0.223 NA
ATOM      8  C   UNL     1     -57.244 106.580 -31.121  0.00  0.00    +0.220 A 
ATOM      9  N   UNL     1     -56.438 107.689 -31.330  0.00  0.00    -0.283 N 
ATOM     36  H   UNL     1     -56.822 108.511 -31.796  0.00  0.00    +0.155 HD
ATOM     37  N   UNL     1     -58.527 106.642 -31.533  0.00  0.00    -0.214 NA
BRANCH   4   3
ATOM      1  C   UNL     1     -62.469 106.523 -33.591  0.00  0.00    +0.020 A 
ATOM      2  C   UNL     1     -61.101 106.356 -33.159  0.00  0.00    +0.013 A 
ATOM      3  C   UNL     1     -60.797 105.786 -31.852  0.00  0.00    +0.019 A 
ATOM     38  C   UNL     1     -61.909 105.390 -31.002  0.00  0.00    +0.120 A 
ATOM     39  N   UNL     1     -63.216 105.564 -31.444  0.00  0.00    -0.263 NA
ATOM     40  C   UNL     1     -63.521 106.114 -32.699  0.00  0.00    +0.111 A 
ENDBRANCH   4   3
ENDBRANCH  10   9
BRANCH  12  13
ATOM     13  N   UNL     1     -53.124 107.651 -27.620  0.00  0.00    -0.281 N 
ATOM     14  C   UNL     1     -53.022 108.723 -26.747  0.00  0.00    +0.248 C 
ATOM     30  O   UNL     1     -53.001 109.895 -27.092  0.00  0.00    -0.270 OA
ATOM     31  H   UNL     1     -52.934 106.731 -27.223  0.00  0.00    +0.155 HD
BRANCH  14  15
ATOM     15  C   UNL     1     -52.915 108.452 -25.281  0.00  0.00    +0.037 A 
ATOM     16  C   UNL     1     -51.996 109.216 -24.433  0.00  0.00    +0.013 A 
ATOM     17  C   UNL     1     -51.900 108.923 -23.025  0.00  0.00    +0.005 A 
ATOM     18  C   UNL     1     -52.726 107.862 -22.456  0.00  0.00    -0.033 A 
ATOM     28  C   UNL     1     -53.633 107.123 -23.319  0.00  0.00    +0.005 A 
ATOM     29  C   UNL     1     -53.729 107.406 -24.700  0.00  0.00    +0.013 A 
BRANCH  18  19
ATOM     19  C   UNL     1     -52.673 107.467 -20.968  0.00  0.00    +0.119 C 
BRANCH  19  20
ATOM     20  N   UNL     1     -52.646 106.009 -20.648  0.00  0.00    -0.302 NA
ATOM     21  C   UNL     1     -53.242 105.712 -19.269  0.00  0.00    +0.066 C 
ATOM     22  C   UNL     1     -53.226 104.179 -18.960  0.00  0.00    -0.064 C 
ATOM     23  N   UNL     1     -51.791 103.658 -19.053  0.00  0.00    +0.379 N 
ATOM     24  C   UNL     1     -51.765 102.230 -18.706  0.00  0.00    -0.096 C 
ATOM     25  H   UNL     1     -51.184 104.202 -18.292  0.00  0.00    -0.082 HD
ATOM     26  C   UNL     1     -51.189 103.952 -20.420  0.00  0.00    -0.064 C 
ATOM     27  C   UNL     1     -51.237 105.474 -20.729  0.00  0.00    +0.066 C 
ENDBRANCH  19  20
ENDBRANCH  18  19
ENDBRANCH  14  15
ENDBRANCH  12  13
TORSDOF 6
ENDMDL
MODEL 3
REMARK VINA RESULT:      -7.7     51.592     56.994
REMARK  Name = C:\Users\Docking\Desktop\test protocol\1iep_ligandH.pdb
REMARK  8 active torsions:
REMARK  status: ('A' for Active; 'I' for Inactive)
REMARK    1  A    between atoms: _5  and  _11
REMARK    2  A    between atoms: _19  and  _21
REMARK    3  A    between atoms: _22  and  _66
REMARK    4  A    between atoms: _27  and  _30
REMARK    5  A    between atoms: _32  and  _33
REMARK    6  A    between atoms: _38  and  _43
REMARK    7  A    between atoms: _43  and  _46
REMARK    8  A    between atoms: _53  and  _55
REMARK                            x       y       z     vdW  Elec       q    Type
REMARK                         _______ _______ _______ _____ _____    ______ ____
ROOT
ATOM     10  C   UNL     1     -45.176  96.910 -23.651  0.00  0.00    +0.038 A 
ATOM     11  C   UNL     1     -45.247  97.059 -22.242  0.00  0.00    +0.047 A 
ATOM     12  C   UNL     1     -45.448  95.910 -21.373  0.00  0.00    +0.035 A 
ATOM     32  C   UNL     1     -45.571  94.623 -21.973  0.00  0.00    +0.024 A 
ATOM     33  C   UNL     1     -45.502  94.454 -23.403  0.00  0.00    +0.007 A 
ATOM     34  C   UNL     1     -45.307  95.584 -24.265  0.00  0.00    -0.029 A 
ATOM     35  C   UNL     1     -45.248  95.344 -25.792  0.00  0.00    +0.045 C 
ENDROOT
BRANCH  10   9
ATOM      4  C   UNL     1     -42.360  99.953 -26.070  0.00  0.00    +0.077 A 
ATOM      5  C   UNL     1     -41.173  99.229 -25.715  0.00  0.00    +0.048 A 
ATOM      6  C   UNL     1     -41.330  98.084 -24.902  0.00  0.00    +0.116 A 
ATOM      7  N   UNL     1     -42.585  97.700 -24.482  0.00  0.00    -0.223 NA
ATOM      8  C   UNL     1     -43.709  98.421 -24.841  0.00  0.00    +0.220 A 
ATOM      9  N   UNL     1     -44.982  98.048 -24.437  0.00  0.00    -0.283 N 
ATOM     36  H   UNL     1     -45.785  98.611 -24.717  0.00  0.00    +0.155 HD
ATOM     37  N   UNL     1     -43.586  99.519 -25.616  0.00  0.00    -0.214 NA
BRANCH   4   3
ATOM      1  C   UNL     1     -43.048 103.554 -27.432  0.00  0.00    +0.020 A 
ATOM      2  C   UNL     1     -43.083 102.395 -26.571  0.00  0.00    +0.013 A 
ATOM      3  C   UNL     1     -42.358 101.181 -26.926  0.00  0.00    +0.019 A 
ATOM     38  C   UNL     1     -41.601 101.174 -28.168  0.00  0.00    +0.120 A 
ATOM     39  N   UNL     1     -41.587 102.305 -28.978  0.00  0.00    -0.263 NA
ATOM     40  C   UNL     1     -42.282 103.478 -28.648  0.00  0.00    +0.111 A 
ENDBRANCH   4   3
ENDBRANCH  10   9
BRANCH  12  13
ATOM     13  N   UNL     1     -45.536  96.001 -19.937  0.00  0.00    -0.281 N 
ATOM     14  C   UNL     1     -46.637  96.347 -19.171  0.00  0.00    +0.248 C 
ATOM     30  O   UNL     1     -47.661  96.842 -19.618  0.00  0.00    -0.270 OA
ATOM     31  H   UNL     1     -44.682  95.783 -19.422  0.00  0.00    +0.155 HD
BRANCH  14  15
ATOM     15  C   UNL     1     -46.587  96.126 -17.694  0.00  0.00    +0.037 A 
ATOM     16  C   UNL     1     -45.914  97.076 -16.805  0.00  0.00    +0.013 A 
ATOM     17  C   UNL     1     -45.866  96.829 -15.385  0.00  0.00    +0.005 A 
ATOM     18  C   UNL     1     -46.497  95.627 -14.846  0.00  0.00    -0.033 A 
ATOM     28  C   UNL     1     -47.163  94.704 -15.750  0.00  0.00    +0.005 A 
ATOM     29  C   UNL     1     -47.210  94.942 -17.142  0.00  0.00    +0.013 A 
BRANCH  18  19
ATOM     19  C   UNL     1     -46.477  95.272 -13.347  0.00  0.00    +0.119 C 
BRANCH  19  20
ATOM     20  N   UNL     1     -46.560  96.404 -12.376  0.00  0.00    -0.302 NA
ATOM     21  C   UNL     1     -45.845  96.085 -11.059  0.00  0.00    +0.066 C 
ATOM     22  C   UNL     1     -45.923  97.287 -10.064  0.00  0.00    -0.064 C 
ATOM     23  N   UNL     1     -47.389  97.644  -9.812  0.00  0.00    +0.379 N 
ATOM     24  C   UNL     1     -47.466  98.737  -8.831  0.00  0.00    -0.096 C 
ATOM     25  H   UNL     1     -47.881  96.751  -9.363  0.00  0.00    -0.082 HD
ATOM     26  C   UNL     1     -48.107  97.961 -11.116  0.00  0.00    -0.064 C 
ATOM     27  C   UNL     1     -47.999  96.770 -12.109  0.00  0.00    +0.066 C 
ENDBRANCH  19  20
ENDBRANCH  18  19
ENDBRANCH  14  15
ENDBRANCH  12  13
TORSDOF 6
ENDMDL
MODEL 4
REMARK VINA RESULT:      -7.7     44.292     48.712
REMARK  Name = C:\Users\Docking\Desktop\test protocol\1iep_ligandH.pdb
REMARK  8 active torsions:
REMARK  status: ('A' for Active; 'I' for Inactive)
REMARK    1  A    between atoms: _5  and  _11
REMARK    2  A    between atoms: _19  and  _21
REMARK    3  A    between atoms: _22  and  _66
REMARK    4  A    between atoms: _27  and  _30
REMARK    5  A    between atoms: _32  and  _33
REMARK    6  A    between atoms: _38  and  _43
REMARK    7  A    between atoms: _43  and  _46
REMARK    8  A    between atoms: _53  and  _55
REMARK                            x       y       z     vdW  Elec       q    Type
REMARK                         _______ _______ _______ _____ _____    ______ ____
ROOT
ATOM     10  C   UNL     1     -53.270 108.545 -25.335  0.00  0.00    +0.038 A 
ATOM     11  C   UNL     1     -53.608 107.767 -24.197  0.00  0.00    +0.047 A 
ATOM     12  C   UNL     1     -52.838 107.860 -22.967  0.00  0.00    +0.035 A 
ATOM     32  C   UNL     1     -51.730 108.756 -22.929  0.00  0.00    +0.024 A 
ATOM     33  C   UNL     1     -51.372 109.553 -24.076  0.00  0.00    +0.007 A 
ATOM     34  C   UNL     1     -52.127 109.464 -25.293  0.00  0.00    -0.029 A 
ATOM     35  C   UNL     1     -51.694 110.338 -26.494  0.00  0.00    +0.045 C 
ENDROOT
BRANCH  10   9
ATOM      4  C   UNL     1     -54.186 106.588 -29.621  0.00  0.00    +0.077 A 
ATOM      5  C   UNL     1     -53.007 105.772 -29.566  0.00  0.00    +0.048 A 
ATOM      6  C   UNL     1     -52.188 105.891 -28.421  0.00  0.00    +0.116 A 
ATOM      7  N   UNL     1     -52.532 106.764 -27.411  0.00  0.00    -0.223 NA
ATOM      8  C   UNL     1     -53.675 107.538 -27.497  0.00  0.00    +0.220 A 
ATOM      9  N   UNL     1     -54.045 108.417 -26.490  0.00  0.00    -0.283 N 
ATOM     36  H   UNL     1     -54.891 108.975 -26.594  0.00  0.00    +0.155 HD
ATOM     37  N   UNL     1     -54.473 107.444 -28.581  0.00  0.00    -0.214 NA
BRANCH   4   3
ATOM      1  C   UNL     1     -57.330 107.225 -31.859  0.00  0.00    +0.020 A 
ATOM      2  C   UNL     1     -56.432 107.271 -30.728  0.00  0.00    +0.013 A 
ATOM      3  C   UNL     1     -55.153 106.574 -30.764  0.00  0.00    +0.019 A 
ATOM     38  C   UNL     1     -54.809 105.834 -31.969  0.00  0.00    +0.120 A 
ATOM     39  N   UNL     1     -55.694 105.806 -33.042  0.00  0.00    -0.263 NA
ATOM     40  C   UNL     1     -56.928 106.472 -33.018  0.00  0.00    +0.111 A 
ENDBRANCH   4   3
ENDBRANCH  10   9
BRANCH  12  13
ATOM     13  N   UNL     1     -53.128 107.090 -21.783  0.00  0.00    -0.281 N 
ATOM     14  C   UNL     1     -52.930 105.734 -21.579  0.00  0.00    +0.248 C 
ATOM     30  O   UNL     1     -52.669 104.933 -22.464  0.00  0.00    -0.270 OA
ATOM     31  H   UNL     1     -53.529 107.607 -21.000  0.00  0.00    +0.155 HD
BRANCH  14  15
ATOM     15  C   UNL     1     -53.054 105.186 -20.194  0.00  0.00    +0.037 A 
ATOM     16  C   UNL     1     -53.881 104.010 -19.913  0.00  0.00    +0.013 A 
ATOM     17  C   UNL     1     -53.997 103.512 -18.565  0.00  0.00    +0.005 A 
ATOM     18  C   UNL     1     -53.282 104.191 -17.487  0.00  0.00    -0.033 A 
ATOM     28  C   UNL     1     -52.464 105.353 -17.795  0.00  0.00    +0.005 A 
ATOM     29  C   UNL     1     -52.349 105.844 -19.115  0.00  0.00    +0.013 A 
BRANCH  18  19
ATOM     19  C   UNL     1     -53.364 103.743 -16.016  0.00  0.00    +0.119 C 
BRANCH  19  20
ATOM     20  N   UNL     1     -52.082 103.393 -15.335  0.00  0.00    -0.302 NA
ATOM     21  C   UNL     1     -51.924 101.881 -15.150  0.00  0.00    +0.066 C 
ATOM     22  C   UNL     1     -50.567 101.531 -14.456  0.00  0.00    -0.064 C 
ATOM     23  N   UNL     1     -50.485 102.253 -13.110  0.00  0.00    +0.379 N 
ATOM     24  C   UNL     1     -49.236 101.881 -12.429  0.00  0.00    -0.096 C 
ATOM     25  H   UNL     1     -51.333 101.894 -12.482  0.00  0.00    -0.082 HD
ATOM     26  C   UNL     1     -50.644 103.757 -13.285  0.00  0.00    -0.064 C 
ATOM     27  C   UNL     1     -51.982 104.092 -14.002  0.00  0.00    +0.066 C 
ENDBRANCH  19  20
ENDBRANCH  18  19
ENDBRANCH  14  15
ENDBRANCH  12  13
TORSDOF 6
ENDMDL
MODEL 5
REMARK VINA RESULT:      -7.5     45.712     48.381
REMARK  Name = C:\Users\Docking\Desktop\test protocol\1iep_ligandH.pdb
REMARK  8 active torsions:
REMARK  status: ('A' for Active; 'I' for Inactive)
REMARK    1  A    between atoms: _5  and  _11
REMARK    2  A    between atoms: _19  and  _21
REMARK    3  A    between atoms: _22  and  _66
REMARK    4  A    between atoms: _27  and  _30
REMARK    5  A    between atoms: _32  and  _33
REMARK    6  A    between atoms: _38  and  _43
REMARK    7  A    between atoms: _43  and  _46
REMARK    8  A    between atoms: _53  and  _55
REMARK                            x       y       z     vdW  Elec       q    Type
REMARK                         _______ _______ _______ _____ _____    ______ ____
ROOT
ATOM     10  C   UNL     1     -53.584 108.227 -29.265  0.00  0.00    +0.038 A 
ATOM     11  C   UNL     1     -53.690 108.049 -27.862  0.00  0.00    +0.047 A 
ATOM     12  C   UNL     1     -52.525 108.166 -26.998  0.00  0.00    +0.035 A 
ATOM     32  C   UNL     1     -51.267 108.468 -27.598  0.00  0.00    +0.024 A 
ATOM     33  C   UNL     1     -51.142 108.651 -29.023  0.00  0.00    +0.007 A 
ATOM     34  C   UNL     1     -52.287 108.534 -29.879  0.00  0.00    -0.029 A 
ATOM     35  C   UNL     1     -52.092 108.734 -31.400  0.00  0.00    +0.045 C 
ENDROOT
BRANCH  10   9
ATOM      4  C   UNL     1     -57.385 105.756 -30.841  0.00  0.00    +0.077 A 
ATOM      5  C   UNL     1     -57.033 104.604 -30.062  0.00  0.00    +0.048 A 
ATOM      6  C   UNL     1     -55.862 104.685 -29.275  0.00  0.00    +0.116 A 
ATOM      7  N   UNL     1     -55.108 105.838 -29.274  0.00  0.00    -0.223 NA
ATOM      8  C   UNL     1     -55.475 106.931 -30.038  0.00  0.00    +0.220 A 
ATOM      9  N   UNL     1     -54.735 108.104 -30.046  0.00  0.00    -0.283 N 
ATOM     36  H   UNL     1     -55.035 108.885 -30.628  0.00  0.00    +0.155 HD
ATOM     37  N   UNL     1     -56.588 106.878 -30.799  0.00  0.00    -0.214 NA
BRANCH   4   3
ATOM      1  C   UNL     1     -60.573 107.039 -32.711  0.00  0.00    +0.020 A 
ATOM      2  C   UNL     1     -59.414 107.024 -31.847  0.00  0.00    +0.013 A 
ATOM      3  C   UNL     1     -58.595 105.826 -31.720  0.00  0.00    +0.019 A 
ATOM     38  C   UNL     1     -58.977 104.650 -32.487  0.00  0.00    +0.120 A 
ATOM     39  N   UNL     1     -60.098 104.693 -33.310  0.00  0.00    -0.263 NA
ATOM     40  C   UNL     1     -60.896 105.840 -33.439  0.00  0.00    +0.111 A 
ENDBRANCH   4   3
ENDBRANCH  10   9
BRANCH  12  13
ATOM     13  N   UNL     1     -52.569 107.988 -25.568  0.00  0.00    -0.281 N 
ATOM     14  C   UNL     1     -53.433 107.190 -24.836  0.00  0.00    +0.248 C 
ATOM     30  O   UNL     1     -54.442 106.669 -25.287  0.00  0.00    -0.270 OA
ATOM     31  H   UNL     1     -51.881 108.514 -25.030  0.00  0.00    +0.155 HD
BRANCH  14  15
ATOM     15  C   UNL     1     -53.141 106.947 -23.391  0.00  0.00    +0.037 A 
ATOM     16  C   UNL     1     -53.659 107.838 -22.350  0.00  0.00    +0.013 A 
ATOM     17  C   UNL     1     -53.348 107.591 -20.964  0.00  0.00    +0.005 A 
ATOM     18  C   UNL     1     -52.515 106.444 -20.612  0.00  0.00    -0.033 A 
ATOM     28  C   UNL     1     -52.018 105.572 -21.664  0.00  0.00    +0.005 A 
ATOM     29  C   UNL     1     -52.320 105.813 -23.023  0.00  0.00    +0.013 A 
BRANCH  18  19
ATOM     19  C   UNL     1     -52.115 106.115 -19.161  0.00  0.00    +0.119 C 
BRANCH  19  20
ATOM     20  N   UNL     1     -52.724 104.900 -18.542  0.00  0.00    -0.302 NA
ATOM     21  C   UNL     1     -54.236 104.836 -18.771  0.00  0.00    +0.066 C 
ATOM     22  C   UNL     1     -54.854 103.547 -18.137  0.00  0.00    -0.064 C 
ATOM     23  N   UNL     1     -54.530 103.513 -16.642  0.00  0.00    +0.379 N 
ATOM     24  C   UNL     1     -55.158 102.332 -16.031  0.00  0.00    -0.096 C 
ATOM     25  H   UNL     1     -54.986 104.417 -16.177  0.00  0.00    -0.082 HD
ATOM     26  C   UNL     1     -53.028 103.579 -16.405  0.00  0.00    -0.064 C 
ATOM     27  C   UNL     1     -52.420 104.848 -17.065  0.00  0.00    +0.066 C 
ENDBRANCH  19  20
ENDBRANCH  18  19
ENDBRANCH  14  15
ENDBRANCH  12  13
TORSDOF 6
ENDMDL
