MODEL 1
REMARK VINA RESULT:     -11.2      0.000      0.000
REMARK  Name = C:\Users\Docking\Desktop\test protocol\1iep_ligandH.pdb
REMARK  8 active torsions:
REMARK  status: ('A' for Active; 'I' for Inactive)
REMARK    1  A    between atoms: _5  and  _11
REMARK    2  A    between atoms: _19  and  _21
REMARK    3  A    between atoms: _22  and  _66
REMARK    4  A    between atoms: _27  and  _30
REMARK    5  A    between atoms: _32  and  _33
REMARK    6  A    between atoms: _38  and  _43
REMARK    7  A    between atoms: _43  and  _46
REMARK    8  A    between atoms: _53  and  _55
REMARK                            x       y       z     vdW  Elec       q    Type
REMARK                         _______ _______ _______ _____ _____    ______ ____
ROOT
ATOM     10  C   UNL     1     169.266  25.624  26.333  0.00  0.00    +0.038 A 
ATOM     11  C   UNL     1     168.352  26.099  27.308  0.00  0.00    +0.047 A 
ATOM     12  C   UNL     1     168.407  27.472  27.786  0.00  0.00    +0.035 A 
ATOM     32  C   UNL     1     169.406  28.335  27.247  0.00  0.00    +0.024 A 
ATOM     33  C   UNL     1     170.344  27.869  26.257  0.00  0.00    +0.007 A 
ATOM     34  C   UNL     1     170.295  26.515  25.783  0.00  0.00    -0.029 A 
ATOM     35  C   UNL     1     171.331  26.067  24.725  0.00  0.00    +0.045 C 
ENDROOT
BRANCH  10   9
ATOM      4  C   UNL     1     170.089  20.930  26.898  0.00  0.00    +0.077 A 
ATOM      5  C   UNL     1     170.799  21.142  28.127  0.00  0.00    +0.048 A 
ATOM      6  C   UNL     1     170.937  22.475  28.575  0.00  0.00    +0.116 A 
ATOM      7  N   UNL     1     170.400  23.510  27.841  0.00  0.00    -0.223 NA
ATOM      8  C   UNL     1     169.722  23.271  26.660  0.00  0.00    +0.220 A 
ATOM      9  N   UNL     1     169.167  24.297  25.910  0.00  0.00    -0.283 N 
ATOM     36  H   UNL     1     168.682  24.080  25.040  0.00  0.00    +0.155 HD
ATOM     37  N   UNL     1     169.579  22.007  26.210  0.00  0.00    -0.214 NA
BRANCH   4   3
ATOM      1  C   UNL     1     170.661  17.349  25.430  0.00  0.00    +0.020 A 
ATOM      2  C   UNL     1     170.938  18.642  26.012  0.00  0.00    +0.013 A 
ATOM      3  C   UNL     1     169.858  19.578  26.296  0.00  0.00    +0.019 A 
ATOM     38  C   UNL     1     168.498  19.172  25.978  0.00  0.00    +0.120 A 
ATOM     39  N   UNL     1     168.261  17.921  25.417  0.00  0.00    -0.263 NA
ATOM     40  C   UNL     1     169.293  17.012  25.138  0.00  0.00    +0.111 A 
ENDBRANCH   4   3
ENDBRANCH  10   9
BRANCH  12  13
ATOM     13  N   UNL     1     167.510  28.008  28.780  0.00  0.00    -0.281 N 
ATOM     14  C   UNL     1     166.126  28.052  28.743  0.00  0.00    +0.248 C 
ATOM     30  O   UNL     1     165.454  27.826  27.748  0.00  0.00    -0.270 OA
ATOM     31  H   UNL     1     167.950  28.404  29.611  0.00  0.00    +0.155 HD
BRANCH  14  15
ATOM     15  C   UNL     1     165.382  28.411  29.989  0.00  0.00    +0.037 A 
ATOM     16  C   UNL     1     165.840  27.958  31.305  0.00  0.00    +0.013 A 
ATOM     17  C   UNL     1     165.094  28.304  32.488  0.00  0.00    +0.005 A 
ATOM     18  C   UNL     1     163.882  29.110  32.361  0.00  0.00    -0.033 A 
ATOM     28  C   UNL     1     163.453  29.550  31.044  0.00  0.00    +0.005 A 
ATOM     29  C   UNL     1     164.181  29.212  29.881  0.00  0.00    +0.013 A 
BRANCH  18  19
ATOM     19  C   UNL     1     163.012  29.509  33.568  0.00  0.00    +0.119 C 
BRANCH  19  20
ATOM     20  N   UNL     1     162.364  30.854  33.529  0.00  0.00    -0.302 NA
ATOM     21  C   UNL     1     162.643  31.663  34.798  0.00  0.00    +0.066 C 
ATOM     22  C   UNL     1     161.976  33.076  34.731  0.00  0.00    -0.064 C 
ATOM     23  N   UNL     1     160.471  32.916  34.510  0.00  0.00    +0.379 N 
ATOM     24  C   UNL     1     159.833  34.241  34.504  0.00  0.00    -0.096 C 
ATOM     25  H   UNL     1     160.061  32.347  35.377  0.00  0.00    -0.082 HD
ATOM     26  C   UNL     1     160.185  32.110  33.251  0.00  0.00    -0.064 C 
ATOM     27  C   UNL     1     160.876  30.720  33.316  0.00  0.00    +0.066 C 
ENDBRANCH  19  20
ENDBRANCH  18  19
ENDBRANCH  14  15
ENDBRANCH  12  13
TORSDOF 6
ENDMDL
MODEL 2
REMARK VINA RESULT:     -11.0      1.408      1.934
REMARK  Name = C:\Users\Docking\Desktop\test protocol\1iep_ligandH.pdb
REMARK  8 active torsions:
REMARK  status: ('A' for Active; 'I' for Inactive)
REMARK    1  A    between atoms: _5  and  _11
REMARK    2  A    between atoms: _19  and  _21
REMARK    3  A    between atoms: _22  and  _66
REMARK    4  A    between atoms: _27  and  _30
REMARK    5  A    between atoms: _32  and  _33
REMARK    6  A    between atoms: _38  and  _43
REMARK    7  A    between atoms: _43  and  _46
REMARK    8  A    between atoms: _53  and  _55
REMARK                            x       y       z     vdW  Elec       q    Type
REMARK                         _______ _______ _______ _____ _____    ______ ____
ROOT
ATOM     10  C   UNL     1     169.869  25.404  25.980  0.00  0.00    +0.038 A 
ATOM     11  C   UNL     1     168.579  25.802  26.414  0.00  0.00    +0.047 A 
ATOM     12  C   UNL     1     168.347  27.124  26.973  0.00  0.00    +0.035 A 
ATOM     32  C   UNL     1     169.453  28.018  27.073  0.00  0.00    +0.024 A 
ATOM     33  C   UNL     1     170.772  27.630  26.638  0.00  0.00    +0.007 A 
ATOM     34  C   UNL     1     171.006  26.325  26.088  0.00  0.00    -0.029 A 
ATOM     35  C   UNL     1     172.442  25.961  25.644  0.00  0.00    +0.045 C 
ENDROOT
BRANCH  10   9
ATOM      4  C   UNL     1     170.632  20.690  26.467  0.00  0.00    +0.077 A 
ATOM      5  C   UNL     1     170.738  20.794  27.894  0.00  0.00    +0.048 A 
ATOM      6  C   UNL     1     170.596  22.080  28.463  0.00  0.00    +0.116 A 
ATOM      7  N   UNL     1     170.367  23.173  27.655  0.00  0.00    -0.223 NA
ATOM      8  C   UNL     1     170.273  23.038  26.282  0.00  0.00    +0.220 A 
ATOM      9  N   UNL     1     170.034  24.122  25.451  0.00  0.00    -0.283 N 
ATOM     36  H   UNL     1     169.979  23.981  24.443  0.00  0.00    +0.155 HD
ATOM     37  N   UNL     1     170.405  21.821  25.714  0.00  0.00    -0.214 NA
BRANCH   4   3
ATOM      1  C   UNL     1     170.433  16.908  25.488  0.00  0.00    +0.020 A 
ATOM      2  C   UNL     1     170.290  18.126  26.252  0.00  0.00    +0.013 A 
ATOM      3  C   UNL     1     170.756  19.400  25.718  0.00  0.00    +0.019 A 
ATOM     38  C   UNL     1     171.365  19.407  24.397  0.00  0.00    +0.120 A 
ATOM     39  N   UNL     1     171.490  18.218  23.684  0.00  0.00    -0.263 NA
ATOM     40  C   UNL     1     171.047  16.986  24.189  0.00  0.00    +0.111 A 
ENDBRANCH   4   3
ENDBRANCH  10   9
BRANCH  12  13
ATOM     13  N   UNL     1     167.061  27.581  27.437  0.00  0.00    -0.281 N 
ATOM     14  C   UNL     1     166.445  27.305  28.647  0.00  0.00    +0.248 C 
ATOM     30  O   UNL     1     166.816  26.444  29.431  0.00  0.00    -0.270 OA
ATOM     31  H   UNL     1     166.541  28.181  26.796  0.00  0.00    +0.155 HD
BRANCH  14  15
ATOM     15  C   UNL     1     165.233  28.089  29.035  0.00  0.00    +0.037 A 
ATOM     16  C   UNL     1     164.017  28.063  28.217  0.00  0.00    +0.013 A 
ATOM     17  C   UNL     1     162.868  28.842  28.606  0.00  0.00    +0.005 A 
ATOM     18  C   UNL     1     162.929  29.652  29.820  0.00  0.00    -0.033 A 
ATOM     28  C   UNL     1     164.145  29.654  30.615  0.00  0.00    +0.005 A 
ATOM     29  C   UNL     1     165.274  28.894  30.237  0.00  0.00    +0.013 A 
BRANCH  18  19
ATOM     19  C   UNL     1     161.757  30.530  30.299  0.00  0.00    +0.119 C 
BRANCH  19  20
ATOM     20  N   UNL     1     161.959  31.313  31.555  0.00  0.00    -0.302 NA
ATOM     21  C   UNL     1     161.132  30.756  32.717  0.00  0.00    +0.066 C 
ATOM     22  C   UNL     1     161.372  31.573  34.029  0.00  0.00    -0.064 C 
ATOM     23  N   UNL     1     161.034  33.044  33.779  0.00  0.00    +0.379 N 
ATOM     24  C   UNL     1     161.203  33.805  35.026  0.00  0.00    -0.096 C 
ATOM     25  H   UNL     1     159.958  33.100  33.492  0.00  0.00    -0.082 HD
ATOM     26  C   UNL     1     161.850  33.604  32.623  0.00  0.00    -0.064 C 
ATOM     27  C   UNL     1     161.627  32.768  31.332  0.00  0.00    +0.066 C 
ENDBRANCH  19  20
ENDBRANCH  18  19
ENDBRANCH  14  15
ENDBRANCH  12  13
TORSDOF 6
ENDMDL
MODEL 3
REMARK VINA RESULT:     -10.9      5.980     13.968
REMARK  Name = C:\Users\Docking\Desktop\test protocol\1iep_ligandH.pdb
REMARK  8 active torsions:
REMARK  status: ('A' for Active; 'I' for Inactive)
REMARK    1  A    between atoms: _5  and  _11
REMARK    2  A    between atoms: _19  and  _21
REMARK    3  A    between atoms: _22  and  _66
REMARK    4  A    between atoms: _27  and  _30
REMARK    5  A    between atoms: _32  and  _33
REMARK    6  A    between atoms: _38  and  _43
REMARK    7  A    between atoms: _43  and  _46
REMARK    8  A    between atoms: _53  and  _55
REMARK                            x       y       z     vdW  Elec       q    Type
REMARK                         _______ _______ _______ _____ _____    ______ ____
ROOT
ATOM     10  C   UNL     1     160.702  32.230  32.223  0.00  0.00    +0.038 A 
ATOM     11  C   UNL     1     161.290  30.951  32.052  0.00  0.00    +0.047 A 
ATOM     12  C   UNL     1     162.043  30.320  33.125  0.00  0.00    +0.035 A 
ATOM     32  C   UNL     1     162.175  31.019  34.360  0.00  0.00    +0.024 A 
ATOM     33  C   UNL     1     161.585  32.321  34.550  0.00  0.00    +0.007 A 
ATOM     34  C   UNL     1     160.843  32.949  33.495  0.00  0.00    -0.029 A 
ATOM     35  C   UNL     1     160.237  34.349  33.752  0.00  0.00    +0.045 C 
ENDROOT
BRANCH  10   9
ATOM      4  C   UNL     1     156.596  33.414  30.037  0.00  0.00    +0.077 A 
ATOM      5  C   UNL     1     155.803  32.848  31.090  0.00  0.00    +0.048 A 
ATOM      6  C   UNL     1     156.491  32.255  32.173  0.00  0.00    +0.116 A 
ATOM      7  N   UNL     1     157.868  32.236  32.191  0.00  0.00    -0.223 NA
ATOM      8  C   UNL     1     158.603  32.789  31.158  0.00  0.00    +0.220 A 
ATOM      9  N   UNL     1     159.989  32.789  31.159  0.00  0.00    -0.283 N 
ATOM     36  H   UNL     1     160.494  33.201  30.375  0.00  0.00    +0.155 HD
ATOM     37  N   UNL     1     157.970  33.360  30.112  0.00  0.00    -0.214 NA
BRANCH   4   3
ATOM      1  C   UNL     1     156.029  34.659  26.372  0.00  0.00    +0.020 A 
ATOM      2  C   UNL     1     156.630  33.999  27.508  0.00  0.00    +0.013 A 
ATOM      3  C   UNL     1     156.016  34.079  28.827  0.00  0.00    +0.019 A 
ATOM     38  C   UNL     1     154.784  34.840  28.964  0.00  0.00    +0.120 A 
ATOM     39  N   UNL     1     154.228  35.467  27.853  0.00  0.00    -0.263 NA
ATOM     40  C   UNL     1     154.811  35.398  26.579  0.00  0.00    +0.111 A 
ENDBRANCH   4   3
ENDBRANCH  10   9
BRANCH  12  13
ATOM     13  N   UNL     1     162.669  29.026  33.007  0.00  0.00    -0.281 N 
ATOM     14  C   UNL     1     163.898  28.723  32.445  0.00  0.00    +0.248 C 
ATOM     30  O   UNL     1     164.555  29.495  31.762  0.00  0.00    -0.270 OA
ATOM     31  H   UNL     1     162.142  28.238  33.385  0.00  0.00    +0.155 HD
BRANCH  14  15
ATOM     15  C   UNL     1     164.474  27.361  32.660  0.00  0.00    +0.037 A 
ATOM     16  C   UNL     1     165.510  26.825  31.773  0.00  0.00    +0.013 A 
ATOM     17  C   UNL     1     166.037  25.501  31.993  0.00  0.00    +0.005 A 
ATOM     18  C   UNL     1     165.529  24.704  33.107  0.00  0.00    -0.033 A 
ATOM     28  C   UNL     1     164.505  25.262  33.974  0.00  0.00    +0.005 A 
ATOM     29  C   UNL     1     163.985  26.559  33.761  0.00  0.00    +0.013 A 
BRANCH  18  19
ATOM     19  C   UNL     1     166.018  23.274  33.404  0.00  0.00    +0.119 C 
BRANCH  19  20
ATOM     20  N   UNL     1     164.986  22.196  33.455  0.00  0.00    -0.302 NA
ATOM     21  C   UNL     1     164.685  21.757  34.891  0.00  0.00    +0.066 C 
ATOM     22  C   UNL     1     163.587  20.644  34.927  0.00  0.00    -0.064 C 
ATOM     23  N   UNL     1     164.043  19.454  34.081  0.00  0.00    +0.379 N 
ATOM     24  C   UNL     1     163.040  18.382  34.161  0.00  0.00    -0.096 C 
ATOM     25  H   UNL     1     164.989  19.065  34.526  0.00  0.00    -0.082 HD
ATOM     26  C   UNL     1     164.347  19.882  32.653  0.00  0.00    -0.064 C 
ATOM     27  C   UNL     1     165.418  21.009  32.630  0.00  0.00    +0.066 C 
ENDBRANCH  19  20
ENDBRANCH  18  19
ENDBRANCH  14  15
ENDBRANCH  12  13
TORSDOF 6
ENDMDL
MODEL 4
REMARK VINA RESULT:     -10.7      3.842      7.309
REMARK  Name = C:\Users\Docking\Desktop\test protocol\1iep_ligandH.pdb
REMARK  8 active torsions:
REMARK  status: ('A' for Active; 'I' for Inactive)
REMARK    1  A    between atoms: _5  and  _11
REMARK    2  A    between atoms: _19  and  _21
REMARK    3  A    between atoms: _22  and  _66
REMARK    4  A    between atoms: _27  and  _30
REMARK    5  A    between atoms: _32  and  _33
REMARK    6  A    between atoms: _38  and  _43
REMARK    7  A    between atoms: _43  and  _46
REMARK    8  A    between atoms: _53  and  _55
REMARK                            x       y       z     vdW  Elec       q    Type
REMARK                         _______ _______ _______ _____ _____    ______ ____
ROOT
ATOM     10  C   UNL     1     169.913  27.096  26.223  0.00  0.00    +0.038 A 
ATOM     11  C   UNL     1     168.662  27.522  26.737  0.00  0.00    +0.047 A 
ATOM     12  C   UNL     1     168.001  26.794  27.809  0.00  0.00    +0.035 A 
ATOM     32  C   UNL     1     168.644  25.637  28.336  0.00  0.00    +0.024 A 
ATOM     33  C   UNL     1     169.915  25.188  27.825  0.00  0.00    +0.007 A 
ATOM     34  C   UNL     1     170.571  25.901  26.766  0.00  0.00    -0.029 A 
ATOM     35  C   UNL     1     171.930  25.371  26.253  0.00  0.00    +0.045 C 
ENDROOT
BRANCH  10   9
ATOM      4  C   UNL     1     171.719  31.164  24.428  0.00  0.00    +0.077 A 
ATOM      5  C   UNL     1     171.438  31.890  25.634  0.00  0.00    +0.048 A 
ATOM      6  C   UNL     1     170.822  31.181  26.689  0.00  0.00    +0.116 A 
ATOM      7  N   UNL     1     170.514  29.846  26.540  0.00  0.00    -0.223 NA
ATOM      8  C   UNL     1     170.797  29.177  25.363  0.00  0.00    +0.220 A 
ATOM      9  N   UNL     1     170.503  27.833  25.194  0.00  0.00    -0.283 N 
ATOM     36  H   UNL     1     170.721  27.377  24.308  0.00  0.00    +0.155 HD
ATOM     37  N   UNL     1     171.384  29.832  24.340  0.00  0.00    -0.214 NA
BRANCH   4   3
ATOM      1  C   UNL     1     173.657  31.620  21.062  0.00  0.00    +0.020 A 
ATOM      2  C   UNL     1     173.045  30.983  22.204  0.00  0.00    +0.013 A 
ATOM      3  C   UNL     1     172.370  31.774  23.225  0.00  0.00    +0.019 A 
ATOM     38  C   UNL     1     172.331  33.219  23.059  0.00  0.00    +0.120 A 
ATOM     39  N   UNL     1     172.931  33.805  21.948  0.00  0.00    -0.263 NA
ATOM     40  C   UNL     1     173.585  33.054  20.960  0.00  0.00    +0.111 A 
ENDBRANCH   4   3
ENDBRANCH  10   9
BRANCH  12  13
ATOM     13  N   UNL     1     166.726  27.175  28.365  0.00  0.00    -0.281 N 
ATOM     14  C   UNL     1     166.437  28.276  29.155  0.00  0.00    +0.248 C 
ATOM     30  O   UNL     1     167.278  28.989  29.682  0.00  0.00    -0.270 OA
ATOM     31  H   UNL     1     165.942  26.559  28.151  0.00  0.00    +0.155 HD
BRANCH  14  15
ATOM     15  C   UNL     1     165.006  28.628  29.407  0.00  0.00    +0.037 A 
ATOM     16  C   UNL     1     163.953  28.249  28.461  0.00  0.00    +0.013 A 
ATOM     17  C   UNL     1     162.583  28.616  28.720  0.00  0.00    +0.005 A 
ATOM     18  C   UNL     1     162.258  29.365  29.932  0.00  0.00    -0.033 A 
ATOM     28  C   UNL     1     163.322  29.722  30.856  0.00  0.00    +0.005 A 
ATOM     29  C   UNL     1     164.666  29.366  30.605  0.00  0.00    +0.013 A 
BRANCH  18  19
ATOM     19  C   UNL     1     160.827  29.816  30.278  0.00  0.00    +0.119 C 
BRANCH  19  20
ATOM     20  N   UNL     1     160.682  30.975  31.209  0.00  0.00    -0.302 NA
ATOM     21  C   UNL     1     161.010  30.594  32.656  0.00  0.00    +0.066 C 
ATOM     22  C   UNL     1     160.875  31.824  33.612  0.00  0.00    -0.064 C 
ATOM     23  N   UNL     1     159.459  32.393  33.509  0.00  0.00    +0.379 N 
ATOM     24  C   UNL     1     159.311  33.513  34.450  0.00  0.00    -0.096 C 
ATOM     25  H   UNL     1     158.749  31.593  33.822  0.00  0.00    -0.082 HD
ATOM     26  C   UNL     1     159.124  32.772  32.073  0.00  0.00    -0.064 C 
ATOM     27  C   UNL     1     159.289  31.550  31.127  0.00  0.00    +0.066 C 
ENDBRANCH  19  20
ENDBRANCH  18  19
ENDBRANCH  14  15
ENDBRANCH  12  13
TORSDOF 6
ENDMDL
MODEL 5
REMARK VINA RESULT:     -10.6      1.991      2.679
REMARK  Name = C:\Users\Docking\Desktop\test protocol\1iep_ligandH.pdb
REMARK  8 active torsions:
REMARK  status: ('A' for Active; 'I' for Inactive)
REMARK    1  A    between atoms: _5  and  _11
REMARK    2  A    between atoms: _19  and  _21
REMARK    3  A    between atoms: _22  and  _66
REMARK    4  A    between atoms: _27  and  _30
REMARK    5  A    between atoms: _32  and  _33
REMARK    6  A    between atoms: _38  and  _43
REMARK    7  A    between atoms: _43  and  _46
REMARK    8  A    between atoms: _53  and  _55
REMARK                            x       y       z     vdW  Elec       q    Type
REMARK                         _______ _______ _______ _____ _____    ______ ____
ROOT
ATOM     10  C   UNL     1     170.456  25.698  26.707  0.00  0.00    +0.038 A 
ATOM     11  C   UNL     1     169.109  25.978  27.048  0.00  0.00    +0.047 A 
ATOM     12  C   UNL     1     168.647  27.345  27.230  0.00  0.00    +0.035 A 
ATOM     32  C   UNL     1     169.584  28.404  27.053  0.00  0.00    +0.024 A 
ATOM     33  C   UNL     1     170.959  28.137  26.708  0.00  0.00    +0.007 A 
ATOM     34  C   UNL     1     171.420  26.791  26.530  0.00  0.00    -0.029 A 
ATOM     35  C   UNL     1     172.906  26.563  26.166  0.00  0.00    +0.045 C 
ENDROOT
BRANCH  10   9
ATOM      4  C   UNL     1     170.940  21.721  24.064  0.00  0.00    +0.077 A 
ATOM      5  C   UNL     1     170.343  22.340  22.916  0.00  0.00    +0.048 A 
ATOM      6  C   UNL     1     169.918  23.681  23.050  0.00  0.00    +0.116 A 
ATOM      7  N   UNL     1     170.083  24.344  24.247  0.00  0.00    -0.223 NA
ATOM      8  C   UNL     1     170.662  23.717  25.335  0.00  0.00    +0.220 A 
ATOM      9  N   UNL     1     170.846  24.366  26.546  0.00  0.00    -0.283 N 
ATOM     36  H   UNL     1     171.270  23.867  27.327  0.00  0.00    +0.155 HD
ATOM     37  N   UNL     1     171.075  22.436  25.233  0.00  0.00    -0.214 NA
BRANCH   4   3
ATOM      1  C   UNL     1     172.999  18.483  23.303  0.00  0.00    +0.020 A 
ATOM      2  C   UNL     1     172.553  19.856  23.251  0.00  0.00    +0.013 A 
ATOM      3  C   UNL     1     171.443  20.311  24.079  0.00  0.00    +0.019 A 
ATOM     38  C   UNL     1     170.802  19.343  24.956  0.00  0.00    +0.120 A 
ATOM     39  N   UNL     1     171.252  18.027  24.984  0.00  0.00    -0.263 NA
ATOM     40  C   UNL     1     172.318  17.578  24.191  0.00  0.00    +0.111 A 
ENDBRANCH   4   3
ENDBRANCH  10   9
BRANCH  12  13
ATOM     13  N   UNL     1     167.292  27.690  27.584  0.00  0.00    -0.281 N 
ATOM     14  C   UNL     1     166.606  27.366  28.743  0.00  0.00    +0.248 C 
ATOM     30  O   UNL     1     166.985  26.544  29.563  0.00  0.00    -0.270 OA
ATOM     31  H   UNL     1     166.776  28.240  26.896  0.00  0.00    +0.155 HD
BRANCH  14  15
ATOM     15  C   UNL     1     165.303  28.042  29.024  0.00  0.00    +0.037 A 
ATOM     16  C   UNL     1     164.152  27.874  28.133  0.00  0.00    +0.013 A 
ATOM     17  C   UNL     1     162.912  28.552  28.418  0.00  0.00    +0.005 A 
ATOM     18  C   UNL     1     162.817  29.403  29.601  0.00  0.00    -0.033 A 
ATOM     28  C   UNL     1     163.973  29.548  30.471  0.00  0.00    +0.005 A 
ATOM     29  C   UNL     1     165.190  28.886  30.194  0.00  0.00    +0.013 A 
BRANCH  18  19
ATOM     19  C   UNL     1     161.540  30.181  29.972  0.00  0.00    +0.119 C 
BRANCH  19  20
ATOM     20  N   UNL     1     161.568  30.982  31.231  0.00  0.00    -0.302 NA
ATOM     21  C   UNL     1     161.317  30.116  32.469  0.00  0.00    +0.066 C 
ATOM     22  C   UNL     1     161.373  30.967  33.780  0.00  0.00    -0.064 C 
ATOM     23  N   UNL     1     160.348  32.099  33.694  0.00  0.00    +0.379 N 
ATOM     24  C   UNL     1     160.357  32.865  34.948  0.00  0.00    -0.096 C 
ATOM     25  H   UNL     1     159.340  31.635  33.588  0.00  0.00    -0.082 HD
ATOM     26  C   UNL     1     160.589  32.963  32.464  0.00  0.00    -0.064 C 
ATOM     27  C   UNL     1     160.561  32.104  31.170  0.00  0.00    +0.066 C 
ENDBRANCH  19  20
ENDBRANCH  18  19
ENDBRANCH  14  15
ENDBRANCH  12  13
TORSDOF 6
ENDMDL
