MODEL 1
REMARK VINA RESULT:     -12.1      0.000      0.000
REMARK  Name = C:\Users\Docking\Desktop\test protocol\1iep_ligandH.pdb
REMARK  8 active torsions:
REMARK  status: ('A' for Active; 'I' for Inactive)
REMARK    1  A    between atoms: _5  and  _11
REMARK    2  A    between atoms: _19  and  _21
REMARK    3  A    between atoms: _22  and  _66
REMARK    4  A    between atoms: _27  and  _30
REMARK    5  A    between atoms: _32  and  _33
REMARK    6  A    between atoms: _38  and  _43
REMARK    7  A    between atoms: _43  and  _46
REMARK    8  A    between atoms: _53  and  _55
REMARK                            x       y       z     vdW  Elec       q    Type
REMARK                         _______ _______ _______ _____ _____    ______ ____
ROOT
ATOM     10  C   UNL     1       0.347  28.221  43.964  0.00  0.00    +0.038 A 
ATOM     11  C   UNL     1      -0.475  28.524  42.849  0.00  0.00    +0.047 A 
ATOM     12  C   UNL     1       0.097  28.743  41.530  0.00  0.00    +0.035 A 
ATOM     32  C   UNL     1       1.511  28.642  41.382  0.00  0.00    +0.024 A 
ATOM     33  C   UNL     1       2.362  28.335  42.505  0.00  0.00    +0.007 A 
ATOM     34  C   UNL     1       1.803  28.121  43.809  0.00  0.00    -0.029 A 
ATOM     35  C   UNL     1       2.764  27.802  44.978  0.00  0.00    +0.045 C 
ENDROOT
BRANCH  10   9
ATOM      4  C   UNL     1      -1.922  29.829  47.876  0.00  0.00    +0.077 A 
ATOM      5  C   UNL     1      -1.879  31.187  47.415  0.00  0.00    +0.048 A 
ATOM      6  C   UNL     1      -1.258  31.430  46.170  0.00  0.00    +0.116 A 
ATOM      7  N   UNL     1      -0.723  30.385  45.447  0.00  0.00    -0.223 NA
ATOM      8  C   UNL     1      -0.780  29.088  45.922  0.00  0.00    +0.220 A 
ATOM      9  N   UNL     1      -0.256  28.021  45.208  0.00  0.00    -0.283 N 
ATOM     36  H   UNL     1      -0.311  27.079  45.596  0.00  0.00    +0.155 HD
ATOM     37  N   UNL     1      -1.366  28.830  47.109  0.00  0.00    -0.214 NA
BRANCH   4   3
ATOM      1  C   UNL     1      -3.951  27.859  50.578  0.00  0.00    +0.020 A 
ATOM      2  C   UNL     1      -3.371  28.217  49.304  0.00  0.00    +0.013 A 
ATOM      3  C   UNL     1      -2.547  29.412  49.171  0.00  0.00    +0.019 A 
ATOM     38  C   UNL     1      -2.327  30.228  50.356  0.00  0.00    +0.120 A 
ATOM     39  N   UNL     1      -2.900  29.859  51.569  0.00  0.00    -0.263 NA
ATOM     40  C   UNL     1      -3.696  28.712  51.708  0.00  0.00    +0.111 A 
ENDBRANCH   4   3
ENDBRANCH  10   9
BRANCH  12  13
ATOM     13  N   UNL     1      -0.686  29.062  40.362  0.00  0.00    -0.281 N 
ATOM     14  C   UNL     1      -0.382  29.959  39.352  0.00  0.00    +0.248 C 
ATOM     30  O   UNL     1       0.516  30.786  39.408  0.00  0.00    -0.270 OA
ATOM     31  H   UNL     1      -1.573  28.566  40.270  0.00  0.00    +0.155 HD
BRANCH  14  15
ATOM     15  C   UNL     1      -1.204  29.947  38.103  0.00  0.00    +0.037 A 
ATOM     16  C   UNL     1      -0.577  29.965  36.780  0.00  0.00    +0.013 A 
ATOM     17  C   UNL     1      -1.393  29.969  35.592  0.00  0.00    +0.005 A 
ATOM     18  C   UNL     1      -2.848  29.955  35.723  0.00  0.00    -0.033 A 
ATOM     28  C   UNL     1      -3.445  29.932  37.048  0.00  0.00    +0.005 A 
ATOM     29  C   UNL     1      -2.647  29.928  38.215  0.00  0.00    +0.013 A 
BRANCH  18  19
ATOM     19  C   UNL     1      -3.798  29.979  34.511  0.00  0.00    +0.119 C 
BRANCH  19  20
ATOM     20  N   UNL     1      -4.081  28.677  33.837  0.00  0.00    -0.302 NA
ATOM     21  C   UNL     1      -2.800  27.988  33.357  0.00  0.00    +0.066 C 
ATOM     22  C   UNL     1      -3.113  26.616  32.675  0.00  0.00    -0.064 C 
ATOM     23  N   UNL     1      -4.078  26.838  31.509  0.00  0.00    +0.379 N 
ATOM     24  C   UNL     1      -4.329  25.559  30.830  0.00  0.00    -0.096 C 
ATOM     25  H   UNL     1      -3.577  27.516  30.780  0.00  0.00    -0.082 HD
ATOM     26  C   UNL     1      -5.353  27.525  31.977  0.00  0.00    -0.064 C 
ATOM     27  C   UNL     1      -5.029  28.873  32.680  0.00  0.00    +0.066 C 
ENDBRANCH  19  20
ENDBRANCH  18  19
ENDBRANCH  14  15
ENDBRANCH  12  13
TORSDOF 6
ENDMDL
MODEL 2
REMARK VINA RESULT:     -11.4      4.005     14.684
REMARK  Name = C:\Users\Docking\Desktop\test protocol\1iep_ligandH.pdb
REMARK  8 active torsions:
REMARK  status: ('A' for Active; 'I' for Inactive)
REMARK    1  A    between atoms: _5  and  _11
REMARK    2  A    between atoms: _19  and  _21
REMARK    3  A    between atoms: _22  and  _66
REMARK    4  A    between atoms: _27  and  _30
REMARK    5  A    between atoms: _32  and  _33
REMARK    6  A    between atoms: _38  and  _43
REMARK    7  A    between atoms: _43  and  _46
REMARK    8  A    between atoms: _53  and  _55
REMARK                            x       y       z     vdW  Elec       q    Type
REMARK                         _______ _______ _______ _____ _____    ______ ____
ROOT
ATOM     10  C   UNL     1      -5.838  30.188  31.729  0.00  0.00    +0.038 A 
ATOM     11  C   UNL     1      -4.919  29.628  32.653  0.00  0.00    +0.047 A 
ATOM     12  C   UNL     1      -4.280  30.449  33.670  0.00  0.00    +0.035 A 
ATOM     32  C   UNL     1      -4.601  31.837  33.718  0.00  0.00    +0.024 A 
ATOM     33  C   UNL     1      -5.532  32.423  32.786  0.00  0.00    +0.007 A 
ATOM     34  C   UNL     1      -6.164  31.618  31.779  0.00  0.00    -0.029 A 
ATOM     35  C   UNL     1      -7.149  32.301  30.802  0.00  0.00    +0.045 C 
ENDROOT
BRANCH  10   9
ATOM      4  C   UNL     1      -5.901  26.194  29.069  0.00  0.00    +0.077 A 
ATOM      5  C   UNL     1      -4.650  25.744  29.608  0.00  0.00    +0.048 A 
ATOM      6  C   UNL     1      -4.019  26.573  30.562  0.00  0.00    +0.116 A 
ATOM      7  N   UNL     1      -4.605  27.761  30.942  0.00  0.00    -0.223 NA
ATOM      8  C   UNL     1      -5.811  28.166  30.401  0.00  0.00    +0.220 A 
ATOM      9  N   UNL     1      -6.423  29.354  30.774  0.00  0.00    -0.283 N 
ATOM     36  H   UNL     1      -7.309  29.620  30.346  0.00  0.00    +0.155 HD
ATOM     37  N   UNL     1      -6.433  27.393  29.487  0.00  0.00    -0.214 NA
BRANCH   4   3
ATOM      1  C   UNL     1      -8.846  24.820  26.890  0.00  0.00    +0.020 A 
ATOM      2  C   UNL     1      -8.130  25.585  27.886  0.00  0.00    +0.013 A 
ATOM      3  C   UNL     1      -6.691  25.427  28.054  0.00  0.00    +0.019 A 
ATOM     38  C   UNL     1      -6.000  24.480  27.192  0.00  0.00    +0.120 A 
ATOM     39  N   UNL     1      -6.716  23.756  26.243  0.00  0.00    -0.263 NA
ATOM     40  C   UNL     1      -8.101  23.899  26.073  0.00  0.00    +0.111 A 
ENDBRANCH   4   3
ENDBRANCH  10   9
BRANCH  12  13
ATOM     13  N   UNL     1      -3.333  29.938  34.629  0.00  0.00    -0.281 N 
ATOM     14  C   UNL     1      -2.293  29.049  34.410  0.00  0.00    +0.248 C 
ATOM     30  O   UNL     1      -2.151  28.390  33.390  0.00  0.00    -0.270 OA
ATOM     31  H   UNL     1      -3.442  30.271  35.587  0.00  0.00    +0.155 HD
BRANCH  14  15
ATOM     15  C   UNL     1      -1.272  28.853  35.483  0.00  0.00    +0.037 A 
ATOM     16  C   UNL     1      -0.874  29.954  36.364  0.00  0.00    +0.013 A 
ATOM     17  C   UNL     1       0.126  29.743  37.380  0.00  0.00    +0.005 A 
ATOM     18  C   UNL     1       0.735  28.422  37.522  0.00  0.00    -0.033 A 
ATOM     28  C   UNL     1       0.319  27.346  36.638  0.00  0.00    +0.005 A 
ATOM     29  C   UNL     1      -0.661  27.550  35.640  0.00  0.00    +0.013 A 
BRANCH  18  19
ATOM     19  C   UNL     1       1.825  28.112  38.564  0.00  0.00    +0.119 C 
BRANCH  19  20
ATOM     20  N   UNL     1       1.596  28.596  39.958  0.00  0.00    -0.302 NA
ATOM     21  C   UNL     1       2.748  28.220  40.894  0.00  0.00    +0.066 C 
ATOM     22  C   UNL     1       2.503  28.753  42.343  0.00  0.00    -0.064 C 
ATOM     23  N   UNL     1       1.176  28.202  42.868  0.00  0.00    +0.379 N 
ATOM     24  C   UNL     1       0.970  28.655  44.252  0.00  0.00    -0.096 C 
ATOM     25  H   UNL     1       1.255  27.090  42.885  0.00  0.00    -0.082 HD
ATOM     26  C   UNL     1       0.025  28.569  41.942  0.00  0.00    -0.064 C 
ATOM     27  C   UNL     1       0.293  28.059  40.499  0.00  0.00    +0.066 C 
ENDBRANCH  19  20
ENDBRANCH  18  19
ENDBRANCH  14  15
ENDBRANCH  12  13
TORSDOF 6
ENDMDL
MODEL 3
REMARK VINA RESULT:     -11.4      4.487     14.378
REMARK  Name = C:\Users\Docking\Desktop\test protocol\1iep_ligandH.pdb
REMARK  8 active torsions:
REMARK  status: ('A' for Active; 'I' for Inactive)
REMARK    1  A    between atoms: _5  and  _11
REMARK    2  A    between atoms: _19  and  _21
REMARK    3  A    between atoms: _22  and  _66
REMARK    4  A    between atoms: _27  and  _30
REMARK    5  A    between atoms: _32  and  _33
REMARK    6  A    between atoms: _38  and  _43
REMARK    7  A    between atoms: _43  and  _46
REMARK    8  A    between atoms: _53  and  _55
REMARK                            x       y       z     vdW  Elec       q    Type
REMARK                         _______ _______ _______ _____ _____    ______ ____
ROOT
ATOM     10  C   UNL     1      -5.716  27.737  31.538  0.00  0.00    +0.038 A 
ATOM     11  C   UNL     1      -5.005  28.087  32.715  0.00  0.00    +0.047 A 
ATOM     12  C   UNL     1      -3.615  27.698  32.898  0.00  0.00    +0.035 A 
ATOM     32  C   UNL     1      -2.979  26.955  31.861  0.00  0.00    +0.024 A 
ATOM     33  C   UNL     1      -3.687  26.590  30.659  0.00  0.00    +0.007 A 
ATOM     34  C   UNL     1      -5.059  26.969  30.474  0.00  0.00    -0.029 A 
ATOM     35  C   UNL     1      -5.770  26.545  29.168  0.00  0.00    +0.045 C 
ENDROOT
BRANCH  10   9
ATOM      4  C   UNL     1      -9.093  30.809  30.057  0.00  0.00    +0.077 A 
ATOM      5  C   UNL     1      -8.119  31.707  29.506  0.00  0.00    +0.048 A 
ATOM      6  C   UNL     1      -6.759  31.344  29.631  0.00  0.00    +0.116 A 
ATOM      7  N   UNL     1      -6.411  30.170  30.262  0.00  0.00    -0.223 NA
ATOM      8  C   UNL     1      -7.375  29.327  30.783  0.00  0.00    +0.220 A 
ATOM      9  N   UNL     1      -7.048  28.137  31.415  0.00  0.00    -0.283 N 
ATOM     36  H   UNL     1      -7.789  27.547  31.793  0.00  0.00    +0.155 HD
ATOM     37  N   UNL     1      -8.681  29.651  30.678  0.00  0.00    -0.214 NA
BRANCH   4   3
ATOM      1  C   UNL     1     -12.956  30.454  30.560  0.00  0.00    +0.020 A 
ATOM      2  C   UNL     1     -11.541  30.175  30.644  0.00  0.00    +0.013 A 
ATOM      3  C   UNL     1     -10.569  31.051  30.001  0.00  0.00    +0.019 A 
ATOM     38  C   UNL     1     -11.067  32.210  29.275  0.00  0.00    +0.120 A 
ATOM     39  N   UNL     1     -12.435  32.453  29.210  0.00  0.00    -0.263 NA
ATOM     40  C   UNL     1     -13.380  31.616  29.824  0.00  0.00    +0.111 A 
ENDBRANCH   4   3
ENDBRANCH  10   9
BRANCH  12  13
ATOM     13  N   UNL     1      -2.845  28.018  34.075  0.00  0.00    -0.281 N 
ATOM     14  C   UNL     1      -1.763  27.328  34.597  0.00  0.00    +0.248 C 
ATOM     30  O   UNL     1      -1.425  26.207  34.250  0.00  0.00    -0.270 OA
ATOM     31  H   UNL     1      -3.133  28.853  34.584  0.00  0.00    +0.155 HD
BRANCH  14  15
ATOM     15  C   UNL     1      -0.947  27.972  35.671  0.00  0.00    +0.037 A 
ATOM     16  C   UNL     1      -1.118  29.388  36.010  0.00  0.00    +0.013 A 
ATOM     17  C   UNL     1      -0.306  29.988  37.039  0.00  0.00    +0.005 A 
ATOM     18  C   UNL     1       0.684  29.172  37.737  0.00  0.00    -0.033 A 
ATOM     28  C   UNL     1       0.829  27.770  37.385  0.00  0.00    +0.005 A 
ATOM     29  C   UNL     1       0.036  27.178  36.376  0.00  0.00    +0.013 A 
BRANCH  18  19
ATOM     19  C   UNL     1       1.608  29.735  38.833  0.00  0.00    +0.119 C 
BRANCH  19  20
ATOM     20  N   UNL     1       1.726  28.949  40.098  0.00  0.00    -0.302 NA
ATOM     21  C   UNL     1       0.770  29.456  41.181  0.00  0.00    +0.066 C 
ATOM     22  C   UNL     1       0.891  28.608  42.489  0.00  0.00    -0.064 C 
ATOM     23  N   UNL     1       2.338  28.643  42.984  0.00  0.00    +0.379 N 
ATOM     24  C   UNL     1       2.443  27.895  44.246  0.00  0.00    -0.096 C 
ATOM     25  H   UNL     1       2.595  29.707  43.199  0.00  0.00    -0.082 HD
ATOM     26  C   UNL     1       3.296  28.144  41.912  0.00  0.00    -0.064 C 
ATOM     27  C   UNL     1       3.146  28.974  40.607  0.00  0.00    +0.066 C 
ENDBRANCH  19  20
ENDBRANCH  18  19
ENDBRANCH  14  15
ENDBRANCH  12  13
TORSDOF 6
ENDMDL
MODEL 4
REMARK VINA RESULT:     -11.2      2.362     12.550
REMARK  Name = C:\Users\Docking\Desktop\test protocol\1iep_ligandH.pdb
REMARK  8 active torsions:
REMARK  status: ('A' for Active; 'I' for Inactive)
REMARK    1  A    between atoms: _5  and  _11
REMARK    2  A    between atoms: _19  and  _21
REMARK    3  A    between atoms: _22  and  _66
REMARK    4  A    between atoms: _27  and  _30
REMARK    5  A    between atoms: _32  and  _33
REMARK    6  A    between atoms: _38  and  _43
REMARK    7  A    between atoms: _43  and  _46
REMARK    8  A    between atoms: _53  and  _55
REMARK                            x       y       z     vdW  Elec       q    Type
REMARK                         _______ _______ _______ _____ _____    ______ ____
ROOT
ATOM     10  C   UNL     1       1.049  28.119  38.935  0.00  0.00    +0.038 A 
ATOM     11  C   UNL     1       0.300  28.281  40.129  0.00  0.00    +0.047 A 
ATOM     12  C   UNL     1       0.853  28.986  41.275  0.00  0.00    +0.035 A 
ATOM     32  C   UNL     1       2.172  29.517  41.169  0.00  0.00    +0.024 A 
ATOM     33  C   UNL     1       2.948  29.361  39.964  0.00  0.00    +0.007 A 
ATOM     34  C   UNL     1       2.409  28.664  38.832  0.00  0.00    -0.029 A 
ATOM     35  C   UNL     1       3.288  28.522  37.568  0.00  0.00    +0.045 C 
ENDROOT
BRANCH  10   9
ATOM      4  C   UNL     1      -1.635  27.970  34.959  0.00  0.00    +0.077 A 
ATOM      5  C   UNL     1      -1.928  29.372  35.034  0.00  0.00    +0.048 A 
ATOM      6  C   UNL     1      -1.375  30.094  36.115  0.00  0.00    +0.116 A 
ATOM      7  N   UNL     1      -0.588  29.452  37.046  0.00  0.00    -0.223 NA
ATOM      8  C   UNL     1      -0.326  28.098  36.945  0.00  0.00    +0.220 A 
ATOM      9  N   UNL     1       0.470  27.433  37.866  0.00  0.00    -0.283 N 
ATOM     36  H   UNL     1       0.633  26.432  37.761  0.00  0.00    +0.155 HD
ATOM     37  N   UNL     1      -0.844  27.385  35.923  0.00  0.00    -0.214 NA
BRANCH   4   3
ATOM      1  C   UNL     1      -3.210  26.666  31.625  0.00  0.00    +0.020 A 
ATOM      2  C   UNL     1      -2.734  27.576  32.641  0.00  0.00    +0.013 A 
ATOM      3  C   UNL     1      -2.143  27.072  33.874  0.00  0.00    +0.019 A 
ATOM     38  C   UNL     1      -2.046  25.630  34.049  0.00  0.00    +0.120 A 
ATOM     39  N   UNL     1      -2.514  24.778  33.053  0.00  0.00    -0.263 NA
ATOM     40  C   UNL     1      -3.086  25.252  31.863  0.00  0.00    +0.111 A 
ENDBRANCH   4   3
ENDBRANCH  10   9
BRANCH  12  13
ATOM     13  N   UNL     1       0.143  29.174  42.515  0.00  0.00    -0.281 N 
ATOM     14  C   UNL     1       0.529  28.780  43.786  0.00  0.00    +0.248 C 
ATOM     30  O   UNL     1       1.450  28.012  44.021  0.00  0.00    -0.270 OA
ATOM     31  H   UNL     1      -0.754  29.656  42.449  0.00  0.00    +0.155 HD
BRANCH  14  15
ATOM     15  C   UNL     1      -0.226  29.303  44.965  0.00  0.00    +0.037 A 
ATOM     16  C   UNL     1      -0.543  30.727  45.093  0.00  0.00    +0.013 A 
ATOM     17  C   UNL     1      -1.258  31.208  46.249  0.00  0.00    +0.005 A 
ATOM     18  C   UNL     1      -1.663  30.261  47.286  0.00  0.00    -0.033 A 
ATOM     28  C   UNL     1      -1.340  28.852  47.130  0.00  0.00    +0.005 A 
ATOM     29  C   UNL     1      -0.638  28.378  45.999  0.00  0.00    +0.013 A 
BRANCH  18  19
ATOM     19  C   UNL     1      -2.410  30.688  48.563  0.00  0.00    +0.119 C 
BRANCH  19  20
ATOM     20  N   UNL     1      -3.663  29.948  48.902  0.00  0.00    -0.302 NA
ATOM     21  C   UNL     1      -4.915  30.694  48.432  0.00  0.00    +0.066 C 
ATOM     22  C   UNL     1      -6.215  29.895  48.775  0.00  0.00    -0.064 C 
ATOM     23  N   UNL     1      -6.270  29.638  50.282  0.00  0.00    +0.379 N 
ATOM     24  C   UNL     1      -7.519  28.938  50.615  0.00  0.00    -0.096 C 
ATOM     25  H   UNL     1      -6.291  30.629  50.793  0.00  0.00    -0.082 HD
ATOM     26  C   UNL     1      -5.027  28.900  50.758  0.00  0.00    -0.064 C 
ATOM     27  C   UNL     1      -3.740  29.688  50.386  0.00  0.00    +0.066 C 
ENDBRANCH  19  20
ENDBRANCH  18  19
ENDBRANCH  14  15
ENDBRANCH  12  13
TORSDOF 6
ENDMDL
MODEL 5
REMARK VINA RESULT:     -11.2      2.539      4.275
REMARK  Name = C:\Users\Docking\Desktop\test protocol\1iep_ligandH.pdb
REMARK  8 active torsions:
REMARK  status: ('A' for Active; 'I' for Inactive)
REMARK    1  A    between atoms: _5  and  _11
REMARK    2  A    between atoms: _19  and  _21
REMARK    3  A    between atoms: _22  and  _66
REMARK    4  A    between atoms: _27  and  _30
REMARK    5  A    between atoms: _32  and  _33
REMARK    6  A    between atoms: _38  and  _43
REMARK    7  A    between atoms: _43  and  _46
REMARK    8  A    between atoms: _53  and  _55
REMARK                            x       y       z     vdW  Elec       q    Type
REMARK                         _______ _______ _______ _____ _____    ______ ____
ROOT
ATOM     10  C   UNL     1       0.866  29.447  40.539  0.00  0.00    +0.038 A 
ATOM     11  C   UNL     1      -0.062  29.026  39.553  0.00  0.00    +0.047 A 
ATOM     12  C   UNL     1       0.376  28.314  38.363  0.00  0.00    +0.035 A 
ATOM     32  C   UNL     1       1.768  28.045  38.210  0.00  0.00    +0.024 A 
ATOM     33  C   UNL     1       2.725  28.466  39.202  0.00  0.00    +0.007 A 
ATOM     34  C   UNL     1       2.299  29.172  40.377  0.00  0.00    -0.029 A 
ATOM     35  C   UNL     1       3.370  29.605  41.405  0.00  0.00    +0.045 C 
ENDROOT
BRANCH  10   9
ATOM      4  C   UNL     1      -0.333  29.631  45.183  0.00  0.00    +0.077 A 
ATOM      5  C   UNL     1      -0.010  28.247  45.382  0.00  0.00    +0.048 A 
ATOM      6  C   UNL     1       0.455  27.522  44.262  0.00  0.00    +0.116 A 
ATOM      7  N   UNL     1       0.583  28.144  43.039  0.00  0.00    -0.223 NA
ATOM      8  C   UNL     1       0.261  29.480  42.881  0.00  0.00    +0.220 A 
ATOM      9  N   UNL     1       0.391  30.127  41.662  0.00  0.00    -0.283 N 
ATOM     36  H   UNL     1       0.135  31.112  41.585  0.00  0.00    +0.155 HD
ATOM     37  N   UNL     1      -0.186  30.194  43.935  0.00  0.00    -0.214 NA
BRANCH   4   3
ATOM      1  C   UNL     1      -2.321  32.374  47.139  0.00  0.00    +0.020 A 
ATOM      2  C   UNL     1      -1.873  31.530  46.055  0.00  0.00    +0.013 A 
ATOM      3  C   UNL     1      -0.834  30.531  46.270  0.00  0.00    +0.019 A 
ATOM     38  C   UNL     1      -0.264  30.410  47.603  0.00  0.00    +0.120 A 
ATOM     39  N   UNL     1      -0.714  31.237  48.627  0.00  0.00    -0.263 NA
ATOM     40  C   UNL     1      -1.713  32.203  48.432  0.00  0.00    +0.111 A 
ENDBRANCH   4   3
ENDBRANCH  10   9
BRANCH  12  13
ATOM     13  N   UNL     1      -0.519  27.869  37.323  0.00  0.00    -0.281 N 
ATOM     14  C   UNL     1      -0.949  28.573  36.211  0.00  0.00    +0.248 C 
ATOM     30  O   UNL     1      -0.796  29.775  36.052  0.00  0.00    -0.270 OA
ATOM     31  H   UNL     1      -0.879  26.919  37.420  0.00  0.00    +0.155 HD
BRANCH  14  15
ATOM     15  C   UNL     1      -1.666  27.838  35.124  0.00  0.00    +0.037 A 
ATOM     16  C   UNL     1      -1.296  26.467  34.762  0.00  0.00    +0.013 A 
ATOM     17  C   UNL     1      -1.992  25.788  33.698  0.00  0.00    +0.005 A 
ATOM     18  C   UNL     1      -3.067  26.478  32.990  0.00  0.00    -0.033 A 
ATOM     28  C   UNL     1      -3.417  27.836  33.373  0.00  0.00    +0.005 A 
ATOM     29  C   UNL     1      -2.736  28.506  34.415  0.00  0.00    +0.013 A 
BRANCH  18  19
ATOM     19  C   UNL     1      -3.850  25.838  31.828  0.00  0.00    +0.119 C 
BRANCH  19  20
ATOM     20  N   UNL     1      -3.995  24.352  31.839  0.00  0.00    -0.302 NA
ATOM     21  C   UNL     1      -4.335  23.817  33.233  0.00  0.00    +0.066 C 
ATOM     22  C   UNL     1      -4.505  22.263  33.221  0.00  0.00    -0.064 C 
ATOM     23  N   UNL     1      -3.224  21.617  32.691  0.00  0.00    +0.379 N 
ATOM     24  C   UNL     1      -3.359  20.153  32.733  0.00  0.00    -0.096 C 
ATOM     25  H   UNL     1      -2.393  21.900  33.379  0.00  0.00    -0.082 HD
ATOM     26  C   UNL     1      -2.877  22.145  31.306  0.00  0.00    -0.064 C 
ATOM     27  C   UNL     1      -2.739  23.693  31.323  0.00  0.00    +0.066 C 
ENDBRANCH  19  20
ENDBRANCH  18  19
ENDBRANCH  14  15
ENDBRANCH  12  13
TORSDOF 6
ENDMDL
