MODEL 1
REMARK VINA RESULT:      -8.7      0.000      0.000
REMARK  Name = C:\Users\Docking\Desktop\test protocol\1iep_ligandH.pdb
REMARK  8 active torsions:
REMARK  status: ('A' for Active; 'I' for Inactive)
REMARK    1  A    between atoms: _5  and  _11
REMARK    2  A    between atoms: _19  and  _21
REMARK    3  A    between atoms: _22  and  _66
REMARK    4  A    between atoms: _27  and  _30
REMARK    5  A    between atoms: _32  and  _33
REMARK    6  A    between atoms: _38  and  _43
REMARK    7  A    between atoms: _43  and  _46
REMARK    8  A    between atoms: _53  and  _55
REMARK                            x       y       z     vdW  Elec       q    Type
REMARK                         _______ _______ _______ _____ _____    ______ ____
ROOT
ATOM     10  C   UNL     1      68.977  22.686  87.031  0.00  0.00    +0.038 A 
ATOM     11  C   UNL     1      67.639  22.223  86.945  0.00  0.00    +0.047 A 
ATOM     12  C   UNL     1      66.859  22.399  85.730  0.00  0.00    +0.035 A 
ATOM     32  C   UNL     1      67.474  23.048  84.620  0.00  0.00    +0.024 A 
ATOM     33  C   UNL     1      68.833  23.526  84.690  0.00  0.00    +0.007 A 
ATOM     34  C   UNL     1      69.606  23.358  85.887  0.00  0.00    -0.029 A 
ATOM     35  C   UNL     1      71.056  23.895  85.909  0.00  0.00    +0.045 C 
ENDROOT
BRANCH  10   9
ATOM      4  C   UNL     1      71.147  19.866  90.252  0.00  0.00    +0.077 A 
ATOM      5  C   UNL     1      70.831  18.678  89.513  0.00  0.00    +0.048 A 
ATOM      6  C   UNL     1      70.102  18.836  88.312  0.00  0.00    +0.116 A 
ATOM      7  N   UNL     1      69.724  20.092  87.892  0.00  0.00    -0.223 NA
ATOM      8  C   UNL     1      70.044  21.217  88.630  0.00  0.00    +0.220 A 
ATOM      9  N   UNL     1      69.680  22.491  88.222  0.00  0.00    -0.283 N 
ATOM     36  H   UNL     1      69.929  23.295  88.798  0.00  0.00    +0.155 HD
ATOM     37  N   UNL     1      70.738  21.093  89.780  0.00  0.00    -0.214 NA
BRANCH   4   3
ATOM      1  C   UNL     1      73.982  19.399  92.907  0.00  0.00    +0.020 A 
ATOM      2  C   UNL     1      73.285  19.379  91.641  0.00  0.00    +0.013 A 
ATOM      3  C   UNL     1      71.915  19.864  91.537  0.00  0.00    +0.019 A 
ATOM     38  C   UNL     1      71.273  20.367  92.742  0.00  0.00    +0.120 A 
ATOM     39  N   UNL     1      71.968  20.373  93.948  0.00  0.00    -0.263 NA
ATOM     40  C   UNL     1      73.286  19.907  94.060  0.00  0.00    +0.111 A 
ENDBRANCH   4   3
ENDBRANCH  10   9
BRANCH  12  13
ATOM     13  N   UNL     1      65.494  21.957  85.586  0.00  0.00    -0.281 N 
ATOM     14  C   UNL     1      65.040  20.700  85.223  0.00  0.00    +0.248 C 
ATOM     30  O   UNL     1      65.745  19.818  84.757  0.00  0.00    -0.270 OA
ATOM     31  H   UNL     1      64.776  22.656  85.776  0.00  0.00    +0.155 HD
BRANCH  14  15
ATOM     15  C   UNL     1      63.589  20.381  85.389  0.00  0.00    +0.037 A 
ATOM     16  C   UNL     1      62.656  21.357  85.957  0.00  0.00    +0.013 A 
ATOM     17  C   UNL     1      61.265  21.018  86.122  0.00  0.00    +0.005 A 
ATOM     18  C   UNL     1      60.798  19.695  85.716  0.00  0.00    -0.033 A 
ATOM     28  C   UNL     1      61.744  18.747  85.150  0.00  0.00    +0.005 A 
ATOM     29  C   UNL     1      63.108  19.076  84.988  0.00  0.00    +0.013 A 
BRANCH  18  19
ATOM     19  C   UNL     1      59.335  19.239  85.874  0.00  0.00    +0.119 C 
BRANCH  19  20
ATOM     20  N   UNL     1      58.493  19.975  86.864  0.00  0.00    -0.302 NA
ATOM     21  C   UNL     1      58.577  19.356  88.263  0.00  0.00    +0.066 C 
ATOM     22  C   UNL     1      57.709  20.151  89.290  0.00  0.00    -0.064 C 
ATOM     23  N   UNL     1      56.259  20.194  88.803  0.00  0.00    +0.379 N 
ATOM     24  C   UNL     1      55.429  20.892  89.796  0.00  0.00    -0.096 C 
ATOM     25  H   UNL     1      55.894  19.143  88.735  0.00  0.00    -0.082 HD
ATOM     26  C   UNL     1      56.167  20.806  87.413  0.00  0.00    -0.064 C 
ATOM     27  C   UNL     1      57.057  20.026  86.405  0.00  0.00    +0.066 C 
ENDBRANCH  19  20
ENDBRANCH  18  19
ENDBRANCH  14  15
ENDBRANCH  12  13
TORSDOF 6
ENDMDL
MODEL 2
REMARK VINA RESULT:      -8.3     14.925     24.064
REMARK  Name = C:\Users\Docking\Desktop\test protocol\1iep_ligandH.pdb
REMARK  8 active torsions:
REMARK  status: ('A' for Active; 'I' for Inactive)
REMARK    1  A    between atoms: _5  and  _11
REMARK    2  A    between atoms: _19  and  _21
REMARK    3  A    between atoms: _22  and  _66
REMARK    4  A    between atoms: _27  and  _30
REMARK    5  A    between atoms: _32  and  _33
REMARK    6  A    between atoms: _38  and  _43
REMARK    7  A    between atoms: _43  and  _46
REMARK    8  A    between atoms: _53  and  _55
REMARK                            x       y       z     vdW  Elec       q    Type
REMARK                         _______ _______ _______ _____ _____    ______ ____
ROOT
ATOM     10  C   UNL     1      46.566   8.850  80.655  0.00  0.00    +0.038 A 
ATOM     11  C   UNL     1      47.751   9.621  80.767  0.00  0.00    +0.047 A 
ATOM     12  C   UNL     1      48.917   9.332  79.946  0.00  0.00    +0.035 A 
ATOM     32  C   UNL     1      48.840   8.253  79.019  0.00  0.00    +0.024 A 
ATOM     33  C   UNL     1      47.644   7.458  78.893  0.00  0.00    +0.007 A 
ATOM     34  C   UNL     1      46.492   7.736  79.701  0.00  0.00    -0.029 A 
ATOM     35  C   UNL     1      45.238   6.847  79.528  0.00  0.00    +0.045 C 
ENDROOT
BRANCH  10   9
ATOM      4  C   UNL     1      42.535  11.292  81.559  0.00  0.00    +0.077 A 
ATOM      5  C   UNL     1      42.621  12.009  80.319  0.00  0.00    +0.048 A 
ATOM      6  C   UNL     1      43.722  11.725  79.481  0.00  0.00    +0.116 A 
ATOM      7  N   UNL     1      44.661  10.792  79.863  0.00  0.00    -0.223 NA
ATOM      8  C   UNL     1      44.549  10.119  81.066  0.00  0.00    +0.220 A 
ATOM      9  N   UNL     1      45.477   9.171  81.467  0.00  0.00    -0.283 N 
ATOM     36  H   UNL     1      45.362   8.702  82.366  0.00  0.00    +0.155 HD
ATOM     37  N   UNL     1      43.507  10.374  81.885  0.00  0.00    -0.214 NA
BRANCH   4   3
ATOM      1  C   UNL     1      40.480  11.388  84.886  0.00  0.00    +0.020 A 
ATOM      2  C   UNL     1      41.580  11.190  83.971  0.00  0.00    +0.013 A 
ATOM      3  C   UNL     1      41.428  11.479  82.550  0.00  0.00    +0.019 A 
ATOM     38  C   UNL     1      40.141  11.973  82.085  0.00  0.00    +0.120 A 
ATOM     39  N   UNL     1      39.099  12.152  82.990  0.00  0.00    -0.263 NA
ATOM     40  C   UNL     1      39.233  11.875  84.359  0.00  0.00    +0.111 A 
ENDBRANCH   4   3
ENDBRANCH  10   9
BRANCH  12  13
ATOM     13  N   UNL     1      50.151  10.076  80.022  0.00  0.00    -0.281 N 
ATOM     14  C   UNL     1      50.518  11.193  79.291  0.00  0.00    +0.248 C 
ATOM     30  O   UNL     1      49.924  11.598  78.303  0.00  0.00    -0.270 OA
ATOM     31  H   UNL     1      50.836   9.737  80.697  0.00  0.00    +0.155 HD
BRANCH  14  15
ATOM     15  C   UNL     1      51.729  11.963  79.708  0.00  0.00    +0.037 A 
ATOM     16  C   UNL     1      52.623  11.465  80.756  0.00  0.00    +0.013 A 
ATOM     17  C   UNL     1      53.775  12.236  81.152  0.00  0.00    +0.005 A 
ATOM     18  C   UNL     1      54.040  13.515  80.497  0.00  0.00    -0.033 A 
ATOM     28  C   UNL     1      53.139  13.983  79.457  0.00  0.00    +0.005 A 
ATOM     29  C   UNL     1      52.009  13.231  79.067  0.00  0.00    +0.013 A 
BRANCH  18  19
ATOM     19  C   UNL     1      55.233  14.414  80.870  0.00  0.00    +0.119 C 
BRANCH  19  20
ATOM     20  N   UNL     1      56.593  13.947  80.466  0.00  0.00    -0.302 NA
ATOM     21  C   UNL     1      56.582  13.260  79.098  0.00  0.00    +0.066 C 
ATOM     22  C   UNL     1      58.016  12.799  78.681  0.00  0.00    -0.064 C 
ATOM     23  N   UNL     1      58.580  11.863  79.752  0.00  0.00    +0.379 N 
ATOM     24  C   UNL     1      59.905  11.381  79.335  0.00  0.00    -0.096 C 
ATOM     25  H   UNL     1      57.903  10.979  79.818  0.00  0.00    -0.082 HD
ATOM     26  C   UNL     1      58.592  12.537  81.116  0.00  0.00    -0.064 C 
ATOM     27  C   UNL     1      57.167  13.019  81.508  0.00  0.00    +0.066 C 
ENDBRANCH  19  20
ENDBRANCH  18  19
ENDBRANCH  14  15
ENDBRANCH  12  13
TORSDOF 6
ENDMDL
MODEL 3
REMARK VINA RESULT:      -8.1     16.934     23.763
REMARK  Name = C:\Users\Docking\Desktop\test protocol\1iep_ligandH.pdb
REMARK  8 active torsions:
REMARK  status: ('A' for Active; 'I' for Inactive)
REMARK    1  A    between atoms: _5  and  _11
REMARK    2  A    between atoms: _19  and  _21
REMARK    3  A    between atoms: _22  and  _66
REMARK    4  A    between atoms: _27  and  _30
REMARK    5  A    between atoms: _32  and  _33
REMARK    6  A    between atoms: _38  and  _43
REMARK    7  A    between atoms: _43  and  _46
REMARK    8  A    between atoms: _53  and  _55
REMARK                            x       y       z     vdW  Elec       q    Type
REMARK                         _______ _______ _______ _____ _____    ______ ____
ROOT
ATOM     10  C   UNL     1      48.481   9.431  80.808  0.00  0.00    +0.038 A 
ATOM     11  C   UNL     1      47.373  10.021  81.469  0.00  0.00    +0.047 A 
ATOM     12  C   UNL     1      46.027   9.498  81.296  0.00  0.00    +0.035 A 
ATOM     32  C   UNL     1      45.845   8.370  80.443  0.00  0.00    +0.024 A 
ATOM     33  C   UNL     1      46.960   7.759  79.762  0.00  0.00    +0.007 A 
ATOM     34  C   UNL     1      48.289   8.273  79.927  0.00  0.00    -0.029 A 
ATOM     35  C   UNL     1      49.445   7.581  79.167  0.00  0.00    +0.045 C 
ENDROOT
BRANCH  10   9
ATOM      4  C   UNL     1      52.002  12.496  79.688  0.00  0.00    +0.077 A 
ATOM      5  C   UNL     1      51.257  13.042  78.591  0.00  0.00    +0.048 A 
ATOM      6  C   UNL     1      49.975  12.502  78.343  0.00  0.00    +0.116 A 
ATOM      7  N   UNL     1      49.484  11.491  79.140  0.00  0.00    -0.223 NA
ATOM      8  C   UNL     1      50.229  10.986  80.190  0.00  0.00    +0.220 A 
ATOM      9  N   UNL     1      49.751   9.975  81.010  0.00  0.00    -0.283 N 
ATOM     36  H   UNL     1      50.334   9.624  81.770  0.00  0.00    +0.155 HD
ATOM     37  N   UNL     1      51.456  11.483  80.446  0.00  0.00    -0.214 NA
BRANCH   4   3
ATOM      1  C   UNL     1      55.642  13.920  79.544  0.00  0.00    +0.020 A 
ATOM      2  C   UNL     1      54.334  13.480  79.116  0.00  0.00    +0.013 A 
ATOM      3  C   UNL     1      53.369  12.963  80.078  0.00  0.00    +0.019 A 
ATOM     38  C   UNL     1      53.762  12.905  81.478  0.00  0.00    +0.120 A 
ATOM     39  N   UNL     1      55.029  13.334  81.861  0.00  0.00    -0.263 NA
ATOM     40  C   UNL     1      55.966  13.831  80.944  0.00  0.00    +0.111 A 
ENDBRANCH   4   3
ENDBRANCH  10   9
BRANCH  12  13
ATOM     13  N   UNL     1      44.864  10.060  81.935  0.00  0.00    -0.281 N 
ATOM     14  C   UNL     1      43.876  10.847  81.366  0.00  0.00    +0.248 C 
ATOM     30  O   UNL     1      43.957  11.367  80.263  0.00  0.00    -0.270 OA
ATOM     31  H   UNL     1      44.755   9.853  82.928  0.00  0.00    +0.155 HD
BRANCH  14  15
ATOM     15  C   UNL     1      42.624  11.106  82.139  0.00  0.00    +0.037 A 
ATOM     16  C   UNL     1      41.910  12.381  82.025  0.00  0.00    +0.013 A 
ATOM     17  C   UNL     1      40.713  12.611  82.796  0.00  0.00    +0.005 A 
ATOM     18  C   UNL     1      40.222  11.562  83.687  0.00  0.00    -0.033 A 
ATOM     28  C   UNL     1      40.947  10.305  83.776  0.00  0.00    +0.005 A 
ATOM     29  C   UNL     1      42.121  10.076  83.023  0.00  0.00    +0.013 A 
BRANCH  18  19
ATOM     19  C   UNL     1      38.966  11.728  84.562  0.00  0.00    +0.119 C 
BRANCH  19  20
ATOM     20  N   UNL     1      37.652  11.374  83.947  0.00  0.00    -0.302 NA
ATOM     21  C   UNL     1      37.691  10.008  83.255  0.00  0.00    +0.066 C 
ATOM     22  C   UNL     1      36.302   9.644  82.637  0.00  0.00    -0.064 C 
ATOM     23  N   UNL     1      35.882  10.737  81.653  0.00  0.00    +0.379 N 
ATOM     24  C   UNL     1      34.605  10.369  81.026  0.00  0.00    -0.096 C 
ATOM     25  H   UNL     1      36.653  10.782  80.848  0.00  0.00    -0.082 HD
ATOM     26  C   UNL     1      35.844  12.099  82.331  0.00  0.00    -0.064 C 
ATOM     27  C   UNL     1      37.221  12.439  82.968  0.00  0.00    +0.066 C 
ENDBRANCH  19  20
ENDBRANCH  18  19
ENDBRANCH  14  15
ENDBRANCH  12  13
TORSDOF 6
ENDMDL
MODEL 4
REMARK VINA RESULT:      -8.0     20.273     23.211
REMARK  Name = C:\Users\Docking\Desktop\test protocol\1iep_ligandH.pdb
REMARK  8 active torsions:
REMARK  status: ('A' for Active; 'I' for Inactive)
REMARK    1  A    between atoms: _5  and  _11
REMARK    2  A    between atoms: _19  and  _21
REMARK    3  A    between atoms: _22  and  _66
REMARK    4  A    between atoms: _27  and  _30
REMARK    5  A    between atoms: _32  and  _33
REMARK    6  A    between atoms: _38  and  _43
REMARK    7  A    between atoms: _43  and  _46
REMARK    8  A    between atoms: _53  and  _55
REMARK                            x       y       z     vdW  Elec       q    Type
REMARK                         _______ _______ _______ _____ _____    ______ ____
ROOT
ATOM     10  C   UNL     1      84.779   4.543  93.565  0.00  0.00    +0.038 A 
ATOM     11  C   UNL     1      83.505   4.560  92.943  0.00  0.00    +0.047 A 
ATOM     12  C   UNL     1      83.237   3.767  91.753  0.00  0.00    +0.035 A 
ATOM     32  C   UNL     1      84.291   2.965  91.225  0.00  0.00    +0.024 A 
ATOM     33  C   UNL     1      85.593   2.937  91.844  0.00  0.00    +0.007 A 
ATOM     34  C   UNL     1      85.863   3.719  93.016  0.00  0.00    -0.029 A 
ATOM     35  C   UNL     1      87.280   3.655  93.634  0.00  0.00    +0.045 C 
ENDROOT
BRANCH  10   9
ATOM      4  C   UNL     1      86.063   8.636  95.719  0.00  0.00    +0.077 A 
ATOM      5  C   UNL     1      86.384   9.262  94.469  0.00  0.00    +0.048 A 
ATOM      6  C   UNL     1      86.212   8.494  93.295  0.00  0.00    +0.116 A 
ATOM      7  N   UNL     1      85.752   7.198  93.377  0.00  0.00    -0.223 NA
ATOM      8  C   UNL     1      85.453   6.624  94.599  0.00  0.00    +0.220 A 
ATOM      9  N   UNL     1      84.981   5.324  94.705  0.00  0.00    -0.283 N 
ATOM     36  H   UNL     1      84.778   4.935  95.625  0.00  0.00    +0.155 HD
ATOM     37  N   UNL     1      85.610   7.336  95.735  0.00  0.00    -0.214 NA
BRANCH   4   3
ATOM      1  C   UNL     1      85.374  10.904  98.830  0.00  0.00    +0.020 A 
ATOM      2  C   UNL     1      85.205  10.273  97.542  0.00  0.00    +0.013 A 
ATOM      3  C   UNL     1      86.188   9.318  97.045  0.00  0.00    +0.019 A 
ATOM     38  C   UNL     1      87.340   9.022  97.885  0.00  0.00    +0.120 A 
ATOM     39  N   UNL     1      87.476   9.646  99.121  0.00  0.00    -0.263 NA
ATOM     40  C   UNL     1      86.537  10.567  99.608  0.00  0.00    +0.111 A 
ENDBRANCH   4   3
ENDBRANCH  10   9
BRANCH  12  13
ATOM     13  N   UNL     1      81.966   3.750  91.074  0.00  0.00    -0.281 N 
ATOM     14  C   UNL     1      80.829   4.481  91.377  0.00  0.00    +0.248 C 
ATOM     30  O   UNL     1      80.665   5.106  92.414  0.00  0.00    -0.270 OA
ATOM     31  H   UNL     1      81.895   3.123  90.272  0.00  0.00    +0.155 HD
BRANCH  14  15
ATOM     15  C   UNL     1      79.705   4.510  90.391  0.00  0.00    +0.037 A 
ATOM     16  C   UNL     1      78.948   5.739  90.139  0.00  0.00    +0.013 A 
ATOM     17  C   UNL     1      77.858   5.735  89.195  0.00  0.00    +0.005 A 
ATOM     18  C   UNL     1      77.520   4.498  88.496  0.00  0.00    -0.033 A 
ATOM     28  C   UNL     1      78.292   3.295  88.761  0.00  0.00    +0.005 A 
ATOM     29  C   UNL     1      79.360   3.294  89.686  0.00  0.00    +0.013 A 
BRANCH  18  19
ATOM     19  C   UNL     1      76.360   4.397  87.488  0.00  0.00    +0.119 C 
BRANCH  19  20
ATOM     20  N   UNL     1      76.663   3.801  86.153  0.00  0.00    -0.302 NA
ATOM     21  C   UNL     1      76.267   4.733  85.004  0.00  0.00    +0.066 C 
ATOM     22  C   UNL     1      76.612   4.103  83.616  0.00  0.00    -0.064 C 
ATOM     23  N   UNL     1      75.909   2.750  83.483  0.00  0.00    +0.379 N 
ATOM     24  C   UNL     1      76.185   2.182  82.156  0.00  0.00    -0.096 C 
ATOM     25  H   UNL     1      74.811   2.932  83.553  0.00  0.00    -0.082 HD
ATOM     26  C   UNL     1      76.296   1.819  84.623  0.00  0.00    -0.064 C 
ATOM     27  C   UNL     1      75.976   2.467  85.999  0.00  0.00    +0.066 C 
ENDBRANCH  19  20
ENDBRANCH  18  19
ENDBRANCH  14  15
ENDBRANCH  12  13
TORSDOF 6
ENDMDL
MODEL 5
REMARK VINA RESULT:      -8.0     20.765     27.608
REMARK  Name = C:\Users\Docking\Desktop\test protocol\1iep_ligandH.pdb
REMARK  8 active torsions:
REMARK  status: ('A' for Active; 'I' for Inactive)
REMARK    1  A    between atoms: _5  and  _11
REMARK    2  A    between atoms: _19  and  _21
REMARK    3  A    between atoms: _22  and  _66
REMARK    4  A    between atoms: _27  and  _30
REMARK    5  A    between atoms: _32  and  _33
REMARK    6  A    between atoms: _38  and  _43
REMARK    7  A    between atoms: _43  and  _46
REMARK    8  A    between atoms: _53  and  _55
REMARK                            x       y       z     vdW  Elec       q    Type
REMARK                         _______ _______ _______ _____ _____    ______ ____
ROOT
ATOM     10  C   UNL     1      83.271   5.154  90.933  0.00  0.00    +0.038 A 
ATOM     11  C   UNL     1      83.431   3.897  91.571  0.00  0.00    +0.047 A 
ATOM     12  C   UNL     1      84.463   3.690  92.576  0.00  0.00    +0.035 A 
ATOM     32  C   UNL     1      85.312   4.785  92.908  0.00  0.00    +0.024 A 
ATOM     33  C   UNL     1      85.163   6.069  92.269  0.00  0.00    +0.007 A 
ATOM     34  C   UNL     1      84.149   6.279  91.276  0.00  0.00    -0.029 A 
ATOM     35  C   UNL     1      84.040   7.674  90.618  0.00  0.00    +0.045 C 
ENDROOT
BRANCH  10   9
ATOM      4  C   UNL     1      78.695   5.885  89.680  0.00  0.00    +0.077 A 
ATOM      5  C   UNL     1      78.271   5.961  91.048  0.00  0.00    +0.048 A 
ATOM      6  C   UNL     1      79.260   5.799  92.044  0.00  0.00    +0.116 A 
ATOM      7  N   UNL     1      80.572   5.579  91.687  0.00  0.00    -0.223 NA
ATOM      8  C   UNL     1      80.948   5.510  90.358  0.00  0.00    +0.220 A 
ATOM      9  N   UNL     1      82.264   5.297  89.976  0.00  0.00    -0.283 N 
ATOM     36  H   UNL     1      82.499   5.246  88.985  0.00  0.00    +0.155 HD
ATOM     37  N   UNL     1      80.022   5.660  89.388  0.00  0.00    -0.214 NA
BRANCH   4   3
ATOM      1  C   UNL     1      76.744   7.372  86.633  0.00  0.00    +0.020 A 
ATOM      2  C   UNL     1      77.654   7.276  87.751  0.00  0.00    +0.013 A 
ATOM      3  C   UNL     1      77.769   6.039  88.514  0.00  0.00    +0.019 A 
ATOM     38  C   UNL     1      76.944   4.909  88.115  0.00  0.00    +0.120 A 
ATOM     39  N   UNL     1      76.075   5.031  87.035  0.00  0.00    -0.263 NA
ATOM     40  C   UNL     1      75.954   6.217  86.295  0.00  0.00    +0.111 A 
ENDBRANCH   4   3
ENDBRANCH  10   9
BRANCH  12  13
ATOM     13  N   UNL     1      84.678   2.434  93.251  0.00  0.00    -0.281 N 
ATOM     14  C   UNL     1      85.731   1.549  93.087  0.00  0.00    +0.248 C 
ATOM     30  O   UNL     1      86.543   1.601  92.175  0.00  0.00    -0.270 OA
ATOM     31  H   UNL     1      83.968   2.165  93.932  0.00  0.00    +0.155 HD
BRANCH  14  15
ATOM     15  C   UNL     1      85.899   0.436  94.071  0.00  0.00    +0.037 A 
ATOM     16  C   UNL     1      86.762  -0.711  93.781  0.00  0.00    +0.013 A 
ATOM     17  C   UNL     1      86.892  -1.779  94.740  0.00  0.00    +0.005 A 
ATOM     18  C   UNL     1      86.158  -1.703  96.001  0.00  0.00    -0.033 A 
ATOM     28  C   UNL     1      85.313  -0.550  96.266  0.00  0.00    +0.005 A 
ATOM     29  C   UNL     1      85.182   0.498  95.327  0.00  0.00    +0.013 A 
BRANCH  18  19
ATOM     19  C   UNL     1      86.221  -2.806  97.074  0.00  0.00    +0.119 C 
BRANCH  19  20
ATOM     20  N   UNL     1      84.951  -3.144  97.783  0.00  0.00    -0.302 NA
ATOM     21  C   UNL     1      85.118  -3.116  99.305  0.00  0.00    +0.066 C 
ATOM     22  C   UNL     1      83.774  -3.449 100.032  0.00  0.00    -0.064 C 
ATOM     23  N   UNL     1      83.272  -4.817  99.567  0.00  0.00    +0.379 N 
ATOM     24  C   UNL     1      82.039  -5.159 100.291  0.00  0.00    -0.096 C 
ATOM     25  H   UNL     1      84.046  -5.572  99.840  0.00  0.00    -0.082 HD
ATOM     26  C   UNL     1      83.106  -4.854  98.054  0.00  0.00    -0.064 C 
ATOM     27  C   UNL     1      84.439  -4.493  97.342  0.00  0.00    +0.066 C 
ENDBRANCH  19  20
ENDBRANCH  18  19
ENDBRANCH  14  15
ENDBRANCH  12  13
TORSDOF 6
ENDMDL
