MODEL 1
REMARK VINA RESULT:      -9.1      0.000      0.000
REMARK  Name = C:\Users\Docking\Desktop\test protocol\1iep_ligandH.pdb
REMARK  8 active torsions:
REMARK  status: ('A' for Active; 'I' for Inactive)
REMARK    1  A    between atoms: _5  and  _11
REMARK    2  A    between atoms: _19  and  _21
REMARK    3  A    between atoms: _22  and  _66
REMARK    4  A    between atoms: _27  and  _30
REMARK    5  A    between atoms: _32  and  _33
REMARK    6  A    between atoms: _38  and  _43
REMARK    7  A    between atoms: _43  and  _46
REMARK    8  A    between atoms: _53  and  _55
REMARK                            x       y       z     vdW  Elec       q    Type
REMARK                         _______ _______ _______ _____ _____    ______ ____
ROOT
ATOM     10  C   UNL     1      61.119  18.573  88.264  0.00  0.00    +0.038 A 
ATOM     11  C   UNL     1      60.001  18.857  89.088  0.00  0.00    +0.047 A 
ATOM     12  C   UNL     1      58.642  18.697  88.595  0.00  0.00    +0.035 A 
ATOM     32  C   UNL     1      58.458  18.242  87.257  0.00  0.00    +0.024 A 
ATOM     33  C   UNL     1      59.583  17.949  86.404  0.00  0.00    +0.007 A 
ATOM     34  C   UNL     1      60.926  18.107  86.885  0.00  0.00    -0.029 A 
ATOM     35  C   UNL     1      62.095  17.784  85.925  0.00  0.00    +0.045 C 
ENDROOT
BRANCH  10   9
ATOM      4  C   UNL     1      64.684  21.332  89.911  0.00  0.00    +0.077 A 
ATOM      5  C   UNL     1      63.938  22.535  89.682  0.00  0.00    +0.048 A 
ATOM      6  C   UNL     1      62.643  22.401  89.132  0.00  0.00    +0.116 A 
ATOM      7  N   UNL     1      62.142  21.152  88.837  0.00  0.00    -0.223 NA
ATOM      8  C   UNL     1      62.889  20.011  89.070  0.00  0.00    +0.220 A 
ATOM      9  N   UNL     1      62.402  18.744  88.789  0.00  0.00    -0.283 N 
ATOM     36  H   UNL     1      62.986  17.928  88.967  0.00  0.00    +0.155 HD
ATOM     37  N   UNL     1      64.128  20.113  89.593  0.00  0.00    -0.214 NA
BRANCH   4   3
ATOM      1  C   UNL     1      68.376  20.325  90.722  0.00  0.00    +0.020 A 
ATOM      2  C   UNL     1      67.056  20.302  90.135  0.00  0.00    +0.013 A 
ATOM      3  C   UNL     1      66.065  21.309  90.490  0.00  0.00    +0.019 A 
ATOM     38  C   UNL     1      66.443  22.334  91.451  0.00  0.00    +0.120 A 
ATOM     39  N   UNL     1      67.721  22.331  92.002  0.00  0.00    -0.263 NA
ATOM     40  C   UNL     1      68.683  21.366  91.668  0.00  0.00    +0.111 A 
ENDBRANCH   4   3
ENDBRANCH  10   9
BRANCH  12  13
ATOM     13  N   UNL     1      57.468  18.979  89.383  0.00  0.00    -0.281 N 
ATOM     14  C   UNL     1      56.928  18.219  90.408  0.00  0.00    +0.248 C 
ATOM     30  O   UNL     1      57.253  17.068  90.660  0.00  0.00    -0.270 OA
ATOM     31  H   UNL     1      56.975  19.843  89.159  0.00  0.00    +0.155 HD
BRANCH  14  15
ATOM     15  C   UNL     1      55.862  18.818  91.267  0.00  0.00    +0.037 A 
ATOM     16  C   UNL     1      56.018  18.908  92.721  0.00  0.00    +0.013 A 
ATOM     17  C   UNL     1      54.968  19.475  93.528  0.00  0.00    +0.005 A 
ATOM     18  C   UNL     1      53.750  19.959  92.882  0.00  0.00    -0.033 A 
ATOM     28  C   UNL     1      53.623  19.863  91.437  0.00  0.00    +0.005 A 
ATOM     29  C   UNL     1      54.650  19.306  90.643  0.00  0.00    +0.013 A 
BRANCH  18  19
ATOM     19  C   UNL     1      52.569  20.560  93.666  0.00  0.00    +0.119 C 
BRANCH  19  20
ATOM     20  N   UNL     1      52.850  21.754  94.518  0.00  0.00    -0.302 NA
ATOM     21  C   UNL     1      51.629  22.175  95.340  0.00  0.00    +0.066 C 
ATOM     22  C   UNL     1      51.948  23.411  96.242  0.00  0.00    -0.064 C 
ATOM     23  N   UNL     1      52.435  24.566  95.366  0.00  0.00    +0.379 N 
ATOM     24  C   UNL     1      52.681  25.748  96.205  0.00  0.00    -0.096 C 
ATOM     25  H   UNL     1      51.615  24.820  94.655  0.00  0.00    -0.082 HD
ATOM     26  C   UNL     1      53.648  24.156  94.544  0.00  0.00    -0.064 C 
ATOM     27  C   UNL     1      53.329  22.908  93.673  0.00  0.00    +0.066 C 
ENDBRANCH  19  20
ENDBRANCH  18  19
ENDBRANCH  14  15
ENDBRANCH  12  13
TORSDOF 6
ENDMDL
MODEL 2
REMARK VINA RESULT:      -8.9      6.082     12.967
REMARK  Name = C:\Users\Docking\Desktop\test protocol\1iep_ligandH.pdb
REMARK  8 active torsions:
REMARK  status: ('A' for Active; 'I' for Inactive)
REMARK    1  A    between atoms: _5  and  _11
REMARK    2  A    between atoms: _19  and  _21
REMARK    3  A    between atoms: _22  and  _66
REMARK    4  A    between atoms: _27  and  _30
REMARK    5  A    between atoms: _32  and  _33
REMARK    6  A    between atoms: _38  and  _43
REMARK    7  A    between atoms: _43  and  _46
REMARK    8  A    between atoms: _53  and  _55
REMARK                            x       y       z     vdW  Elec       q    Type
REMARK                         _______ _______ _______ _____ _____    ______ ____
ROOT
ATOM     10  C   UNL     1      62.086  21.208  89.753  0.00  0.00    +0.038 A 
ATOM     11  C   UNL     1      63.052  20.495  90.508  0.00  0.00    +0.047 A 
ATOM     12  C   UNL     1      64.082  21.193  91.262  0.00  0.00    +0.035 A 
ATOM     32  C   UNL     1      64.097  22.618  91.227  0.00  0.00    +0.024 A 
ATOM     33  C   UNL     1      63.123  23.358  90.464  0.00  0.00    +0.007 A 
ATOM     34  C   UNL     1      62.106  22.676  89.716  0.00  0.00    -0.029 A 
ATOM     35  C   UNL     1      61.091  23.520  88.911  0.00  0.00    +0.045 C 
ENDROOT
BRANCH  10   9
ATOM      4  C   UNL     1      60.775  17.696  86.756  0.00  0.00    +0.077 A 
ATOM      5  C   UNL     1      62.133  17.278  86.557  0.00  0.00    +0.048 A 
ATOM      6  C   UNL     1      63.139  17.998  87.239  0.00  0.00    +0.116 A 
ATOM      7  N   UNL     1      62.802  19.055  88.056  0.00  0.00    -0.223 NA
ATOM      8  C   UNL     1      61.482  19.433  88.224  0.00  0.00    +0.220 A 
ATOM      9  N   UNL     1      61.119  20.488  89.048  0.00  0.00    -0.283 N 
ATOM     36  H   UNL     1      60.136  20.740  89.139  0.00  0.00    +0.155 HD
ATOM     37  N   UNL     1      60.503  18.762  87.583  0.00  0.00    -0.214 NA
BRANCH   4   3
ATOM      1  C   UNL     1      58.519  15.726  84.239  0.00  0.00    +0.020 A 
ATOM      2  C   UNL     1      59.685  16.350  84.822  0.00  0.00    +0.013 A 
ATOM      3  C   UNL     1      59.600  17.033  86.107  0.00  0.00    +0.019 A 
ATOM     38  C   UNL     1      58.311  17.066  86.782  0.00  0.00    +0.120 A 
ATOM     39  N   UNL     1      57.205  16.457  86.195  0.00  0.00    -0.263 NA
ATOM     40  C   UNL     1      57.275  15.798  84.959  0.00  0.00    +0.111 A 
ENDBRANCH   4   3
ENDBRANCH  10   9
BRANCH  12  13
ATOM     13  N   UNL     1      65.094  20.522  92.040  0.00  0.00    -0.281 N 
ATOM     14  C   UNL     1      66.363  20.138  91.636  0.00  0.00    +0.248 C 
ATOM     30  O   UNL     1      66.744  20.122  90.475  0.00  0.00    -0.270 OA
ATOM     31  H   UNL     1      64.845  20.305  93.005  0.00  0.00    +0.155 HD
BRANCH  14  15
ATOM     15  C   UNL     1      67.346  19.694  92.671  0.00  0.00    +0.037 A 
ATOM     16  C   UNL     1      67.663  20.535  93.828  0.00  0.00    +0.013 A 
ATOM     17  C   UNL     1      68.628  20.090  94.802  0.00  0.00    +0.005 A 
ATOM     18  C   UNL     1      69.281  18.795  94.624  0.00  0.00    -0.033 A 
ATOM     28  C   UNL     1      68.943  17.979  93.470  0.00  0.00    +0.005 A 
ATOM     29  C   UNL     1      67.999  18.412  92.512  0.00  0.00    +0.013 A 
BRANCH  18  19
ATOM     19  C   UNL     1      70.338  18.250  95.603  0.00  0.00    +0.119 C 
BRANCH  19  20
ATOM     20  N   UNL     1      71.722  18.799  95.490  0.00  0.00    -0.302 NA
ATOM     21  C   UNL     1      72.687  17.797  94.851  0.00  0.00    +0.066 C 
ATOM     22  C   UNL     1      74.125  18.396  94.720  0.00  0.00    -0.064 C 
ATOM     23  N   UNL     1      74.624  18.823  96.102  0.00  0.00    +0.379 N 
ATOM     24  C   UNL     1      75.999  19.334  95.991  0.00  0.00    -0.096 C 
ATOM     25  H   UNL     1      74.652  17.915  96.747  0.00  0.00    -0.082 HD
ATOM     26  C   UNL     1      73.669  19.818  96.745  0.00  0.00    -0.064 C 
ATOM     27  C   UNL     1      72.236  19.224  96.844  0.00  0.00    +0.066 C 
ENDBRANCH  19  20
ENDBRANCH  18  19
ENDBRANCH  14  15
ENDBRANCH  12  13
TORSDOF 6
ENDMDL
MODEL 3
REMARK VINA RESULT:      -8.1      5.243     12.632
REMARK  Name = C:\Users\Docking\Desktop\test protocol\1iep_ligandH.pdb
REMARK  8 active torsions:
REMARK  status: ('A' for Active; 'I' for Inactive)
REMARK    1  A    between atoms: _5  and  _11
REMARK    2  A    between atoms: _19  and  _21
REMARK    3  A    between atoms: _22  and  _66
REMARK    4  A    between atoms: _27  and  _30
REMARK    5  A    between atoms: _32  and  _33
REMARK    6  A    between atoms: _38  and  _43
REMARK    7  A    between atoms: _43  and  _46
REMARK    8  A    between atoms: _53  and  _55
REMARK                            x       y       z     vdW  Elec       q    Type
REMARK                         _______ _______ _______ _____ _____    ______ ____
ROOT
ATOM     10  C   UNL     1      63.037  21.250  89.434  0.00  0.00    +0.038 A 
ATOM     11  C   UNL     1      64.020  20.795  90.349  0.00  0.00    +0.047 A 
ATOM     12  C   UNL     1      64.578  21.683  91.357  0.00  0.00    +0.035 A 
ATOM     32  C   UNL     1      64.109  23.028  91.407  0.00  0.00    +0.024 A 
ATOM     33  C   UNL     1      63.110  23.507  90.483  0.00  0.00    +0.007 A 
ATOM     34  C   UNL     1      62.559  22.637  89.485  0.00  0.00    -0.029 A 
ATOM     35  C   UNL     1      61.496  23.206  88.517  0.00  0.00    +0.045 C 
ENDROOT
BRANCH  10   9
ATOM      4  C   UNL     1      59.562  18.431  87.696  0.00  0.00    +0.077 A 
ATOM      5  C   UNL     1      58.680  18.749  88.781  0.00  0.00    +0.048 A 
ATOM      6  C   UNL     1      59.161  19.636  89.770  0.00  0.00    +0.116 A 
ATOM      7  N   UNL     1      60.432  20.161  89.670  0.00  0.00    -0.223 NA
ATOM      8  C   UNL     1      61.257  19.832  88.611  0.00  0.00    +0.220 A 
ATOM      9  N   UNL     1      62.536  20.354  88.486  0.00  0.00    -0.283 N 
ATOM     36  H   UNL     1      63.117  20.081  87.694  0.00  0.00    +0.155 HD
ATOM     37  N   UNL     1      60.822  18.986  87.654  0.00  0.00    -0.214 NA
BRANCH   4   3
ATOM      1  C   UNL     1      59.752  16.180  84.503  0.00  0.00    +0.020 A 
ATOM      2  C   UNL     1      60.156  17.069  85.568  0.00  0.00    +0.013 A 
ATOM      3  C   UNL     1      59.197  17.512  86.572  0.00  0.00    +0.019 A 
ATOM     38  C   UNL     1      57.827  17.034  86.469  0.00  0.00    +0.120 A 
ATOM     39  N   UNL     1      57.466  16.179  85.432  0.00  0.00    -0.263 NA
ATOM     40  C   UNL     1      58.380  15.747  84.459  0.00  0.00    +0.111 A 
ENDBRANCH   4   3
ENDBRANCH  10   9
BRANCH  12  13
ATOM     13  N   UNL     1      65.584  21.280  92.308  0.00  0.00    -0.281 N 
ATOM     14  C   UNL     1      65.887  19.997  92.735  0.00  0.00    +0.248 C 
ATOM     30  O   UNL     1      65.191  19.015  92.522  0.00  0.00    -0.270 OA
ATOM     31  H   UNL     1      66.140  22.031  92.716  0.00  0.00    +0.155 HD
BRANCH  14  15
ATOM     15  C   UNL     1      67.137  19.775  93.524  0.00  0.00    +0.037 A 
ATOM     16  C   UNL     1      68.205  20.778  93.555  0.00  0.00    +0.013 A 
ATOM     17  C   UNL     1      69.407  20.531  94.311  0.00  0.00    +0.005 A 
ATOM     18  C   UNL     1      69.547  19.276  95.044  0.00  0.00    -0.033 A 
ATOM     28  C   UNL     1      68.469  18.301  95.001  0.00  0.00    +0.005 A 
ATOM     29  C   UNL     1      67.290  18.538  94.261  0.00  0.00    +0.013 A 
BRANCH  18  19
ATOM     19  C   UNL     1      70.803  18.919  95.860  0.00  0.00    +0.119 C 
BRANCH  19  20
ATOM     20  N   UNL     1      71.458  20.023  96.625  0.00  0.00    -0.302 NA
ATOM     21  C   UNL     1      72.877  20.305  96.124  0.00  0.00    +0.066 C 
ATOM     22  C   UNL     1      73.539  21.477  96.919  0.00  0.00    -0.064 C 
ATOM     23  N   UNL     1      73.549  21.136  98.410  0.00  0.00    +0.379 N 
ATOM     24  C   UNL     1      74.222  22.210  99.155  0.00  0.00    -0.096 C 
ATOM     25  H   UNL     1      74.150  20.206  98.540  0.00  0.00    -0.082 HD
ATOM     26  C   UNL     1      72.142  20.851  98.916  0.00  0.00    -0.064 C 
ATOM     27  C   UNL     1      71.483  19.704  98.099  0.00  0.00    +0.066 C 
ENDBRANCH  19  20
ENDBRANCH  18  19
ENDBRANCH  14  15
ENDBRANCH  12  13
TORSDOF 6
ENDMDL
MODEL 4
REMARK VINA RESULT:      -8.0     22.748     26.833
REMARK  Name = C:\Users\Docking\Desktop\test protocol\1iep_ligandH.pdb
REMARK  8 active torsions:
REMARK  status: ('A' for Active; 'I' for Inactive)
REMARK    1  A    between atoms: _5  and  _11
REMARK    2  A    between atoms: _19  and  _21
REMARK    3  A    between atoms: _22  and  _66
REMARK    4  A    between atoms: _27  and  _30
REMARK    5  A    between atoms: _32  and  _33
REMARK    6  A    between atoms: _38  and  _43
REMARK    7  A    between atoms: _43  and  _46
REMARK    8  A    between atoms: _53  and  _55
REMARK                            x       y       z     vdW  Elec       q    Type
REMARK                         _______ _______ _______ _____ _____    ______ ____
ROOT
ATOM     10  C   UNL     1      82.824   5.164  96.858  0.00  0.00    +0.038 A 
ATOM     11  C   UNL     1      81.541   5.095  96.258  0.00  0.00    +0.047 A 
ATOM     12  C   UNL     1      81.309   4.291  95.069  0.00  0.00    +0.035 A 
ATOM     32  C   UNL     1      82.406   3.568  94.517  0.00  0.00    +0.024 A 
ATOM     33  C   UNL     1      83.718   3.627  95.113  0.00  0.00    +0.007 A 
ATOM     34  C   UNL     1      83.953   4.421  96.285  0.00  0.00    -0.029 A 
ATOM     35  C   UNL     1      85.381   4.453  96.878  0.00  0.00    +0.045 C 
ENDROOT
BRANCH  10   9
ATOM      4  C   UNL     1      83.998   9.284  99.023  0.00  0.00    +0.077 A 
ATOM      5  C   UNL     1      84.334   9.912  97.778  0.00  0.00    +0.048 A 
ATOM      6  C   UNL     1      84.197   9.138  96.603  0.00  0.00    +0.116 A 
ATOM      7  N   UNL     1      83.757   7.834  96.681  0.00  0.00    -0.223 NA
ATOM      8  C   UNL     1      83.443   7.259  97.898  0.00  0.00    +0.220 A 
ATOM      9  N   UNL     1      82.991   5.952  97.999  0.00  0.00    -0.283 N 
ATOM     36  H   UNL     1      82.777   5.562  98.917  0.00  0.00    +0.155 HD
ATOM     37  N   UNL     1      83.567   7.976  99.034  0.00  0.00    -0.214 NA
BRANCH   4   3
ATOM      1  C   UNL     1      85.363  10.764 102.377  0.00  0.00    +0.020 A 
ATOM      2  C   UNL     1      85.331  10.088 101.100  0.00  0.00    +0.013 A 
ATOM      3  C   UNL     1      84.087   9.972 100.350  0.00  0.00    +0.019 A 
ATOM     38  C   UNL     1      82.884  10.556 100.923  0.00  0.00    +0.120 A 
ATOM     39  N   UNL     1      82.945  11.200 102.155  0.00  0.00    -0.263 NA
ATOM     40  C   UNL     1      84.136  11.316 102.887  0.00  0.00    +0.111 A 
ENDBRANCH   4   3
ENDBRANCH  10   9
BRANCH  12  13
ATOM     13  N   UNL     1      80.029   4.189  94.411  0.00  0.00    -0.281 N 
ATOM     14  C   UNL     1      78.857   4.860  94.719  0.00  0.00    +0.248 C 
ATOM     30  O   UNL     1      78.675   5.495  95.747  0.00  0.00    -0.270 OA
ATOM     31  H   UNL     1      79.982   3.543  93.623  0.00  0.00    +0.155 HD
BRANCH  14  15
ATOM     15  C   UNL     1      77.719   4.806  93.753  0.00  0.00    +0.037 A 
ATOM     16  C   UNL     1      77.056   6.028  93.290  0.00  0.00    +0.013 A 
ATOM     17  C   UNL     1      75.949   5.947  92.370  0.00  0.00    +0.005 A 
ATOM     18  C   UNL     1      75.499   4.637  91.906  0.00  0.00    -0.033 A 
ATOM     28  C   UNL     1      76.177   3.441  92.377  0.00  0.00    +0.005 A 
ATOM     29  C   UNL     1      77.262   3.517  93.279  0.00  0.00    +0.013 A 
BRANCH  18  19
ATOM     19  C   UNL     1      74.312   4.455  90.941  0.00  0.00    +0.119 C 
BRANCH  19  20
ATOM     20  N   UNL     1      74.629   4.080  89.531  0.00  0.00    -0.302 NA
ATOM     21  C   UNL     1      74.078   5.098  88.528  0.00  0.00    +0.066 C 
ATOM     22  C   UNL     1      74.438   4.702  87.059  0.00  0.00    -0.064 C 
ATOM     23  N   UNL     1      73.896   3.303  86.763  0.00  0.00    +0.379 N 
ATOM     24  C   UNL     1      74.182   2.952  85.365  0.00  0.00    -0.096 C 
ATOM     25  H   UNL     1      72.788   3.338  86.884  0.00  0.00    -0.082 HD
ATOM     26  C   UNL     1      74.436   2.285  87.757  0.00  0.00    -0.064 C 
ATOM     27  C   UNL     1      74.098   2.703  89.216  0.00  0.00    +0.066 C 
ENDBRANCH  19  20
ENDBRANCH  18  19
ENDBRANCH  14  15
ENDBRANCH  12  13
TORSDOF 6
ENDMDL
MODEL 5
REMARK VINA RESULT:      -8.0     28.892     31.883
REMARK  Name = C:\Users\Docking\Desktop\test protocol\1iep_ligandH.pdb
REMARK  8 active torsions:
REMARK  status: ('A' for Active; 'I' for Inactive)
REMARK    1  A    between atoms: _5  and  _11
REMARK    2  A    between atoms: _19  and  _21
REMARK    3  A    between atoms: _22  and  _66
REMARK    4  A    between atoms: _27  and  _30
REMARK    5  A    between atoms: _32  and  _33
REMARK    6  A    between atoms: _38  and  _43
REMARK    7  A    between atoms: _43  and  _46
REMARK    8  A    between atoms: _53  and  _55
REMARK                            x       y       z     vdW  Elec       q    Type
REMARK                         _______ _______ _______ _____ _____    ______ ____
ROOT
ATOM     10  C   UNL     1      29.499  17.354 100.317  0.00  0.00    +0.038 A 
ATOM     11  C   UNL     1      29.799  16.551  99.187  0.00  0.00    +0.047 A 
ATOM     12  C   UNL     1      29.058  15.329  98.916  0.00  0.00    +0.035 A 
ATOM     32  C   UNL     1      28.017  14.956  99.815  0.00  0.00    +0.024 A 
ATOM     33  C   UNL     1      27.700  15.760 100.969  0.00  0.00    +0.007 A 
ATOM     34  C   UNL     1      28.428  16.966 101.243  0.00  0.00    -0.029 A 
ATOM     35  C   UNL     1      28.050  17.786 102.498  0.00  0.00    +0.045 C 
ENDROOT
BRANCH  10   9
ATOM      4  C   UNL     1      30.310  22.038  99.654  0.00  0.00    +0.077 A 
ATOM      5  C   UNL     1      29.174  22.173  98.789  0.00  0.00    +0.048 A 
ATOM      6  C   UNL     1      28.410  21.012  98.535  0.00  0.00    +0.116 A 
ATOM      7  N   UNL     1      28.767  19.810  99.108  0.00  0.00    -0.223 NA
ATOM      8  C   UNL     1      29.870  19.714  99.936  0.00  0.00    +0.220 A 
ATOM      9  N   UNL     1      30.242  18.518 100.530  0.00  0.00    -0.283 N 
ATOM     36  H   UNL     1      31.067  18.487 101.128  0.00  0.00    +0.155 HD
ATOM     37  N   UNL     1      30.616  20.809 100.193  0.00  0.00    -0.214 NA
BRANCH   4   3
ATOM      1  C   UNL     1      32.164  24.834 101.666  0.00  0.00    +0.020 A 
ATOM      2  C   UNL     1      31.274  23.737 101.364  0.00  0.00    +0.013 A 
ATOM      3  C   UNL     1      31.213  23.175 100.021  0.00  0.00    +0.019 A 
ATOM     38  C   UNL     1      32.073  23.751  98.998  0.00  0.00    +0.120 A 
ATOM     39  N   UNL     1      32.919  24.808  99.318  0.00  0.00    -0.263 NA
ATOM     40  C   UNL     1      32.985  25.358 100.607  0.00  0.00    +0.111 A 
ENDBRANCH   4   3
ENDBRANCH  10   9
BRANCH  12  13
ATOM     13  N   UNL     1      29.323  14.468  97.789  0.00  0.00    -0.281 N 
ATOM     14  C   UNL     1      29.753  13.152  97.805  0.00  0.00    +0.248 C 
ATOM     30  O   UNL     1      30.183  12.577  98.795  0.00  0.00    -0.270 OA
ATOM     31  H   UNL     1      29.175  14.880  96.868  0.00  0.00    +0.155 HD
BRANCH  14  15
ATOM     15  C   UNL     1      29.713  12.363  96.536  0.00  0.00    +0.037 A 
ATOM     16  C   UNL     1      29.712  10.898  96.551  0.00  0.00    +0.013 A 
ATOM     17  C   UNL     1      29.691  10.162  95.312  0.00  0.00    +0.005 A 
ATOM     18  C   UNL     1      29.669  10.891  94.046  0.00  0.00    -0.033 A 
ATOM     28  C   UNL     1      29.665  12.345  94.061  0.00  0.00    +0.005 A 
ATOM     29  C   UNL     1      29.687  13.070  95.273  0.00  0.00    +0.013 A 
BRANCH  18  19
ATOM     19  C   UNL     1      29.666  10.188  92.676  0.00  0.00    +0.119 C 
BRANCH  19  20
ATOM     20  N   UNL     1      29.146  10.964  91.511  0.00  0.00    -0.302 NA
ATOM     21  C   UNL     1      27.926  10.294  90.873  0.00  0.00    +0.066 C 
ATOM     22  C   UNL     1      27.382  11.130  89.669  0.00  0.00    -0.064 C 
ATOM     23  N   UNL     1      28.496  11.320  88.638  0.00  0.00    +0.379 N 
ATOM     24  C   UNL     1      27.972  12.056  87.479  0.00  0.00    -0.096 C 
ATOM     25  H   UNL     1      28.806  10.309  88.285  0.00  0.00    -0.082 HD
ATOM     26  C   UNL     1      29.714  11.984  89.265  0.00  0.00    -0.064 C 
ATOM     27  C   UNL     1      30.229  11.160  90.478  0.00  0.00    +0.066 C 
ENDBRANCH  19  20
ENDBRANCH  18  19
ENDBRANCH  14  15
ENDBRANCH  12  13
TORSDOF 6
ENDMDL
