MODEL 1
REMARK VINA RESULT:      -7.7      0.000      0.000
REMARK  Name = C:\Users\Docking\Desktop\test protocol\1iep_ligandH.pdb
REMARK  8 active torsions:
REMARK  status: ('A' for Active; 'I' for Inactive)
REMARK    1  A    between atoms: _5  and  _11
REMARK    2  A    between atoms: _19  and  _21
REMARK    3  A    between atoms: _22  and  _66
REMARK    4  A    between atoms: _27  and  _30
REMARK    5  A    between atoms: _32  and  _33
REMARK    6  A    between atoms: _38  and  _43
REMARK    7  A    between atoms: _43  and  _46
REMARK    8  A    between atoms: _53  and  _55
REMARK                            x       y       z     vdW  Elec       q    Type
REMARK                         _______ _______ _______ _____ _____    ______ ____
ROOT
ATOM     10  C   UNL     1      54.762  17.479  90.189  0.00  0.00    +0.038 A 
ATOM     11  C   UNL     1      56.148  17.611  89.915  0.00  0.00    +0.047 A 
ATOM     12  C   UNL     1      56.865  18.835  90.233  0.00  0.00    +0.035 A 
ATOM     32  C   UNL     1      56.140  19.906  90.832  0.00  0.00    +0.024 A 
ATOM     33  C   UNL     1      54.731  19.790  91.117  0.00  0.00    +0.007 A 
ATOM     34  C   UNL     1      54.018  18.585  90.803  0.00  0.00    -0.029 A 
ATOM     35  C   UNL     1      52.507  18.519  91.124  0.00  0.00    +0.045 C 
ENDROOT
BRANCH  10   9
ATOM      4  C   UNL     1      52.510  14.591  87.087  0.00  0.00    +0.077 A 
ATOM      5  C   UNL     1      52.588  15.562  86.034  0.00  0.00    +0.048 A 
ATOM      6  C   UNL     1      53.210  16.795  86.334  0.00  0.00    +0.116 A 
ATOM      7  N   UNL     1      53.712  17.028  87.596  0.00  0.00    -0.223 NA
ATOM      8  C   UNL     1      53.618  16.071  88.589  0.00  0.00    +0.220 A 
ATOM      9  N   UNL     1      54.124  16.281  89.863  0.00  0.00    -0.283 N 
ATOM     36  H   UNL     1      54.028  15.552  90.569  0.00  0.00    +0.155 HD
ATOM     37  N   UNL     1      53.028  14.886  88.328  0.00  0.00    -0.214 NA
BRANCH   4   3
ATOM      1  C   UNL     1      50.396  11.595  85.725  0.00  0.00    +0.020 A 
ATOM      2  C   UNL     1      50.971  12.915  85.837  0.00  0.00    +0.013 A 
ATOM      3  C   UNL     1      51.886  13.240  86.924  0.00  0.00    +0.019 A 
ATOM     38  C   UNL     1      52.202  12.196  87.888  0.00  0.00    +0.120 A 
ATOM     39  N   UNL     1      51.632  10.934  87.756  0.00  0.00    -0.263 NA
ATOM     40  C   UNL     1      50.749  10.611  86.715  0.00  0.00    +0.111 A 
ENDBRANCH   4   3
ENDBRANCH  10   9
BRANCH  12  13
ATOM     13  N   UNL     1      58.269  19.030  89.970  0.00  0.00    -0.281 N 
ATOM     14  C   UNL     1      59.346  18.467  90.636  0.00  0.00    +0.248 C 
ATOM     30  O   UNL     1      59.266  17.874  91.702  0.00  0.00    -0.270 OA
ATOM     31  H   UNL     1      58.497  19.658  89.200  0.00  0.00    +0.155 HD
BRANCH  14  15
ATOM     15  C   UNL     1      60.710  18.594  90.040  0.00  0.00    +0.037 A 
ATOM     16  C   UNL     1      61.017  18.036  88.720  0.00  0.00    +0.013 A 
ATOM     17  C   UNL     1      62.346  18.157  88.175  0.00  0.00    +0.005 A 
ATOM     18  C   UNL     1      63.378  18.841  88.950  0.00  0.00    -0.033 A 
ATOM     28  C   UNL     1      63.045  19.389  90.254  0.00  0.00    +0.005 A 
ATOM     29  C   UNL     1      61.744  19.272  90.792  0.00  0.00    +0.013 A 
BRANCH  18  19
ATOM     19  C   UNL     1      64.829  18.998  88.456  0.00  0.00    +0.119 C 
BRANCH  19  20
ATOM     20  N   UNL     1      65.084  18.770  87.003  0.00  0.00    -0.302 NA
ATOM     21  C   UNL     1      66.094  17.643  86.767  0.00  0.00    +0.066 C 
ATOM     22  C   UNL     1      66.332  17.402  85.240  0.00  0.00    -0.064 C 
ATOM     23  N   UNL     1      66.811  18.702  84.591  0.00  0.00    +0.379 N 
ATOM     24  C   UNL     1      67.092  18.465  83.168  0.00  0.00    -0.096 C 
ATOM     25  H   UNL     1      67.769  18.992  85.081  0.00  0.00    -0.082 HD
ATOM     26  C   UNL     1      65.814  19.829  84.823  0.00  0.00    -0.064 C 
ATOM     27  C   UNL     1      65.562  20.040  86.342  0.00  0.00    +0.066 C 
ENDBRANCH  19  20
ENDBRANCH  18  19
ENDBRANCH  14  15
ENDBRANCH  12  13
TORSDOF 6
ENDMDL
MODEL 2
REMARK VINA RESULT:      -7.4      6.490      9.737
REMARK  Name = C:\Users\Docking\Desktop\test protocol\1iep_ligandH.pdb
REMARK  8 active torsions:
REMARK  status: ('A' for Active; 'I' for Inactive)
REMARK    1  A    between atoms: _5  and  _11
REMARK    2  A    between atoms: _19  and  _21
REMARK    3  A    between atoms: _22  and  _66
REMARK    4  A    between atoms: _27  and  _30
REMARK    5  A    between atoms: _32  and  _33
REMARK    6  A    between atoms: _38  and  _43
REMARK    7  A    between atoms: _43  and  _46
REMARK    8  A    between atoms: _53  and  _55
REMARK                            x       y       z     vdW  Elec       q    Type
REMARK                         _______ _______ _______ _____ _____    ______ ____
ROOT
ATOM     10  C   UNL     1      62.138  20.352  89.464  0.00  0.00    +0.038 A 
ATOM     11  C   UNL     1      63.165  19.923  90.344  0.00  0.00    +0.047 A 
ATOM     12  C   UNL     1      64.473  20.557  90.340  0.00  0.00    +0.035 A 
ATOM     32  C   UNL     1      64.702  21.629  89.429  0.00  0.00    +0.024 A 
ATOM     33  C   UNL     1      63.671  22.078  88.527  0.00  0.00    +0.007 A 
ATOM     34  C   UNL     1      62.378  21.454  88.524  0.00  0.00    -0.029 A 
ATOM     35  C   UNL     1      61.312  21.973  87.531  0.00  0.00    +0.045 C 
ENDROOT
BRANCH  10   9
ATOM      4  C   UNL     1      57.746  19.749  91.304  0.00  0.00    +0.077 A 
ATOM      5  C   UNL     1      57.945  20.789  92.272  0.00  0.00    +0.048 A 
ATOM      6  C   UNL     1      59.194  21.449  92.268  0.00  0.00    +0.116 A 
ATOM      7  N   UNL     1      60.165  21.089  91.359  0.00  0.00    -0.223 NA
ATOM      8  C   UNL     1      59.941  20.081  90.439  0.00  0.00    +0.220 A 
ATOM      9  N   UNL     1      60.900  19.708  89.510  0.00  0.00    -0.283 N 
ATOM     36  H   UNL     1      60.700  18.954  88.854  0.00  0.00    +0.155 HD
ATOM     37  N   UNL     1      58.757  19.434  90.424  0.00  0.00    -0.214 NA
BRANCH   4   3
ATOM      1  C   UNL     1      54.067  18.700  90.489  0.00  0.00    +0.020 A 
ATOM      2  C   UNL     1      55.264  19.503  90.584  0.00  0.00    +0.013 A 
ATOM      3  C   UNL     1      56.479  18.961  91.180  0.00  0.00    +0.019 A 
ATOM     38  C   UNL     1      56.450  17.592  91.673  0.00  0.00    +0.120 A 
ATOM     39  N   UNL     1      55.282  16.843  91.568  0.00  0.00    -0.263 NA
ATOM     40  C   UNL     1      54.106  17.354  90.999  0.00  0.00    +0.111 A 
ENDBRANCH   4   3
ENDBRANCH  10   9
BRANCH  12  13
ATOM     13  N   UNL     1      65.557  20.158  91.204  0.00  0.00    -0.281 N 
ATOM     14  C   UNL     1      65.936  20.724  92.411  0.00  0.00    +0.248 C 
ATOM     30  O   UNL     1      65.532  21.799  92.827  0.00  0.00    -0.270 OA
ATOM     31  H   UNL     1      66.111  19.362  90.889  0.00  0.00    +0.155 HD
BRANCH  14  15
ATOM     15  C   UNL     1      66.918  19.997  93.272  0.00  0.00    +0.037 A 
ATOM     16  C   UNL     1      66.596  19.640  94.656  0.00  0.00    +0.013 A 
ATOM     17  C   UNL     1      67.568  18.954  95.470  0.00  0.00    +0.005 A 
ATOM     18  C   UNL     1      68.871  18.619  94.901  0.00  0.00    -0.033 A 
ATOM     28  C   UNL     1      69.162  18.981  93.524  0.00  0.00    +0.005 A 
ATOM     29  C   UNL     1      68.212  19.654  92.723  0.00  0.00    +0.013 A 
BRANCH  18  19
ATOM     19  C   UNL     1      69.976  17.907  95.704  0.00  0.00    +0.119 C 
BRANCH  19  20
ATOM     20  N   UNL     1      70.779  18.739  96.648  0.00  0.00    -0.302 NA
ATOM     21  C   UNL     1      72.230  18.259  96.746  0.00  0.00    +0.066 C 
ATOM     22  C   UNL     1      73.062  19.154  97.721  0.00  0.00    -0.064 C 
ATOM     23  N   UNL     1      72.398  19.156  99.099  0.00  0.00    +0.379 N 
ATOM     24  C   UNL     1      73.210  19.949 100.033  0.00  0.00    -0.096 C 
ATOM     25  H   UNL     1      72.387  18.104  99.470  0.00  0.00    -0.082 HD
ATOM     26  C   UNL     1      70.954  19.630  99.011  0.00  0.00    -0.064 C 
ATOM     27  C   UNL     1      70.144  18.751  98.017  0.00  0.00    +0.066 C 
ENDBRANCH  19  20
ENDBRANCH  18  19
ENDBRANCH  14  15
ENDBRANCH  12  13
TORSDOF 6
ENDMDL
MODEL 3
REMARK VINA RESULT:      -7.3     19.712     24.661
REMARK  Name = C:\Users\Docking\Desktop\test protocol\1iep_ligandH.pdb
REMARK  8 active torsions:
REMARK  status: ('A' for Active; 'I' for Inactive)
REMARK    1  A    between atoms: _5  and  _11
REMARK    2  A    between atoms: _19  and  _21
REMARK    3  A    between atoms: _22  and  _66
REMARK    4  A    between atoms: _27  and  _30
REMARK    5  A    between atoms: _32  and  _33
REMARK    6  A    between atoms: _38  and  _43
REMARK    7  A    between atoms: _43  and  _46
REMARK    8  A    between atoms: _53  and  _55
REMARK                            x       y       z     vdW  Elec       q    Type
REMARK                         _______ _______ _______ _____ _____    ______ ____
ROOT
ATOM     10  C   UNL     1      76.105   3.970  90.075  0.00  0.00    +0.038 A 
ATOM     11  C   UNL     1      77.026   4.504  91.012  0.00  0.00    +0.047 A 
ATOM     12  C   UNL     1      77.878   3.636  91.809  0.00  0.00    +0.035 A 
ATOM     32  C   UNL     1      77.768   2.227  91.624  0.00  0.00    +0.024 A 
ATOM     33  C   UNL     1      76.836   1.666  90.676  0.00  0.00    +0.007 A 
ATOM     34  C   UNL     1      75.992   2.518  89.889  0.00  0.00    -0.029 A 
ATOM     35  C   UNL     1      75.007   1.862  88.893  0.00  0.00    +0.045 C 
ENDROOT
BRANCH  10   9
ATOM      4  C   UNL     1      72.675   7.310  89.739  0.00  0.00    +0.077 A 
ATOM      5  C   UNL     1      72.424   7.279  91.151  0.00  0.00    +0.048 A 
ATOM      6  C   UNL     1      73.194   6.385  91.927  0.00  0.00    +0.116 A 
ATOM      7  N   UNL     1      74.142   5.586  91.326  0.00  0.00    -0.223 NA
ATOM      8  C   UNL     1      74.358   5.639  89.961  0.00  0.00    +0.220 A 
ATOM      9  N   UNL     1      75.311   4.851  89.336  0.00  0.00    -0.283 N 
ATOM     36  H   UNL     1      75.435   4.914  88.326  0.00  0.00    +0.155 HD
ATOM     37  N   UNL     1      73.634   6.484  89.197  0.00  0.00    -0.214 NA
BRANCH   4   3
ATOM      1  C   UNL     1      71.232   8.894  86.466  0.00  0.00    +0.020 A 
ATOM      2  C   UNL     1      71.955   8.002  87.342  0.00  0.00    +0.013 A 
ATOM      3  C   UNL     1      71.944   8.205  88.786  0.00  0.00    +0.019 A 
ATOM     38  C   UNL     1      71.187   9.329  89.314  0.00  0.00    +0.120 A 
ATOM     39  N   UNL     1      70.502  10.173  88.445  0.00  0.00    -0.263 NA
ATOM     40  C   UNL     1      70.506   9.989  87.055  0.00  0.00    +0.111 A 
ENDBRANCH   4   3
ENDBRANCH  10   9
BRANCH  12  13
ATOM     13  N   UNL     1      78.826   4.121  92.781  0.00  0.00    -0.281 N 
ATOM     14  C   UNL     1      78.617   4.354  94.131  0.00  0.00    +0.248 C 
ATOM     30  O   UNL     1      77.518   4.384  94.665  0.00  0.00    -0.270 OA
ATOM     31  H   UNL     1      79.764   4.315  92.433  0.00  0.00    +0.155 HD
BRANCH  14  15
ATOM     15  C   UNL     1      79.798   4.605  95.011  0.00  0.00    +0.037 A 
ATOM     16  C   UNL     1      81.155   4.671  94.462  0.00  0.00    +0.013 A 
ATOM     17  C   UNL     1      82.279   4.897  95.336  0.00  0.00    +0.005 A 
ATOM     18  C   UNL     1      82.050   5.060  96.770  0.00  0.00    -0.033 A 
ATOM     28  C   UNL     1      80.693   4.995  97.287  0.00  0.00    +0.005 A 
ATOM     29  C   UNL     1      79.589   4.773  96.434  0.00  0.00    +0.013 A 
BRANCH  18  19
ATOM     19  C   UNL     1      83.192   5.284  97.779  0.00  0.00    +0.119 C 
BRANCH  19  20
ATOM     20  N   UNL     1      84.553   4.809  97.388  0.00  0.00    -0.302 NA
ATOM     21  C   UNL     1      84.850   3.408  97.931  0.00  0.00    +0.066 C 
ATOM     22  C   UNL     1      86.269   2.918  97.493  0.00  0.00    -0.064 C 
ATOM     23  N   UNL     1      87.321   3.919  97.973  0.00  0.00    +0.379 N 
ATOM     24  C   UNL     1      88.661   3.432  97.614  0.00  0.00    -0.096 C 
ATOM     25  H   UNL     1      87.264   3.963  99.085  0.00  0.00    -0.082 HD
ATOM     26  C   UNL     1      87.032   5.315  97.440  0.00  0.00    -0.064 C 
ATOM     27  C   UNL     1      85.608   5.781  97.855  0.00  0.00    +0.066 C 
ENDBRANCH  19  20
ENDBRANCH  18  19
ENDBRANCH  14  15
ENDBRANCH  12  13
TORSDOF 6
ENDMDL
MODEL 4
REMARK VINA RESULT:      -7.3     28.657     33.918
REMARK  Name = C:\Users\Docking\Desktop\test protocol\1iep_ligandH.pdb
REMARK  8 active torsions:
REMARK  status: ('A' for Active; 'I' for Inactive)
REMARK    1  A    between atoms: _5  and  _11
REMARK    2  A    between atoms: _19  and  _21
REMARK    3  A    between atoms: _22  and  _66
REMARK    4  A    between atoms: _27  and  _30
REMARK    5  A    between atoms: _32  and  _33
REMARK    6  A    between atoms: _38  and  _43
REMARK    7  A    between atoms: _43  and  _46
REMARK    8  A    between atoms: _53  and  _55
REMARK                            x       y       z     vdW  Elec       q    Type
REMARK                         _______ _______ _______ _____ _____    ______ ____
ROOT
ATOM     10  C   UNL     1      33.087  -7.846  96.174  0.00  0.00    +0.038 A 
ATOM     11  C   UNL     1      33.995  -7.626  95.107  0.00  0.00    +0.047 A 
ATOM     12  C   UNL     1      35.366  -8.109  95.173  0.00  0.00    +0.035 A 
ATOM     32  C   UNL     1      35.777  -8.815  96.341  0.00  0.00    +0.024 A 
ATOM     33  C   UNL     1      34.867  -9.047  97.435  0.00  0.00    +0.007 A 
ATOM     34  C   UNL     1      33.515  -8.571  97.376  0.00  0.00    -0.029 A 
ATOM     35  C   UNL     1      32.585  -8.843  98.582  0.00  0.00    +0.045 C 
ENDROOT
BRANCH  10   9
ATOM      4  C   UNL     1      29.915  -4.252  95.933  0.00  0.00    +0.077 A 
ATOM      5  C   UNL     1      30.940  -3.259  96.080  0.00  0.00    +0.048 A 
ATOM      6  C   UNL     1      32.269  -3.715  96.222  0.00  0.00    +0.116 A 
ATOM      7  N   UNL     1      32.542  -5.066  96.216  0.00  0.00    -0.223 NA
ATOM      8  C   UNL     1      31.530  -5.997  96.074  0.00  0.00    +0.220 A 
ATOM      9  N   UNL     1      31.783  -7.360  96.056  0.00  0.00    -0.283 N 
ATOM     36  H   UNL     1      31.008  -8.015  95.957  0.00  0.00    +0.155 HD
ATOM     37  N   UNL     1      30.252  -5.587  95.938  0.00  0.00    -0.214 NA
BRANCH   4   3
ATOM      1  C   UNL     1      26.576  -2.479  94.930  0.00  0.00    +0.020 A 
ATOM      2  C   UNL     1      27.989  -2.746  95.060  0.00  0.00    +0.013 A 
ATOM      3  C   UNL     1      28.462  -3.928  95.770  0.00  0.00    +0.019 A 
ATOM     38  C   UNL     1      27.471  -4.827  96.341  0.00  0.00    +0.120 A 
ATOM     39  N   UNL     1      26.116  -4.543  96.201  0.00  0.00    -0.263 NA
ATOM     40  C   UNL     1      25.649  -3.408  95.521  0.00  0.00    +0.111 A 
ENDBRANCH   4   3
ENDBRANCH  10   9
BRANCH  12  13
ATOM     13  N   UNL     1      36.335  -7.908  94.125  0.00  0.00    -0.281 N 
ATOM     14  C   UNL     1      36.373  -8.504  92.875  0.00  0.00    +0.248 C 
ATOM     30  O   UNL     1      35.695  -9.467  92.547  0.00  0.00    -0.270 OA
ATOM     31  H   UNL     1      37.084  -7.246  94.329  0.00  0.00    +0.155 HD
BRANCH  14  15
ATOM     15  C   UNL     1      37.311  -7.962  91.845  0.00  0.00    +0.037 A 
ATOM     16  C   UNL     1      38.096  -6.750  92.094  0.00  0.00    +0.013 A 
ATOM     17  C   UNL     1      38.980  -6.239  91.077  0.00  0.00    +0.005 A 
ATOM     18  C   UNL     1      39.085  -6.942  89.801  0.00  0.00    -0.033 A 
ATOM     28  C   UNL     1      38.299  -8.145  89.582  0.00  0.00    +0.005 A 
ATOM     29  C   UNL     1      37.430  -8.648  90.576  0.00  0.00    +0.013 A 
BRANCH  18  19
ATOM     19  C   UNL     1      39.987  -6.456  88.650  0.00  0.00    +0.119 C 
BRANCH  19  20
ATOM     20  N   UNL     1      39.448  -5.381  87.766  0.00  0.00    -0.302 NA
ATOM     21  C   UNL     1      39.574  -3.995  88.404  0.00  0.00    +0.066 C 
ATOM     22  C   UNL     1      39.025  -2.879  87.456  0.00  0.00    -0.064 C 
ATOM     23  N   UNL     1      37.568  -3.183  87.105  0.00  0.00    +0.379 N 
ATOM     24  C   UNL     1      37.032  -2.106  86.260  0.00  0.00    -0.096 C 
ATOM     25  H   UNL     1      36.985  -3.190  88.055  0.00  0.00    -0.082 HD
ATOM     26  C   UNL     1      37.433  -4.561  86.472  0.00  0.00    -0.064 C 
ATOM     27  C   UNL     1      38.008  -5.659  87.410  0.00  0.00    +0.066 C 
ENDBRANCH  19  20
ENDBRANCH  18  19
ENDBRANCH  14  15
ENDBRANCH  12  13
TORSDOF 6
ENDMDL
MODEL 5
REMARK VINA RESULT:      -7.2     23.802     28.962
REMARK  Name = C:\Users\Docking\Desktop\test protocol\1iep_ligandH.pdb
REMARK  8 active torsions:
REMARK  status: ('A' for Active; 'I' for Inactive)
REMARK    1  A    between atoms: _5  and  _11
REMARK    2  A    between atoms: _19  and  _21
REMARK    3  A    between atoms: _22  and  _66
REMARK    4  A    between atoms: _27  and  _30
REMARK    5  A    between atoms: _32  and  _33
REMARK    6  A    between atoms: _38  and  _43
REMARK    7  A    between atoms: _43  and  _46
REMARK    8  A    between atoms: _53  and  _55
REMARK                            x       y       z     vdW  Elec       q    Type
REMARK                         _______ _______ _______ _____ _____    ______ ____
ROOT
ATOM     10  C   UNL     1      61.400  -6.905  79.018  0.00  0.00    +0.038 A 
ATOM     11  C   UNL     1      61.590  -8.143  79.684  0.00  0.00    +0.047 A 
ATOM     12  C   UNL     1      62.695  -9.022  79.335  0.00  0.00    +0.035 A 
ATOM     32  C   UNL     1      63.590  -8.608  78.306  0.00  0.00    +0.024 A 
ATOM     33  C   UNL     1      63.410  -7.353  77.619  0.00  0.00    +0.007 A 
ATOM     34  C   UNL     1      62.320  -6.483  77.956  0.00  0.00    -0.029 A 
ATOM     35  C   UNL     1      62.173  -5.152  77.182  0.00  0.00    +0.045 C 
ENDROOT
BRANCH  10   9
ATOM      4  C   UNL     1      59.500  -3.259  81.495  0.00  0.00    +0.077 A 
ATOM      5  C   UNL     1      60.756  -2.948  82.115  0.00  0.00    +0.048 A 
ATOM      6  C   UNL     1      61.864  -3.755  81.775  0.00  0.00    +0.116 A 
ATOM      7  N   UNL     1      61.717  -4.793  80.880  0.00  0.00    -0.223 NA
ATOM      8  C   UNL     1      60.491  -5.066  80.301  0.00  0.00    +0.220 A 
ATOM      9  N   UNL     1      60.321  -6.100  79.393  0.00  0.00    -0.283 N 
ATOM     36  H   UNL     1      59.399  -6.275  78.994  0.00  0.00    +0.155 HD
ATOM     37  N   UNL     1      59.417  -4.311  80.611  0.00  0.00    -0.214 NA
BRANCH   4   3
ATOM      1  C   UNL     1      55.997  -2.189  82.868  0.00  0.00    +0.020 A 
ATOM      2  C   UNL     1      57.197  -2.965  82.656  0.00  0.00    +0.013 A 
ATOM      3  C   UNL     1      58.237  -2.495  81.750  0.00  0.00    +0.019 A 
ATOM     38  C   UNL     1      58.030  -1.227  81.068  0.00  0.00    +0.120 A 
ATOM     39  N   UNL     1      56.863  -0.502  81.290  0.00  0.00    -0.263 NA
ATOM     40  C   UNL     1      55.855  -0.945  82.159  0.00  0.00    +0.111 A 
ENDBRANCH   4   3
ENDBRANCH  10   9
BRANCH  12  13
ATOM     13  N   UNL     1      62.934 -10.295  79.970  0.00  0.00    -0.281 N 
ATOM     14  C   UNL     1      63.167 -10.546  81.312  0.00  0.00    +0.248 C 
ATOM     30  O   UNL     1      63.417  -9.686  82.144  0.00  0.00    -0.270 OA
ATOM     31  H   UNL     1      62.932 -11.109  79.355  0.00  0.00    +0.155 HD
BRANCH  14  15
ATOM     15  C   UNL     1      63.129 -11.959  81.799  0.00  0.00    +0.037 A 
ATOM     16  C   UNL     1      63.742 -12.340  83.074  0.00  0.00    +0.013 A 
ATOM     17  C   UNL     1      63.707 -13.713  83.512  0.00  0.00    +0.005 A 
ATOM     18  C   UNL     1      63.054 -14.715  82.674  0.00  0.00    -0.033 A 
ATOM     28  C   UNL     1      62.450 -14.309  81.416  0.00  0.00    +0.005 A 
ATOM     29  C   UNL     1      62.483 -12.965  80.983  0.00  0.00    +0.013 A 
BRANCH  18  19
ATOM     19  C   UNL     1      62.988 -16.207  83.052  0.00  0.00    +0.119 C 
BRANCH  19  20
ATOM     20  N   UNL     1      61.714 -16.704  83.653  0.00  0.00    -0.302 NA
ATOM     21  C   UNL     1      60.744 -17.228  82.591  0.00  0.00    +0.066 C 
ATOM     22  C   UNL     1      59.426 -17.764  83.240  0.00  0.00    -0.064 C 
ATOM     23  N   UNL     1      58.777 -16.652  84.065  0.00  0.00    +0.379 N 
ATOM     24  C   UNL     1      57.508 -17.135  84.628  0.00  0.00    -0.096 C 
ATOM     25  H   UNL     1      58.541 -15.811  83.371  0.00  0.00    -0.082 HD
ATOM     26  C   UNL     1      59.736 -16.122  85.121  0.00  0.00    -0.064 C 
ATOM     27  C   UNL     1      61.054 -15.619  84.469  0.00  0.00    +0.066 C 
ENDBRANCH  19  20
ENDBRANCH  18  19
ENDBRANCH  14  15
ENDBRANCH  12  13
TORSDOF 6
ENDMDL
