MODEL 1
REMARK VINA RESULT:      -9.6      0.000      0.000
REMARK  Name = C:\Users\Docking\Desktop\test protocol\1iep_ligandH.pdb
REMARK  8 active torsions:
REMARK  status: ('A' for Active; 'I' for Inactive)
REMARK    1  A    between atoms: _5  and  _11
REMARK    2  A    between atoms: _19  and  _21
REMARK    3  A    between atoms: _22  and  _66
REMARK    4  A    between atoms: _27  and  _30
REMARK    5  A    between atoms: _32  and  _33
REMARK    6  A    between atoms: _38  and  _43
REMARK    7  A    between atoms: _43  and  _46
REMARK    8  A    between atoms: _53  and  _55
REMARK                            x       y       z     vdW  Elec       q    Type
REMARK                         _______ _______ _______ _____ _____    ______ ____
ROOT
ATOM     10  C   UNL     1     -14.256  -3.678  55.699  0.00  0.00    +0.038 A 
ATOM     11  C   UNL     1     -13.204  -2.771  55.986  0.00  0.00    +0.047 A 
ATOM     12  C   UNL     1     -12.187  -2.459  54.995  0.00  0.00    +0.035 A 
ATOM     32  C   UNL     1     -12.273  -3.087  53.718  0.00  0.00    +0.024 A 
ATOM     33  C   UNL     1     -13.334  -4.013  53.409  0.00  0.00    +0.007 A 
ATOM     34  C   UNL     1     -14.339  -4.326  54.384  0.00  0.00    -0.029 A 
ATOM     35  C   UNL     1     -15.451  -5.330  54.000  0.00  0.00    +0.045 C 
ENDROOT
BRANCH  10   9
ATOM      4  C   UNL     1     -15.856  -6.172  59.474  0.00  0.00    +0.077 A 
ATOM      5  C   UNL     1     -14.716  -7.043  59.457  0.00  0.00    +0.048 A 
ATOM      6  C   UNL     1     -13.744  -6.820  58.456  0.00  0.00    +0.116 A 
ATOM      7  N   UNL     1     -13.910  -5.799  57.545  0.00  0.00    -0.223 NA
ATOM      8  C   UNL     1     -15.022  -4.978  57.589  0.00  0.00    +0.220 A 
ATOM      9  N   UNL     1     -15.206  -3.940  56.688  0.00  0.00    -0.283 N 
ATOM     36  H   UNL     1     -16.044  -3.362  56.749  0.00  0.00    +0.155 HD
ATOM     37  N   UNL     1     -15.966  -5.172  58.534  0.00  0.00    -0.214 NA
BRANCH   4   3
ATOM      1  C   UNL     1     -19.155  -5.519  61.473  0.00  0.00    +0.020 A 
ATOM      2  C   UNL     1     -18.108  -5.372  60.488  0.00  0.00    +0.013 A 
ATOM      3  C   UNL     1     -16.967  -6.279  60.472  0.00  0.00    +0.019 A 
ATOM     38  C   UNL     1     -16.916  -7.333  61.474  0.00  0.00    +0.120 A 
ATOM     39  N   UNL     1     -17.937  -7.450  62.411  0.00  0.00    -0.263 NA
ATOM     40  C   UNL     1     -19.039  -6.582  62.437  0.00  0.00    +0.111 A 
ENDBRANCH   4   3
ENDBRANCH  10   9
BRANCH  12  13
ATOM     13  N   UNL     1     -11.091  -1.552  55.232  0.00  0.00    -0.281 N 
ATOM     14  C   UNL     1      -9.872  -1.828  55.831  0.00  0.00    +0.248 C 
ATOM     30  O   UNL     1      -9.621  -2.852  56.448  0.00  0.00    -0.270 OA
ATOM     31  H   UNL     1     -11.231  -0.591  54.922  0.00  0.00    +0.155 HD
BRANCH  14  15
ATOM     15  C   UNL     1      -8.779  -0.813  55.743  0.00  0.00    +0.037 A 
ATOM     16  C   UNL     1      -7.383  -1.174  56.004  0.00  0.00    +0.013 A 
ATOM     17  C   UNL     1      -6.350  -0.172  55.929  0.00  0.00    +0.005 A 
ATOM     18  C   UNL     1      -6.710   1.203  55.589  0.00  0.00    -0.033 A 
ATOM     28  C   UNL     1      -8.101   1.533  55.330  0.00  0.00    +0.005 A 
ATOM     29  C   UNL     1      -9.117   0.554  55.404  0.00  0.00    +0.013 A 
BRANCH  18  19
ATOM     19  C   UNL     1      -5.676   2.342  55.507  0.00  0.00    +0.119 C 
BRANCH  19  20
ATOM     20  N   UNL     1      -5.272   2.802  54.145  0.00  0.00    -0.302 NA
ATOM     21  C   UNL     1      -3.750   2.841  53.980  0.00  0.00    +0.066 C 
ATOM     22  C   UNL     1      -3.345   3.303  52.542  0.00  0.00    -0.064 C 
ATOM     23  N   UNL     1      -3.956   4.677  52.260  0.00  0.00    +0.379 N 
ATOM     24  C   UNL     1      -3.530   5.139  50.931  0.00  0.00    -0.096 C 
ATOM     25  H   UNL     1      -3.548   5.389  53.014  0.00  0.00    -0.082 HD
ATOM     26  C   UNL     1      -5.469   4.647  52.425  0.00  0.00    -0.064 C 
ATOM     27  C   UNL     1      -5.861   4.159  53.847  0.00  0.00    +0.066 C 
ENDBRANCH  19  20
ENDBRANCH  18  19
ENDBRANCH  14  15
ENDBRANCH  12  13
TORSDOF 6
ENDMDL
MODEL 2
REMARK VINA RESULT:      -9.3      2.094      2.735
REMARK  Name = C:\Users\Docking\Desktop\test protocol\1iep_ligandH.pdb
REMARK  8 active torsions:
REMARK  status: ('A' for Active; 'I' for Inactive)
REMARK    1  A    between atoms: _5  and  _11
REMARK    2  A    between atoms: _19  and  _21
REMARK    3  A    between atoms: _22  and  _66
REMARK    4  A    between atoms: _27  and  _30
REMARK    5  A    between atoms: _32  and  _33
REMARK    6  A    between atoms: _38  and  _43
REMARK    7  A    between atoms: _43  and  _46
REMARK    8  A    between atoms: _53  and  _55
REMARK                            x       y       z     vdW  Elec       q    Type
REMARK                         _______ _______ _______ _____ _____    ______ ____
ROOT
ATOM     10  C   UNL     1     -13.684  -3.628  55.787  0.00  0.00    +0.038 A 
ATOM     11  C   UNL     1     -12.816  -2.551  56.101  0.00  0.00    +0.047 A 
ATOM     12  C   UNL     1     -11.724  -2.182  55.213  0.00  0.00    +0.035 A 
ATOM     32  C   UNL     1     -11.547  -2.929  54.013  0.00  0.00    +0.024 A 
ATOM     33  C   UNL     1     -12.419  -4.028  53.679  0.00  0.00    +0.007 A 
ATOM     34  C   UNL     1     -13.496  -4.399  54.552  0.00  0.00    -0.029 A 
ATOM     35  C   UNL     1     -14.395  -5.590  54.146  0.00  0.00    +0.045 C 
ENDROOT
BRANCH  10   9
ATOM      4  C   UNL     1     -15.427  -5.971  59.596  0.00  0.00    +0.077 A 
ATOM      5  C   UNL     1     -14.185  -6.653  59.820  0.00  0.00    +0.048 A 
ATOM      6  C   UNL     1     -13.124  -6.378  58.928  0.00  0.00    +0.116 A 
ATOM      7  N   UNL     1     -13.304  -5.486  57.893  0.00  0.00    -0.223 NA
ATOM      8  C   UNL     1     -14.515  -4.847  57.704  0.00  0.00    +0.220 A 
ATOM      9  N   UNL     1     -14.716  -3.940  56.675  0.00  0.00    -0.283 N 
ATOM     36  H   UNL     1     -15.627  -3.495  56.565  0.00  0.00    +0.155 HD
ATOM     37  N   UNL     1     -15.544  -5.094  58.541  0.00  0.00    -0.214 NA
BRANCH   4   3
ATOM      1  C   UNL     1     -18.969  -5.530  61.196  0.00  0.00    +0.020 A 
ATOM      2  C   UNL     1     -17.824  -5.312  60.343  0.00  0.00    +0.013 A 
ATOM      3  C   UNL     1     -16.640  -6.154  60.455  0.00  0.00    +0.019 A 
ATOM     38  C   UNL     1     -16.647  -7.218  61.447  0.00  0.00    +0.120 A 
ATOM     39  N   UNL     1     -17.764  -7.404  62.256  0.00  0.00    -0.263 NA
ATOM     40  C   UNL     1     -18.908  -6.598  62.159  0.00  0.00    +0.111 A 
ENDBRANCH   4   3
ENDBRANCH  10   9
BRANCH  12  13
ATOM     13  N   UNL     1     -10.806  -1.103  55.483  0.00  0.00    -0.281 N 
ATOM     14  C   UNL     1      -9.581  -1.168  56.125  0.00  0.00    +0.248 C 
ATOM     30  O   UNL     1      -9.183  -2.134  56.758  0.00  0.00    -0.270 OA
ATOM     31  H   UNL     1     -11.095  -0.179  55.161  0.00  0.00    +0.155 HD
BRANCH  14  15
ATOM     15  C   UNL     1      -8.672   0.018  56.068  0.00  0.00    +0.037 A 
ATOM     16  C   UNL     1      -7.585   0.189  57.036  0.00  0.00    +0.013 A 
ATOM     17  C   UNL     1      -6.734   1.350  56.969  0.00  0.00    +0.005 A 
ATOM     18  C   UNL     1      -6.966   2.349  55.929  0.00  0.00    -0.033 A 
ATOM     28  C   UNL     1      -8.048   2.152  54.979  0.00  0.00    +0.005 A 
ATOM     29  C   UNL     1      -8.885   1.015  55.042  0.00  0.00    +0.013 A 
BRANCH  18  19
ATOM     19  C   UNL     1      -6.120   3.630  55.795  0.00  0.00    +0.119 C 
BRANCH  19  20
ATOM     20  N   UNL     1      -6.771   4.921  56.169  0.00  0.00    -0.302 NA
ATOM     21  C   UNL     1      -7.883   4.725  57.202  0.00  0.00    +0.066 C 
ATOM     22  C   UNL     1      -8.538   6.089  57.599  0.00  0.00    -0.064 C 
ATOM     23  N   UNL     1      -9.079   6.776  56.343  0.00  0.00    +0.379 N 
ATOM     24  C   UNL     1      -9.746   8.030  56.720  0.00  0.00    -0.096 C 
ATOM     25  H   UNL     1      -9.848   6.104  55.896  0.00  0.00    -0.082 HD
ATOM     26  C   UNL     1      -7.979   6.971  55.309  0.00  0.00    -0.064 C 
ATOM     27  C   UNL     1      -7.316   5.614  54.945  0.00  0.00    +0.066 C 
ENDBRANCH  19  20
ENDBRANCH  18  19
ENDBRANCH  14  15
ENDBRANCH  12  13
TORSDOF 6
ENDMDL
MODEL 3
REMARK VINA RESULT:      -9.2     62.474     71.293
REMARK  Name = C:\Users\Docking\Desktop\test protocol\1iep_ligandH.pdb
REMARK  8 active torsions:
REMARK  status: ('A' for Active; 'I' for Inactive)
REMARK    1  A    between atoms: _5  and  _11
REMARK    2  A    between atoms: _19  and  _21
REMARK    3  A    between atoms: _22  and  _66
REMARK    4  A    between atoms: _27  and  _30
REMARK    5  A    between atoms: _32  and  _33
REMARK    6  A    between atoms: _38  and  _43
REMARK    7  A    between atoms: _43  and  _46
REMARK    8  A    between atoms: _53  and  _55
REMARK                            x       y       z     vdW  Elec       q    Type
REMARK                         _______ _______ _______ _____ _____    ______ ____
ROOT
ATOM     10  C   UNL     1     -68.617  12.588  92.190  0.00  0.00    +0.038 A 
ATOM     11  C   UNL     1     -69.399  11.649  92.909  0.00  0.00    +0.047 A 
ATOM     12  C   UNL     1     -70.666  12.030  93.513  0.00  0.00    +0.035 A 
ATOM     32  C   UNL     1     -71.108  13.377  93.363  0.00  0.00    +0.024 A 
ATOM     33  C   UNL     1     -70.325  14.345  92.636  0.00  0.00    +0.007 A 
ATOM     34  C   UNL     1     -69.073  13.976  92.040  0.00  0.00    -0.029 A 
ATOM     35  C   UNL     1     -68.273  15.057  91.278  0.00  0.00    +0.045 C 
ENDROOT
BRANCH  10   9
ATOM      4  C   UNL     1     -63.883  11.830  92.419  0.00  0.00    +0.077 A 
ATOM      5  C   UNL     1     -63.807  12.340  93.758  0.00  0.00    +0.048 A 
ATOM      6  C   UNL     1     -65.007  12.794  94.349  0.00  0.00    +0.116 A 
ATOM      7  N   UNL     1     -66.190  12.738  93.645  0.00  0.00    -0.223 NA
ATOM      8  C   UNL     1     -66.229  12.242  92.354  0.00  0.00    +0.220 A 
ATOM      9  N   UNL     1     -67.409  12.168  91.630  0.00  0.00    -0.283 N 
ATOM     36  H   UNL     1     -67.394  11.802  90.678  0.00  0.00    +0.155 HD
ATOM     37  N   UNL     1     -65.096  11.803  91.767  0.00  0.00    -0.214 NA
BRANCH   4   3
ATOM      1  C   UNL     1     -60.864  11.546  89.949  0.00  0.00    +0.020 A 
ATOM      2  C   UNL     1     -62.000  12.095  90.653  0.00  0.00    +0.013 A 
ATOM      3  C   UNL     1     -62.702  11.310  91.661  0.00  0.00    +0.019 A 
ATOM     38  C   UNL     1     -62.224   9.964  91.936  0.00  0.00    +0.120 A 
ATOM     39  N   UNL     1     -61.129   9.461  91.241  0.00  0.00    -0.263 NA
ATOM     40  C   UNL     1     -60.446  10.206  90.268  0.00  0.00    +0.111 A 
ENDBRANCH   4   3
ENDBRANCH  10   9
BRANCH  12  13
ATOM     13  N   UNL     1     -71.500  11.122  94.262  0.00  0.00    -0.281 N 
ATOM     14  C   UNL     1     -71.904   9.846  93.904  0.00  0.00    +0.248 C 
ATOM     30  O   UNL     1     -71.785   9.372  92.784  0.00  0.00    -0.270 OA
ATOM     31  H   UNL     1     -71.832  11.461  95.165  0.00  0.00    +0.155 HD
BRANCH  14  15
ATOM     15  C   UNL     1     -72.547   8.977  94.936  0.00  0.00    +0.037 A 
ATOM     16  C   UNL     1     -73.180   7.707  94.572  0.00  0.00    +0.013 A 
ATOM     17  C   UNL     1     -73.808   6.895  95.584  0.00  0.00    +0.005 A 
ATOM     18  C   UNL     1     -73.805   7.352  96.972  0.00  0.00    -0.033 A 
ATOM     28  C   UNL     1     -73.165   8.614  97.306  0.00  0.00    +0.005 A 
ATOM     29  C   UNL     1     -72.550   9.412  96.316  0.00  0.00    +0.013 A 
BRANCH  18  19
ATOM     19  C   UNL     1     -74.470   6.561  98.114  0.00  0.00    +0.119 C 
BRANCH  19  20
ATOM     20  N   UNL     1     -73.587   6.088  99.222  0.00  0.00    -0.302 NA
ATOM     21  C   UNL     1     -72.461   5.183  98.713  0.00  0.00    +0.066 C 
ATOM     22  C   UNL     1     -71.534   4.716  99.882  0.00  0.00    -0.064 C 
ATOM     23  N   UNL     1     -72.374   3.993 100.937  0.00  0.00    +0.379 N 
ATOM     24  C   UNL     1     -71.497   3.502 102.009  0.00  0.00    -0.096 C 
ATOM     25  H   UNL     1     -72.841   3.107 100.448  0.00  0.00    -0.082 HD
ATOM     26  C   UNL     1     -73.497   4.885 101.447  0.00  0.00    -0.064 C 
ATOM     27  C   UNL     1     -74.395   5.368 100.274  0.00  0.00    +0.066 C 
ENDBRANCH  19  20
ENDBRANCH  18  19
ENDBRANCH  14  15
ENDBRANCH  12  13
TORSDOF 6
ENDMDL
MODEL 4
REMARK VINA RESULT:      -9.1     62.525     71.488
REMARK  Name = C:\Users\Docking\Desktop\test protocol\1iep_ligandH.pdb
REMARK  8 active torsions:
REMARK  status: ('A' for Active; 'I' for Inactive)
REMARK    1  A    between atoms: _5  and  _11
REMARK    2  A    between atoms: _19  and  _21
REMARK    3  A    between atoms: _22  and  _66
REMARK    4  A    between atoms: _27  and  _30
REMARK    5  A    between atoms: _32  and  _33
REMARK    6  A    between atoms: _38  and  _43
REMARK    7  A    between atoms: _43  and  _46
REMARK    8  A    between atoms: _53  and  _55
REMARK                            x       y       z     vdW  Elec       q    Type
REMARK                         _______ _______ _______ _____ _____    ______ ____
ROOT
ATOM     10  C   UNL     1     -68.842  11.957  92.411  0.00  0.00    +0.038 A 
ATOM     11  C   UNL     1     -69.493  10.906  93.106  0.00  0.00    +0.047 A 
ATOM     12  C   UNL     1     -70.765  11.123  93.777  0.00  0.00    +0.035 A 
ATOM     32  C   UNL     1     -71.347  12.423  93.719  0.00  0.00    +0.024 A 
ATOM     33  C   UNL     1     -70.697  13.503  93.019  0.00  0.00    +0.007 A 
ATOM     34  C   UNL     1     -69.441  13.296  92.357  0.00  0.00    -0.029 A 
ATOM     35  C   UNL     1     -68.787  14.492  91.626  0.00  0.00    +0.045 C 
ENDROOT
BRANCH  10   9
ATOM      4  C   UNL     1     -64.046  11.769  92.392  0.00  0.00    +0.077 A 
ATOM      5  C   UNL     1     -63.962  12.265  93.735  0.00  0.00    +0.048 A 
ATOM      6  C   UNL     1     -65.176  12.563  94.394  0.00  0.00    +0.116 A 
ATOM      7  N   UNL     1     -66.378  12.375  93.747  0.00  0.00    -0.223 NA
ATOM      8  C   UNL     1     -66.424  11.897  92.451  0.00  0.00    +0.220 A 
ATOM      9  N   UNL     1     -67.622  11.693  91.784  0.00  0.00    -0.283 N 
ATOM     36  H   UNL     1     -67.613  11.346  90.825  0.00  0.00    +0.155 HD
ATOM     37  N   UNL     1     -65.278  11.607  91.800  0.00  0.00    -0.214 NA
BRANCH   4   3
ATOM      1  C   UNL     1     -61.190  11.852  89.720  0.00  0.00    +0.020 A 
ATOM      2  C   UNL     1     -62.347  12.249  90.488  0.00  0.00    +0.013 A 
ATOM      3  C   UNL     1     -62.851  11.406  91.565  0.00  0.00    +0.019 A 
ATOM     38  C   UNL     1     -62.154  10.159  91.843  0.00  0.00    +0.120 A 
ATOM     39  N   UNL     1     -61.043   9.803  91.086  0.00  0.00    -0.263 NA
ATOM     40  C   UNL     1     -60.550  10.605  90.045  0.00  0.00    +0.111 A 
ENDBRANCH   4   3
ENDBRANCH  10   9
BRANCH  12  13
ATOM     13  N   UNL     1     -71.470  10.097  94.504  0.00  0.00    -0.281 N 
ATOM     14  C   UNL     1     -72.205   9.041  93.990  0.00  0.00    +0.248 C 
ATOM     30  O   UNL     1     -72.548   8.942  92.822  0.00  0.00    -0.270 OA
ATOM     31  H   UNL     1     -71.420  10.155  95.522  0.00  0.00    +0.155 HD
BRANCH  14  15
ATOM     15  C   UNL     1     -72.635   7.944  94.911  0.00  0.00    +0.037 A 
ATOM     16  C   UNL     1     -71.785   7.509  96.022  0.00  0.00    +0.013 A 
ATOM     17  C   UNL     1     -72.216   6.437  96.885  0.00  0.00    +0.005 A 
ATOM     18  C   UNL     1     -73.504   5.794  96.639  0.00  0.00    -0.033 A 
ATOM     28  C   UNL     1     -74.329   6.249  95.532  0.00  0.00    +0.005 A 
ATOM     29  C   UNL     1     -73.910   7.298  94.684  0.00  0.00    +0.013 A 
BRANCH  18  19
ATOM     19  C   UNL     1     -74.034   4.628  97.495  0.00  0.00    +0.119 C 
BRANCH  19  20
ATOM     20  N   UNL     1     -75.164   3.829  96.937  0.00  0.00    -0.302 NA
ATOM     21  C   UNL     1     -76.017   3.193  98.039  0.00  0.00    +0.066 C 
ATOM     22  C   UNL     1     -77.209   2.378  97.438  0.00  0.00    -0.064 C 
ATOM     23  N   UNL     1     -76.665   1.309  96.489  0.00  0.00    +0.379 N 
ATOM     24  C   UNL     1     -77.779   0.504  95.967  0.00  0.00    -0.096 C 
ATOM     25  H   UNL     1     -76.008   0.633  97.083  0.00  0.00    -0.082 HD
ATOM     26  C   UNL     1     -75.813   1.932  95.392  0.00  0.00    -0.064 C 
ATOM     27  C   UNL     1     -74.649   2.764  96.000  0.00  0.00    +0.066 C 
ENDBRANCH  19  20
ENDBRANCH  18  19
ENDBRANCH  14  15
ENDBRANCH  12  13
TORSDOF 6
ENDMDL
MODEL 5
REMARK VINA RESULT:      -9.0      3.410      4.916
REMARK  Name = C:\Users\Docking\Desktop\test protocol\1iep_ligandH.pdb
REMARK  8 active torsions:
REMARK  status: ('A' for Active; 'I' for Inactive)
REMARK    1  A    between atoms: _5  and  _11
REMARK    2  A    between atoms: _19  and  _21
REMARK    3  A    between atoms: _22  and  _66
REMARK    4  A    between atoms: _27  and  _30
REMARK    5  A    between atoms: _32  and  _33
REMARK    6  A    between atoms: _38  and  _43
REMARK    7  A    between atoms: _43  and  _46
REMARK    8  A    between atoms: _53  and  _55
REMARK                            x       y       z     vdW  Elec       q    Type
REMARK                         _______ _______ _______ _____ _____    ______ ____
ROOT
ATOM     10  C   UNL     1     -13.799  -3.852  55.790  0.00  0.00    +0.038 A 
ATOM     11  C   UNL     1     -12.495  -3.533  56.246  0.00  0.00    +0.047 A 
ATOM     12  C   UNL     1     -11.404  -3.308  55.310  0.00  0.00    +0.035 A 
ATOM     32  C   UNL     1     -11.678  -3.414  53.916  0.00  0.00    +0.024 A 
ATOM     33  C   UNL     1     -12.998  -3.740  53.434  0.00  0.00    +0.007 A 
ATOM     34  C   UNL     1     -14.077  -3.965  54.353  0.00  0.00    -0.029 A 
ATOM     35  C   UNL     1     -15.470  -4.317  53.781  0.00  0.00    +0.045 C 
ENDROOT
BRANCH  10   9
ATOM      4  C   UNL     1     -15.714  -6.236  59.490  0.00  0.00    +0.077 A 
ATOM      5  C   UNL     1     -14.623  -7.166  59.531  0.00  0.00    +0.048 A 
ATOM      6  C   UNL     1     -13.593  -7.001  58.579  0.00  0.00    +0.116 A 
ATOM      7  N   UNL     1     -13.659  -5.978  57.658  0.00  0.00    -0.223 NA
ATOM      8  C   UNL     1     -14.726  -5.099  57.644  0.00  0.00    +0.220 A 
ATOM      9  N   UNL     1     -14.809  -4.058  56.732  0.00  0.00    -0.283 N 
ATOM     36  H   UNL     1     -15.616  -3.435  56.750  0.00  0.00    +0.155 HD
ATOM     37  N   UNL     1     -15.723  -5.236  58.543  0.00  0.00    -0.214 NA
BRANCH   4   3
ATOM      1  C   UNL     1     -19.088  -5.422  61.294  0.00  0.00    +0.020 A 
ATOM      2  C   UNL     1     -17.989  -5.339  60.360  0.00  0.00    +0.013 A 
ATOM      3  C   UNL     1     -16.876  -6.277  60.433  0.00  0.00    +0.019 A 
ATOM     38  C   UNL     1     -16.906  -7.296  61.471  0.00  0.00    +0.120 A 
ATOM     39  N   UNL     1     -17.977  -7.352  62.358  0.00  0.00    -0.263 NA
ATOM     40  C   UNL     1     -19.053  -6.453  62.298  0.00  0.00    +0.111 A 
ENDBRANCH   4   3
ENDBRANCH  10   9
BRANCH  12  13
ATOM     13  N   UNL     1     -10.058  -2.988  55.715  0.00  0.00    -0.281 N 
ATOM     14  C   UNL     1      -9.439  -1.749  55.711  0.00  0.00    +0.248 C 
ATOM     30  O   UNL     1      -9.883  -0.756  55.153  0.00  0.00    -0.270 OA
ATOM     31  H   UNL     1      -9.492  -3.770  56.045  0.00  0.00    +0.155 HD
BRANCH  14  15
ATOM     15  C   UNL     1      -8.130  -1.593  56.415  0.00  0.00    +0.037 A 
ATOM     16  C   UNL     1      -7.941  -2.080  57.784  0.00  0.00    +0.013 A 
ATOM     17  C   UNL     1      -6.673  -1.902  58.446  0.00  0.00    +0.005 A 
ATOM     18  C   UNL     1      -5.583  -1.234  57.739  0.00  0.00    -0.033 A 
ATOM     28  C   UNL     1      -5.796  -0.765  56.380  0.00  0.00    +0.005 A 
ATOM     29  C   UNL     1      -7.038  -0.937  55.728  0.00  0.00    +0.013 A 
BRANCH  18  19
ATOM     19  C   UNL     1      -4.203  -0.982  58.375  0.00  0.00    +0.119 C 
BRANCH  19  20
ATOM     20  N   UNL     1      -3.977  -1.517  59.751  0.00  0.00    -0.302 NA
ATOM     21  C   UNL     1      -4.311  -0.486  60.832  0.00  0.00    +0.066 C 
ATOM     22  C   UNL     1      -4.089  -1.070  62.265  0.00  0.00    -0.064 C 
ATOM     23  N   UNL     1      -2.642  -1.547  62.400  0.00  0.00    +0.379 N 
ATOM     24  C   UNL     1      -2.415  -2.044  63.765  0.00  0.00    -0.096 C 
ATOM     25  H   UNL     1      -1.980  -0.664  62.247  0.00  0.00    -0.082 HD
ATOM     26  C   UNL     1      -2.301  -2.572  61.327  0.00  0.00    -0.064 C 
ATOM     27  C   UNL     1      -2.552  -1.990  59.908  0.00  0.00    +0.066 C 
ENDBRANCH  19  20
ENDBRANCH  18  19
ENDBRANCH  14  15
ENDBRANCH  12  13
TORSDOF 6
ENDMDL
