MODEL 1
REMARK VINA RESULT:      -9.2      0.000      0.000
REMARK  Name = C:\Users\Docking\Desktop\test protocol\1iep_ligandH.pdb
REMARK  8 active torsions:
REMARK  status: ('A' for Active; 'I' for Inactive)
REMARK    1  A    between atoms: _5  and  _11
REMARK    2  A    between atoms: _19  and  _21
REMARK    3  A    between atoms: _22  and  _66
REMARK    4  A    between atoms: _27  and  _30
REMARK    5  A    between atoms: _32  and  _33
REMARK    6  A    between atoms: _38  and  _43
REMARK    7  A    between atoms: _43  and  _46
REMARK    8  A    between atoms: _53  and  _55
REMARK                            x       y       z     vdW  Elec       q    Type
REMARK                         _______ _______ _______ _____ _____    ______ ____
ROOT
ATOM     10  C   UNL     1     -68.415  12.347  92.046  0.00  0.00    +0.038 A 
ATOM     11  C   UNL     1     -69.118  11.392  92.823  0.00  0.00    +0.047 A 
ATOM     12  C   UNL     1     -70.380  11.726  93.465  0.00  0.00    +0.035 A 
ATOM     32  C   UNL     1     -70.898  13.043  93.292  0.00  0.00    +0.024 A 
ATOM     33  C   UNL     1     -70.195  14.026  92.506  0.00  0.00    +0.007 A 
ATOM     34  C   UNL     1     -68.949  13.703  91.873  0.00  0.00    -0.029 A 
ATOM     35  C   UNL     1     -68.236  14.799  91.047  0.00  0.00    +0.045 C 
ENDROOT
BRANCH  10   9
ATOM      4  C   UNL     1     -63.662  11.688  92.169  0.00  0.00    +0.077 A 
ATOM      5  C   UNL     1     -63.573  12.157  93.522  0.00  0.00    +0.048 A 
ATOM      6  C   UNL     1     -64.772  12.565  94.148  0.00  0.00    +0.116 A 
ATOM      7  N   UNL     1     -65.966  12.504  93.463  0.00  0.00    -0.223 NA
ATOM      8  C   UNL     1     -66.017  12.049  92.158  0.00  0.00    +0.220 A 
ATOM      9  N   UNL     1     -67.208  11.971  91.452  0.00  0.00    -0.283 N 
ATOM     36  H   UNL     1     -67.202  11.637  90.489  0.00  0.00    +0.155 HD
ATOM     37  N   UNL     1     -64.885  11.655  91.538  0.00  0.00    -0.214 NA
BRANCH   4   3
ATOM      1  C   UNL     1     -60.792  11.477  89.519  0.00  0.00    +0.020 A 
ATOM      2  C   UNL     1     -61.933  11.973  90.254  0.00  0.00    +0.013 A 
ATOM      3  C   UNL     1     -62.483  11.220  91.374  0.00  0.00    +0.019 A 
ATOM     38  C   UNL     1     -61.851   9.957  91.727  0.00  0.00    +0.120 A 
ATOM     39  N   UNL     1     -60.755   9.503  91.000  0.00  0.00    -0.263 NA
ATOM     40  C   UNL     1     -60.218  10.219  89.920  0.00  0.00    +0.111 A 
ENDBRANCH   4   3
ENDBRANCH  10   9
BRANCH  12  13
ATOM     13  N   UNL     1     -71.136  10.800  94.273  0.00  0.00    -0.281 N 
ATOM     14  C   UNL     1     -71.730   9.614  93.877  0.00  0.00    +0.248 C 
ATOM     30  O   UNL     1     -71.885   9.273  92.713  0.00  0.00    -0.270 OA
ATOM     31  H   UNL     1     -71.245  11.051  95.255  0.00  0.00    +0.155 HD
BRANCH  14  15
ATOM     15  C   UNL     1     -72.240   8.677  94.924  0.00  0.00    +0.037 A 
ATOM     16  C   UNL     1     -71.793   8.777  96.315  0.00  0.00    +0.013 A 
ATOM     17  C   UNL     1     -72.287   7.850  97.302  0.00  0.00    +0.005 A 
ATOM     18  C   UNL     1     -73.236   6.814  96.900  0.00  0.00    -0.033 A 
ATOM     28  C   UNL     1     -73.667   6.741  95.514  0.00  0.00    +0.005 A 
ATOM     29  C   UNL     1     -73.184   7.647  94.544  0.00  0.00    +0.013 A 
BRANCH  18  19
ATOM     19  C   UNL     1     -73.800   5.770  97.882  0.00  0.00    +0.119 C 
BRANCH  19  20
ATOM     20  N   UNL     1     -73.085   5.598  99.182  0.00  0.00    -0.302 NA
ATOM     21  C   UNL     1     -71.779   4.816  99.020  0.00  0.00    +0.066 C 
ATOM     22  C   UNL     1     -71.033   4.665 100.386  0.00  0.00    -0.064 C 
ATOM     23  N   UNL     1     -71.956   3.977 101.394  0.00  0.00    +0.379 N 
ATOM     24  C   UNL     1     -71.238   3.781 102.662  0.00  0.00    -0.096 C 
ATOM     25  H   UNL     1     -72.207   2.969 100.989  0.00  0.00    -0.082 HD
ATOM     26  C   UNL     1     -73.258   4.746 101.559  0.00  0.00    -0.064 C 
ATOM     27  C   UNL     1     -73.976   4.916 100.191  0.00  0.00    +0.066 C 
ENDBRANCH  19  20
ENDBRANCH  18  19
ENDBRANCH  14  15
ENDBRANCH  12  13
TORSDOF 6
ENDMDL
MODEL 2
REMARK VINA RESULT:      -9.2      2.708      3.215
REMARK  Name = C:\Users\Docking\Desktop\test protocol\1iep_ligandH.pdb
REMARK  8 active torsions:
REMARK  status: ('A' for Active; 'I' for Inactive)
REMARK    1  A    between atoms: _5  and  _11
REMARK    2  A    between atoms: _19  and  _21
REMARK    3  A    between atoms: _22  and  _66
REMARK    4  A    between atoms: _27  and  _30
REMARK    5  A    between atoms: _32  and  _33
REMARK    6  A    between atoms: _38  and  _43
REMARK    7  A    between atoms: _43  and  _46
REMARK    8  A    between atoms: _53  and  _55
REMARK                            x       y       z     vdW  Elec       q    Type
REMARK                         _______ _______ _______ _____ _____    ______ ____
ROOT
ATOM     10  C   UNL     1     -68.867  11.315  92.363  0.00  0.00    +0.038 A 
ATOM     11  C   UNL     1     -69.470  10.110  92.805  0.00  0.00    +0.047 A 
ATOM     12  C   UNL     1     -70.767  10.115  93.465  0.00  0.00    +0.035 A 
ATOM     32  C   UNL     1     -71.423  11.366  93.656  0.00  0.00    +0.024 A 
ATOM     33  C   UNL     1     -70.824  12.600  93.213  0.00  0.00    +0.007 A 
ATOM     34  C   UNL     1     -69.544  12.602  92.564  0.00  0.00    -0.029 A 
ATOM     35  C   UNL     1     -68.946  13.956  92.117  0.00  0.00    +0.045 C 
ENDROOT
BRANCH  10   9
ATOM      4  C   UNL     1     -64.073  11.535  92.441  0.00  0.00    +0.077 A 
ATOM      5  C   UNL     1     -64.050  11.827  93.845  0.00  0.00    +0.048 A 
ATOM      6  C   UNL     1     -65.294  11.919  94.509  0.00  0.00    +0.116 A 
ATOM      7  N   UNL     1     -66.467  11.731  93.811  0.00  0.00    -0.223 NA
ATOM      8  C   UNL     1     -66.454  11.452  92.456  0.00  0.00    +0.220 A 
ATOM      9  N   UNL     1     -67.621  11.252  91.736  0.00  0.00    -0.283 N 
ATOM     36  H   UNL     1     -67.569  11.055  90.736  0.00  0.00    +0.155 HD
ATOM     37  N   UNL     1     -65.279  11.361  91.799  0.00  0.00    -0.214 NA
BRANCH   4   3
ATOM      1  C   UNL     1     -61.484  11.887  89.530  0.00  0.00    +0.020 A 
ATOM      2  C   UNL     1     -62.695  12.046  90.301  0.00  0.00    +0.013 A 
ATOM      3  C   UNL     1     -62.841  11.402  91.601  0.00  0.00    +0.019 A 
ATOM     38  C   UNL     1     -61.734  10.598  92.095  0.00  0.00    +0.120 A 
ATOM     39  N   UNL     1     -60.580  10.461  91.330  0.00  0.00    -0.263 NA
ATOM     40  C   UNL     1     -60.429  11.075  90.077  0.00  0.00    +0.111 A 
ENDBRANCH   4   3
ENDBRANCH  10   9
BRANCH  12  13
ATOM     13  N   UNL     1     -71.424   8.924  93.942  0.00  0.00    -0.281 N 
ATOM     14  C   UNL     1     -71.755   8.599  95.248  0.00  0.00    +0.248 C 
ATOM     30  O   UNL     1     -71.341   9.191  96.233  0.00  0.00    -0.270 OA
ATOM     31  H   UNL     1     -71.676   8.237  93.232  0.00  0.00    +0.155 HD
BRANCH  14  15
ATOM     15  C   UNL     1     -72.665   7.439  95.495  0.00  0.00    +0.037 A 
ATOM     16  C   UNL     1     -73.835   7.197  94.646  0.00  0.00    +0.013 A 
ATOM     17  C   UNL     1     -74.706   6.081  94.917  0.00  0.00    +0.005 A 
ATOM     18  C   UNL     1     -74.409   5.197  96.042  0.00  0.00    -0.033 A 
ATOM     28  C   UNL     1     -73.239   5.457  96.864  0.00  0.00    +0.005 A 
ATOM     29  C   UNL     1     -72.384   6.551  96.602  0.00  0.00    +0.013 A 
BRANCH  18  19
ATOM     19  C   UNL     1     -75.295   3.994  96.417  0.00  0.00    +0.119 C 
BRANCH  19  20
ATOM     20  N   UNL     1     -74.639   2.654  96.479  0.00  0.00    -0.302 NA
ATOM     21  C   UNL     1     -74.480   2.028  95.090  0.00  0.00    +0.066 C 
ATOM     22  C   UNL     1     -73.772   0.637  95.171  0.00  0.00    -0.064 C 
ATOM     23  N   UNL     1     -74.570  -0.286  96.093  0.00  0.00    +0.379 N 
ATOM     24  C   UNL     1     -73.939  -1.613  96.126  0.00  0.00    -0.096 C 
ATOM     25  H   UNL     1     -75.587  -0.406  95.653  0.00  0.00    -0.082 HD
ATOM     26  C   UNL     1     -74.736   0.330  97.475  0.00  0.00    -0.064 C 
ATOM     27  C   UNL     1     -75.414   1.725  97.381  0.00  0.00    +0.066 C 
ENDBRANCH  19  20
ENDBRANCH  18  19
ENDBRANCH  14  15
ENDBRANCH  12  13
TORSDOF 6
ENDMDL
MODEL 3
REMARK VINA RESULT:      -8.4     32.941     40.354
REMARK  Name = C:\Users\Docking\Desktop\test protocol\1iep_ligandH.pdb
REMARK  8 active torsions:
REMARK  status: ('A' for Active; 'I' for Inactive)
REMARK    1  A    between atoms: _5  and  _11
REMARK    2  A    between atoms: _19  and  _21
REMARK    3  A    between atoms: _22  and  _66
REMARK    4  A    between atoms: _27  and  _30
REMARK    5  A    between atoms: _32  and  _33
REMARK    6  A    between atoms: _38  and  _43
REMARK    7  A    between atoms: _43  and  _46
REMARK    8  A    between atoms: _53  and  _55
REMARK                            x       y       z     vdW  Elec       q    Type
REMARK                         _______ _______ _______ _____ _____    ______ ____
ROOT
ATOM     10  C   UNL     1     -39.057 -10.623  79.478  0.00  0.00    +0.038 A 
ATOM     11  C   UNL     1     -39.441 -11.598  78.523  0.00  0.00    +0.047 A 
ATOM     12  C   UNL     1     -38.799 -12.903  78.480  0.00  0.00    +0.035 A 
ATOM     32  C   UNL     1     -37.771 -13.181  79.428  0.00  0.00    +0.024 A 
ATOM     33  C   UNL     1     -37.368 -12.201  80.405  0.00  0.00    +0.007 A 
ATOM     34  C   UNL     1     -37.996 -10.911  80.450  0.00  0.00    -0.029 A 
ATOM     35  C   UNL     1     -37.518  -9.897  81.515  0.00  0.00    +0.045 C 
ENDROOT
BRANCH  10   9
ATOM      4  C   UNL     1     -42.802  -7.806  80.519  0.00  0.00    +0.077 A 
ATOM      5  C   UNL     1     -43.537  -8.895  81.095  0.00  0.00    +0.048 A 
ATOM      6  C   UNL     1     -42.918 -10.166  81.097  0.00  0.00    +0.116 A 
ATOM      7  N   UNL     1     -41.658 -10.323  80.561  0.00  0.00    -0.223 NA
ATOM      8  C   UNL     1     -40.978  -9.252  80.012  0.00  0.00    +0.220 A 
ATOM      9  N   UNL     1     -39.707  -9.386  79.474  0.00  0.00    -0.283 N 
ATOM     36  H   UNL     1     -39.242  -8.573  79.072  0.00  0.00    +0.155 HD
ATOM     37  N   UNL     1     -41.548  -8.029  79.996  0.00  0.00    -0.214 NA
BRANCH   4   3
ATOM      1  C   UNL     1     -44.123  -4.258  81.501  0.00  0.00    +0.020 A 
ATOM      2  C   UNL     1     -43.626  -5.608  81.627  0.00  0.00    +0.013 A 
ATOM      3  C   UNL     1     -43.320  -6.403  80.445  0.00  0.00    +0.019 A 
ATOM     38  C   UNL     1     -43.529  -5.797  79.138  0.00  0.00    +0.120 A 
ATOM     39  N   UNL     1     -44.011  -4.495  79.047  0.00  0.00    -0.263 NA
ATOM     40  C   UNL     1     -44.310  -3.721  80.178  0.00  0.00    +0.111 A 
ENDBRANCH   4   3
ENDBRANCH  10   9
BRANCH  12  13
ATOM     13  N   UNL     1     -39.141 -13.930  77.528  0.00  0.00    -0.281 N 
ATOM     14  C   UNL     1     -40.316 -14.658  77.446  0.00  0.00    +0.248 C 
ATOM     30  O   UNL     1     -41.174 -14.686  78.316  0.00  0.00    -0.270 OA
ATOM     31  H   UNL     1     -38.430 -14.147  76.829  0.00  0.00    +0.155 HD
BRANCH  14  15
ATOM     15  C   UNL     1     -40.569 -15.487  76.228  0.00  0.00    +0.037 A 
ATOM     16  C   UNL     1     -39.568 -16.436  75.734  0.00  0.00    +0.013 A 
ATOM     17  C   UNL     1     -39.831 -17.211  74.547  0.00  0.00    +0.005 A 
ATOM     18  C   UNL     1     -41.102 -17.040  73.847  0.00  0.00    -0.033 A 
ATOM     28  C   UNL     1     -42.079 -16.096  74.362  0.00  0.00    +0.005 A 
ATOM     29  C   UNL     1     -41.825 -15.334  75.525  0.00  0.00    +0.013 A 
BRANCH  18  19
ATOM     19  C   UNL     1     -41.458 -17.809  72.561  0.00  0.00    +0.119 C 
BRANCH  19  20
ATOM     20  N   UNL     1     -42.216 -17.069  71.509  0.00  0.00    -0.302 NA
ATOM     21  C   UNL     1     -42.977 -18.015  70.575  0.00  0.00    +0.066 C 
ATOM     22  C   UNL     1     -43.782 -17.223  69.495  0.00  0.00    -0.064 C 
ATOM     23  N   UNL     1     -42.825 -16.332  68.701  0.00  0.00    +0.379 N 
ATOM     24  C   UNL     1     -43.571 -15.629  67.646  0.00  0.00    -0.096 C 
ATOM     25  H   UNL     1     -42.080 -16.995  68.204  0.00  0.00    -0.082 HD
ATOM     26  C   UNL     1     -42.063 -15.389  69.622  0.00  0.00    -0.064 C 
ATOM     27  C   UNL     1     -41.290 -16.186  70.710  0.00  0.00    +0.066 C 
ENDBRANCH  19  20
ENDBRANCH  18  19
ENDBRANCH  14  15
ENDBRANCH  12  13
TORSDOF 6
ENDMDL
MODEL 4
REMARK VINA RESULT:      -8.3     64.227     70.484
REMARK  Name = C:\Users\Docking\Desktop\test protocol\1iep_ligandH.pdb
REMARK  8 active torsions:
REMARK  status: ('A' for Active; 'I' for Inactive)
REMARK    1  A    between atoms: _5  and  _11
REMARK    2  A    between atoms: _19  and  _21
REMARK    3  A    between atoms: _22  and  _66
REMARK    4  A    between atoms: _27  and  _30
REMARK    5  A    between atoms: _32  and  _33
REMARK    6  A    between atoms: _38  and  _43
REMARK    7  A    between atoms: _43  and  _46
REMARK    8  A    between atoms: _53  and  _55
REMARK                            x       y       z     vdW  Elec       q    Type
REMARK                         _______ _______ _______ _____ _____    ______ ____
ROOT
ATOM     10  C   UNL     1      -7.419   1.533  55.234  0.00  0.00    +0.038 A 
ATOM     11  C   UNL     1      -8.563   0.713  55.407  0.00  0.00    +0.047 A 
ATOM     12  C   UNL     1      -8.457  -0.612  56.000  0.00  0.00    +0.035 A 
ATOM     32  C   UNL     1      -7.170  -1.069  56.407  0.00  0.00    +0.024 A 
ATOM     33  C   UNL     1      -5.996  -0.249  56.237  0.00  0.00    +0.007 A 
ATOM     34  C   UNL     1      -6.094   1.058  55.651  0.00  0.00    -0.029 A 
ATOM     35  C   UNL     1      -4.802   1.890  55.488  0.00  0.00    +0.045 C 
ENDROOT
BRANCH  10   9
ATOM      4  C   UNL     1      -8.879   6.102  55.397  0.00  0.00    +0.077 A 
ATOM      5  C   UNL     1      -9.391   5.953  56.728  0.00  0.00    +0.048 A 
ATOM      6  C   UNL     1      -9.266   4.682  57.333  0.00  0.00    +0.116 A 
ATOM      7  N   UNL     1      -8.670   3.645  56.648  0.00  0.00    -0.223 NA
ATOM      8  C   UNL     1      -8.188   3.823  55.364  0.00  0.00    +0.220 A 
ATOM      9  N   UNL     1      -7.579   2.796  54.660  0.00  0.00    -0.283 N 
ATOM     36  H   UNL     1      -7.243   2.965  53.712  0.00  0.00    +0.155 HD
ATOM     37  N   UNL     1      -8.297   5.026  54.764  0.00  0.00    -0.214 NA
BRANCH   4   3
ATOM      1  C   UNL     1      -9.056   8.695  52.473  0.00  0.00    +0.020 A 
ATOM      2  C   UNL     1      -9.004   7.431  53.170  0.00  0.00    +0.013 A 
ATOM      3  C   UNL     1      -8.934   7.384  54.625  0.00  0.00    +0.019 A 
ATOM     38  C   UNL     1      -8.920   8.645  55.351  0.00  0.00    +0.120 A 
ATOM     39  N   UNL     1      -8.969   9.848  54.653  0.00  0.00    -0.263 NA
ATOM     40  C   UNL     1      -9.035   9.905  53.253  0.00  0.00    +0.111 A 
ENDBRANCH   4   3
ENDBRANCH  10   9
BRANCH  12  13
ATOM     13  N   UNL     1      -9.583  -1.492  56.193  0.00  0.00    -0.281 N 
ATOM     14  C   UNL     1     -10.017  -2.514  55.365  0.00  0.00    +0.248 C 
ATOM     30  O   UNL     1      -9.627  -2.688  54.220  0.00  0.00    -0.270 OA
ATOM     31  H   UNL     1     -10.125  -1.344  57.044  0.00  0.00    +0.155 HD
BRANCH  14  15
ATOM     15  C   UNL     1     -11.042  -3.473  55.878  0.00  0.00    +0.037 A 
ATOM     16  C   UNL     1     -12.444  -3.075  56.035  0.00  0.00    +0.013 A 
ATOM     17  C   UNL     1     -13.409  -4.014  56.547  0.00  0.00    +0.005 A 
ATOM     18  C   UNL     1     -12.976  -5.362  56.906  0.00  0.00    -0.033 A 
ATOM     28  C   UNL     1     -11.581  -5.732  56.735  0.00  0.00    +0.005 A 
ATOM     29  C   UNL     1     -10.632  -4.814  56.234  0.00  0.00    +0.013 A 
BRANCH  18  19
ATOM     19  C   UNL     1     -13.934  -6.423  57.480  0.00  0.00    +0.119 C 
BRANCH  19  20
ATOM     20  N   UNL     1     -14.640  -6.089  58.753  0.00  0.00    -0.302 NA
ATOM     21  C   UNL     1     -13.670  -5.957  59.931  0.00  0.00    +0.066 C 
ATOM     22  C   UNL     1     -14.423  -5.585  61.249  0.00  0.00    -0.064 C 
ATOM     23  N   UNL     1     -15.487  -6.644  61.541  0.00  0.00    +0.379 N 
ATOM     24  C   UNL     1     -16.158  -6.329  62.811  0.00  0.00    -0.096 C 
ATOM     25  H   UNL     1     -14.966  -7.621  61.668  0.00  0.00    -0.082 HD
ATOM     26  C   UNL     1     -16.455  -6.784  60.375  0.00  0.00    -0.064 C 
ATOM     27  C   UNL     1     -15.693  -7.125  59.063  0.00  0.00    +0.066 C 
ENDBRANCH  19  20
ENDBRANCH  18  19
ENDBRANCH  14  15
ENDBRANCH  12  13
TORSDOF 6
ENDMDL
MODEL 5
REMARK VINA RESULT:      -8.2     36.718     43.797
REMARK  Name = C:\Users\Docking\Desktop\test protocol\1iep_ligandH.pdb
REMARK  8 active torsions:
REMARK  status: ('A' for Active; 'I' for Inactive)
REMARK    1  A    between atoms: _5  and  _11
REMARK    2  A    between atoms: _19  and  _21
REMARK    3  A    between atoms: _22  and  _66
REMARK    4  A    between atoms: _27  and  _30
REMARK    5  A    between atoms: _32  and  _33
REMARK    6  A    between atoms: _38  and  _43
REMARK    7  A    between atoms: _43  and  _46
REMARK    8  A    between atoms: _53  and  _55
REMARK                            x       y       z     vdW  Elec       q    Type
REMARK                         _______ _______ _______ _____ _____    ______ ____
ROOT
ATOM     10  C   UNL     1     -38.262 -16.977  76.395  0.00  0.00    +0.038 A 
ATOM     11  C   UNL     1     -37.676 -15.991  77.229  0.00  0.00    +0.047 A 
ATOM     12  C   UNL     1     -38.389 -14.768  77.565  0.00  0.00    +0.035 A 
ATOM     32  C   UNL     1     -39.699 -14.584  77.035  0.00  0.00    +0.024 A 
ATOM     33  C   UNL     1     -40.310 -15.575  76.185  0.00  0.00    +0.007 A 
ATOM     34  C   UNL     1     -39.610 -16.782  75.849  0.00  0.00    -0.029 A 
ATOM     35  C   UNL     1     -40.312 -17.807  74.928  0.00  0.00    +0.045 C 
ENDROOT
BRANCH  10   9
ATOM      4  C   UNL     1     -36.892 -21.473  77.368  0.00  0.00    +0.077 A 
ATOM      5  C   UNL     1     -37.675 -21.515  78.570  0.00  0.00    +0.048 A 
ATOM      6  C   UNL     1     -38.411 -20.356  78.905  0.00  0.00    +0.116 A 
ATOM      7  N   UNL     1     -38.359 -19.244  78.093  0.00  0.00    -0.223 NA
ATOM      8  C   UNL     1     -37.592 -19.236  76.942  0.00  0.00    +0.220 A 
ATOM      9  N   UNL     1     -37.532 -18.132  76.106  0.00  0.00    -0.283 N 
ATOM     36  H   UNL     1     -36.949 -18.164  75.270  0.00  0.00    +0.155 HD
ATOM     37  N   UNL     1     -36.880 -20.330  76.600  0.00  0.00    -0.214 NA
BRANCH   4   3
ATOM      1  C   UNL     1     -34.664 -23.780  75.129  0.00  0.00    +0.020 A 
ATOM      2  C   UNL     1     -35.456 -22.648  75.554  0.00  0.00    +0.013 A 
ATOM      3  C   UNL     1     -36.063 -22.619  76.878  0.00  0.00    +0.019 A 
ATOM     38  C   UNL     1     -35.847 -23.760  77.756  0.00  0.00    +0.120 A 
ATOM     39  N   UNL     1     -35.081 -24.836  77.320  0.00  0.00    -0.263 NA
ATOM     40  C   UNL     1     -34.493 -24.876  76.047  0.00  0.00    +0.111 A 
ENDBRANCH   4   3
ENDBRANCH  10   9
BRANCH  12  13
ATOM     13  N   UNL     1     -37.841 -13.728  78.400  0.00  0.00    -0.281 N 
ATOM     14  C   UNL     1     -38.486 -12.607  78.897  0.00  0.00    +0.248 C 
ATOM     30  O   UNL     1     -39.581 -12.216  78.521  0.00  0.00    -0.270 OA
ATOM     31  H   UNL     1     -36.859 -13.831  78.656  0.00  0.00    +0.155 HD
BRANCH  14  15
ATOM     15  C   UNL     1     -37.811 -11.795  79.955  0.00  0.00    +0.037 A 
ATOM     16  C   UNL     1     -37.066 -12.434  81.043  0.00  0.00    +0.013 A 
ATOM     17  C   UNL     1     -36.438 -11.628  82.060  0.00  0.00    +0.005 A 
ATOM     18  C   UNL     1     -36.552 -10.173  81.992  0.00  0.00    -0.033 A 
ATOM     28  C   UNL     1     -37.293  -9.565  80.898  0.00  0.00    +0.005 A 
ATOM     29  C   UNL     1     -37.910 -10.352  79.900  0.00  0.00    +0.013 A 
BRANCH  18  19
ATOM     19  C   UNL     1     -35.932  -9.235  83.045  0.00  0.00    +0.119 C 
BRANCH  19  20
ATOM     20  N   UNL     1     -36.407  -7.819  83.064  0.00  0.00    -0.302 NA
ATOM     21  C   UNL     1     -35.258  -6.825  82.872  0.00  0.00    +0.066 C 
ATOM     22  C   UNL     1     -35.776  -5.350  82.872  0.00  0.00    -0.064 C 
ATOM     23  N   UNL     1     -36.518  -5.073  84.180  0.00  0.00    +0.379 N 
ATOM     24  C   UNL     1     -36.956  -3.670  84.208  0.00  0.00    -0.096 C 
ATOM     25  H   UNL     1     -35.795  -5.219  85.016  0.00  0.00    -0.082 HD
ATOM     26  C   UNL     1     -37.660  -6.059  84.381  0.00  0.00    -0.064 C 
ATOM     27  C   UNL     1     -37.139  -7.523  84.350  0.00  0.00    +0.066 C 
ENDBRANCH  19  20
ENDBRANCH  18  19
ENDBRANCH  14  15
ENDBRANCH  12  13
TORSDOF 6
ENDMDL
