MODEL 1
REMARK VINA RESULT:      -9.1      0.000      0.000
REMARK  Name = C:\Users\Docking\Desktop\test protocol\1iep_ligandH.pdb
REMARK  8 active torsions:
REMARK  status: ('A' for Active; 'I' for Inactive)
REMARK    1  A    between atoms: _5  and  _11
REMARK    2  A    between atoms: _19  and  _21
REMARK    3  A    between atoms: _22  and  _66
REMARK    4  A    between atoms: _27  and  _30
REMARK    5  A    between atoms: _32  and  _33
REMARK    6  A    between atoms: _38  and  _43
REMARK    7  A    between atoms: _43  and  _46
REMARK    8  A    between atoms: _53  and  _55
REMARK                            x       y       z     vdW  Elec       q    Type
REMARK                         _______ _______ _______ _____ _____    ______ ____
ROOT
ATOM     10  C   UNL     1     -68.339  11.908  92.262  0.00  0.00    +0.038 A 
ATOM     11  C   UNL     1     -69.002  10.872  92.968  0.00  0.00    +0.047 A 
ATOM     12  C   UNL     1     -70.269  11.111  93.642  0.00  0.00    +0.035 A 
ATOM     32  C   UNL     1     -70.833  12.418  93.575  0.00  0.00    +0.024 A 
ATOM     33  C   UNL     1     -70.173  13.484  92.863  0.00  0.00    +0.007 A 
ATOM     34  C   UNL     1     -68.922  13.254  92.198  0.00  0.00    -0.029 A 
ATOM     35  C   UNL     1     -68.255  14.435  91.455  0.00  0.00    +0.045 C 
ENDROOT
BRANCH  10   9
ATOM      4  C   UNL     1     -63.552  11.570  92.255  0.00  0.00    +0.077 A 
ATOM      5  C   UNL     1     -63.458  12.027  93.611  0.00  0.00    +0.048 A 
ATOM      6  C   UNL     1     -64.665  12.346  94.273  0.00  0.00    +0.116 A 
ATOM      7  N   UNL     1     -65.870  12.213  93.618  0.00  0.00    -0.223 NA
ATOM      8  C   UNL     1     -65.925  11.771  92.309  0.00  0.00    +0.220 A 
ATOM      9  N   UNL     1     -67.126  11.622  91.632  0.00  0.00    -0.283 N 
ATOM     36  H   UNL     1     -67.123  11.301  90.665  0.00  0.00    +0.155 HD
ATOM     37  N   UNL     1     -64.786  11.462  91.654  0.00  0.00    -0.214 NA
BRANCH   4   3
ATOM      1  C   UNL     1     -60.784  11.549  89.491  0.00  0.00    +0.020 A 
ATOM      2  C   UNL     1     -61.937  11.958  90.260  0.00  0.00    +0.013 A 
ATOM      3  C   UNL     1     -62.366  11.192  91.423  0.00  0.00    +0.019 A 
ATOM     38  C   UNL     1     -61.599  10.009  91.786  0.00  0.00    +0.120 A 
ATOM     39  N   UNL     1     -60.494   9.639  91.025  0.00  0.00    -0.263 NA
ATOM     40  C   UNL     1     -60.073  10.368  89.903  0.00  0.00    +0.111 A 
ENDBRANCH   4   3
ENDBRANCH  10   9
BRANCH  12  13
ATOM     13  N   UNL     1     -70.984  10.100  94.381  0.00  0.00    -0.281 N 
ATOM     14  C   UNL     1     -71.747   9.059  93.879  0.00  0.00    +0.248 C 
ATOM     30  O   UNL     1     -72.107   8.964  92.716  0.00  0.00    -0.270 OA
ATOM     31  H   UNL     1     -70.919  10.160  95.398  0.00  0.00    +0.155 HD
BRANCH  14  15
ATOM     15  C   UNL     1     -72.185   7.973  94.808  0.00  0.00    +0.037 A 
ATOM     16  C   UNL     1     -71.284   7.438  95.832  0.00  0.00    +0.013 A 
ATOM     17  C   UNL     1     -71.727   6.379  96.703  0.00  0.00    +0.005 A 
ATOM     18  C   UNL     1     -73.079   5.847  96.555  0.00  0.00    -0.033 A 
ATOM     28  C   UNL     1     -73.954   6.399  95.534  0.00  0.00    +0.005 A 
ATOM     29  C   UNL     1     -73.524   7.437  94.677  0.00  0.00    +0.013 A 
BRANCH  18  19
ATOM     19  C   UNL     1     -73.629   4.703  97.427  0.00  0.00    +0.119 C 
BRANCH  19  20
ATOM     20  N   UNL     1     -74.607   3.769  96.793  0.00  0.00    -0.302 NA
ATOM     21  C   UNL     1     -75.372   2.945  97.833  0.00  0.00    +0.066 C 
ATOM     22  C   UNL     1     -76.407   1.991  97.153  0.00  0.00    -0.064 C 
ATOM     23  N   UNL     1     -75.681   1.076  96.165  0.00  0.00    +0.379 N 
ATOM     24  C   UNL     1     -76.643   0.138  95.567  0.00  0.00    -0.096 C 
ATOM     25  H   UNL     1     -74.938   0.478  96.741  0.00  0.00    -0.082 HD
ATOM     26  C   UNL     1     -74.916   1.888  95.129  0.00  0.00    -0.064 C 
ATOM     27  C   UNL     1     -73.911   2.854  95.816  0.00  0.00    +0.066 C 
ENDBRANCH  19  20
ENDBRANCH  18  19
ENDBRANCH  14  15
ENDBRANCH  12  13
TORSDOF 6
ENDMDL
MODEL 2
REMARK VINA RESULT:      -8.9      0.932      1.436
REMARK  Name = C:\Users\Docking\Desktop\test protocol\1iep_ligandH.pdb
REMARK  8 active torsions:
REMARK  status: ('A' for Active; 'I' for Inactive)
REMARK    1  A    between atoms: _5  and  _11
REMARK    2  A    between atoms: _19  and  _21
REMARK    3  A    between atoms: _22  and  _66
REMARK    4  A    between atoms: _27  and  _30
REMARK    5  A    between atoms: _32  and  _33
REMARK    6  A    between atoms: _38  and  _43
REMARK    7  A    between atoms: _43  and  _46
REMARK    8  A    between atoms: _53  and  _55
REMARK                            x       y       z     vdW  Elec       q    Type
REMARK                         _______ _______ _______ _____ _____    ______ ____
ROOT
ATOM     10  C   UNL     1     -68.446  11.891  92.295  0.00  0.00    +0.038 A 
ATOM     11  C   UNL     1     -69.109  10.839  92.977  0.00  0.00    +0.047 A 
ATOM     12  C   UNL     1     -70.382  11.060  93.646  0.00  0.00    +0.035 A 
ATOM     32  C   UNL     1     -70.953  12.365  93.597  0.00  0.00    +0.024 A 
ATOM     33  C   UNL     1     -70.292  13.446  92.909  0.00  0.00    +0.007 A 
ATOM     34  C   UNL     1     -69.035  13.235  92.250  0.00  0.00    -0.029 A 
ATOM     35  C   UNL     1     -68.368  14.432  91.534  0.00  0.00    +0.045 C 
ENDROOT
BRANCH  10   9
ATOM      4  C   UNL     1     -63.658  11.553  92.328  0.00  0.00    +0.077 A 
ATOM      5  C   UNL     1     -63.579  11.973  93.697  0.00  0.00    +0.048 A 
ATOM      6  C   UNL     1     -64.793  12.273  94.355  0.00  0.00    +0.116 A 
ATOM      7  N   UNL     1     -65.991  12.158  93.684  0.00  0.00    -0.223 NA
ATOM      8  C   UNL     1     -66.032  11.753  92.363  0.00  0.00    +0.220 A 
ATOM      9  N   UNL     1     -67.226  11.623  91.671  0.00  0.00    -0.283 N 
ATOM     36  H   UNL     1     -67.213  11.328  90.695  0.00  0.00    +0.155 HD
ATOM     37  N   UNL     1     -64.886  11.462  91.712  0.00  0.00    -0.214 NA
BRANCH   4   3
ATOM      1  C   UNL     1     -60.879  11.592  89.575  0.00  0.00    +0.020 A 
ATOM      2  C   UNL     1     -62.041  11.978  90.342  0.00  0.00    +0.013 A 
ATOM      3  C   UNL     1     -62.464  11.198  91.498  0.00  0.00    +0.019 A 
ATOM     38  C   UNL     1     -61.682  10.024  91.855  0.00  0.00    +0.120 A 
ATOM     39  N   UNL     1     -60.568   9.675  91.096  0.00  0.00    -0.263 NA
ATOM     40  C   UNL     1     -60.154  10.418  89.981  0.00  0.00    +0.111 A 
ENDBRANCH   4   3
ENDBRANCH  10   9
BRANCH  12  13
ATOM     13  N   UNL     1     -71.097  10.032  94.361  0.00  0.00    -0.281 N 
ATOM     14  C   UNL     1     -71.834   8.984  93.834  0.00  0.00    +0.248 C 
ATOM     30  O   UNL     1     -72.167   8.894  92.662  0.00  0.00    -0.270 OA
ATOM     31  H   UNL     1     -71.056  10.084  95.379  0.00  0.00    +0.155 HD
BRANCH  14  15
ATOM     15  C   UNL     1     -72.276   7.884  94.744  0.00  0.00    +0.037 A 
ATOM     16  C   UNL     1     -73.577   7.231  94.571  0.00  0.00    +0.013 A 
ATOM     17  C   UNL     1     -73.986   6.184  95.473  0.00  0.00    +0.005 A 
ATOM     18  C   UNL     1     -73.092   5.782  96.556  0.00  0.00    -0.033 A 
ATOM     28  C   UNL     1     -71.805   6.442  96.701  0.00  0.00    +0.005 A 
ATOM     29  C   UNL     1     -71.401   7.470  95.820  0.00  0.00    +0.013 A 
BRANCH  18  19
ATOM     19  C   UNL     1     -73.455   4.688  97.578  0.00  0.00    +0.119 C 
BRANCH  19  20
ATOM     20  N   UNL     1     -74.827   4.105  97.497  0.00  0.00    -0.302 NA
ATOM     21  C   UNL     1     -75.791   4.760  98.490  0.00  0.00    +0.066 C 
ATOM     22  C   UNL     1     -77.227   4.154  98.375  0.00  0.00    -0.064 C 
ATOM     23  N   UNL     1     -77.159   2.643  98.603  0.00  0.00    +0.379 N 
ATOM     24  C   UNL     1     -78.515   2.077  98.554  0.00  0.00    -0.096 C 
ATOM     25  H   UNL     1     -76.759   2.474  99.630  0.00  0.00    -0.082 HD
ATOM     26  C   UNL     1     -76.201   1.983  97.621  0.00  0.00    -0.064 C 
ATOM     27  C   UNL     1     -74.784   2.614  97.723  0.00  0.00    +0.066 C 
ENDBRANCH  19  20
ENDBRANCH  18  19
ENDBRANCH  14  15
ENDBRANCH  12  13
TORSDOF 6
ENDMDL
MODEL 3
REMARK VINA RESULT:      -8.9      2.015      3.092
REMARK  Name = C:\Users\Docking\Desktop\test protocol\1iep_ligandH.pdb
REMARK  8 active torsions:
REMARK  status: ('A' for Active; 'I' for Inactive)
REMARK    1  A    between atoms: _5  and  _11
REMARK    2  A    between atoms: _19  and  _21
REMARK    3  A    between atoms: _22  and  _66
REMARK    4  A    between atoms: _27  and  _30
REMARK    5  A    between atoms: _32  and  _33
REMARK    6  A    between atoms: _38  and  _43
REMARK    7  A    between atoms: _43  and  _46
REMARK    8  A    between atoms: _53  and  _55
REMARK                            x       y       z     vdW  Elec       q    Type
REMARK                         _______ _______ _______ _____ _____    ______ ____
ROOT
ATOM     10  C   UNL     1     -68.342  12.087  92.187  0.00  0.00    +0.038 A 
ATOM     11  C   UNL     1     -69.007  11.073  92.923  0.00  0.00    +0.047 A 
ATOM     12  C   UNL     1     -70.274  11.334  93.588  0.00  0.00    +0.035 A 
ATOM     32  C   UNL     1     -70.838  12.639  93.480  0.00  0.00    +0.024 A 
ATOM     33  C   UNL     1     -70.175  13.681  92.737  0.00  0.00    +0.007 A 
ATOM     34  C   UNL     1     -68.924  13.431  92.081  0.00  0.00    -0.029 A 
ATOM     35  C   UNL     1     -68.255  14.588  91.304  0.00  0.00    +0.045 C 
ENDROOT
BRANCH  10   9
ATOM      4  C   UNL     1     -63.565  11.629  92.237  0.00  0.00    +0.077 A 
ATOM      5  C   UNL     1     -63.478  12.059  93.602  0.00  0.00    +0.048 A 
ATOM      6  C   UNL     1     -64.686  12.397  94.254  0.00  0.00    +0.116 A 
ATOM      7  N   UNL     1     -65.884  12.306  93.580  0.00  0.00    -0.223 NA
ATOM      8  C   UNL     1     -65.932  11.888  92.263  0.00  0.00    +0.220 A 
ATOM      9  N   UNL     1     -67.128  11.782  91.569  0.00  0.00    -0.283 N 
ATOM     36  H   UNL     1     -67.120  11.477  90.596  0.00  0.00    +0.155 HD
ATOM     37  N   UNL     1     -64.793  11.562  91.618  0.00  0.00    -0.214 NA
BRANCH   4   3
ATOM      1  C   UNL     1     -60.780  11.568  89.490  0.00  0.00    +0.020 A 
ATOM      2  C   UNL     1     -61.934  11.991  90.250  0.00  0.00    +0.013 A 
ATOM      3  C   UNL     1     -62.377  11.235  91.414  0.00  0.00    +0.019 A 
ATOM     38  C   UNL     1     -61.625  10.046  91.786  0.00  0.00    +0.120 A 
ATOM     39  N   UNL     1     -60.519   9.662  91.035  0.00  0.00    -0.263 NA
ATOM     40  C   UNL     1     -60.084  10.381  89.911  0.00  0.00    +0.111 A 
ENDBRANCH   4   3
ENDBRANCH  10   9
BRANCH  12  13
ATOM     13  N   UNL     1     -70.991  10.346  94.356  0.00  0.00    -0.281 N 
ATOM     14  C   UNL     1     -71.761   9.295  93.885  0.00  0.00    +0.248 C 
ATOM     30  O   UNL     1     -72.126   9.172  92.725  0.00  0.00    -0.270 OA
ATOM     31  H   UNL     1     -70.922  10.432  95.370  0.00  0.00    +0.155 HD
BRANCH  14  15
ATOM     15  C   UNL     1     -72.201   8.236  94.843  0.00  0.00    +0.037 A 
ATOM     16  C   UNL     1     -73.353   7.379  94.551  0.00  0.00    +0.013 A 
ATOM     17  C   UNL     1     -73.766   6.376  95.501  0.00  0.00    +0.005 A 
ATOM     18  C   UNL     1     -73.026   6.225  96.751  0.00  0.00    -0.033 A 
ATOM     28  C   UNL     1     -71.884   7.085  97.012  0.00  0.00    +0.005 A 
ATOM     29  C   UNL     1     -71.476   8.070  96.085  0.00  0.00    +0.013 A 
BRANCH  18  19
ATOM     19  C   UNL     1     -73.409   5.195  97.831  0.00  0.00    +0.119 C 
BRANCH  19  20
ATOM     20  N   UNL     1     -72.965   5.473  99.229  0.00  0.00    -0.302 NA
ATOM     21  C   UNL     1     -71.868   4.507  99.686  0.00  0.00    +0.066 C 
ATOM     22  C   UNL     1     -71.399   4.827 101.143  0.00  0.00    -0.064 C 
ATOM     23  N   UNL     1     -72.600   4.768 102.087  0.00  0.00    +0.379 N 
ATOM     24  C   UNL     1     -72.153   5.010 103.466  0.00  0.00    -0.096 C 
ATOM     25  H   UNL     1     -73.014   3.733 102.043  0.00  0.00    -0.082 HD
ATOM     26  C   UNL     1     -73.697   5.723 101.639  0.00  0.00    -0.064 C 
ATOM     27  C   UNL     1     -74.135   5.416 100.179  0.00  0.00    +0.066 C 
ENDBRANCH  19  20
ENDBRANCH  18  19
ENDBRANCH  14  15
ENDBRANCH  12  13
TORSDOF 6
ENDMDL
MODEL 4
REMARK VINA RESULT:      -8.8     30.355     33.917
REMARK  Name = C:\Users\Docking\Desktop\test protocol\1iep_ligandH.pdb
REMARK  8 active torsions:
REMARK  status: ('A' for Active; 'I' for Inactive)
REMARK    1  A    between atoms: _5  and  _11
REMARK    2  A    between atoms: _19  and  _21
REMARK    3  A    between atoms: _22  and  _66
REMARK    4  A    between atoms: _27  and  _30
REMARK    5  A    between atoms: _32  and  _33
REMARK    6  A    between atoms: _38  and  _43
REMARK    7  A    between atoms: _43  and  _46
REMARK    8  A    between atoms: _53  and  _55
REMARK                            x       y       z     vdW  Elec       q    Type
REMARK                         _______ _______ _______ _____ _____    ______ ____
ROOT
ATOM     10  C   UNL     1     -39.648  -6.337  81.773  0.00  0.00    +0.038 A 
ATOM     11  C   UNL     1     -40.684  -6.056  80.846  0.00  0.00    +0.047 A 
ATOM     12  C   UNL     1     -41.093  -7.038  79.854  0.00  0.00    +0.035 A 
ATOM     32  C   UNL     1     -40.428  -8.298  79.837  0.00  0.00    +0.024 A 
ATOM     33  C   UNL     1     -39.372  -8.601  80.771  0.00  0.00    +0.007 A 
ATOM     34  C   UNL     1     -38.962  -7.635  81.749  0.00  0.00    -0.029 A 
ATOM     35  C   UNL     1     -37.819  -8.011  82.722  0.00  0.00    +0.045 C 
ENDROOT
BRANCH  10   9
ATOM      4  C   UNL     1     -40.032  -4.258  86.082  0.00  0.00    +0.077 A 
ATOM      5  C   UNL     1     -41.041  -5.186  86.505  0.00  0.00    +0.048 A 
ATOM      6  C   UNL     1     -41.438  -6.178  85.581  0.00  0.00    +0.116 A 
ATOM      7  N   UNL     1     -40.862  -6.230  84.330  0.00  0.00    -0.223 NA
ATOM      8  C   UNL     1     -39.893  -5.319  83.953  0.00  0.00    +0.220 A 
ATOM      9  N   UNL     1     -39.294  -5.357  82.703  0.00  0.00    -0.283 N 
ATOM     36  H   UNL     1     -38.589  -4.662  82.461  0.00  0.00    +0.155 HD
ATOM     37  N   UNL     1     -39.497  -4.360  84.817  0.00  0.00    -0.214 NA
BRANCH   4   3
ATOM      1  C   UNL     1     -38.835  -2.186  89.177  0.00  0.00    +0.020 A 
ATOM      2  C   UNL     1     -39.350  -3.283  88.388  0.00  0.00    +0.013 A 
ATOM      3  C   UNL     1     -39.505  -3.154  86.945  0.00  0.00    +0.019 A 
ATOM     38  C   UNL     1     -39.126  -1.893  86.325  0.00  0.00    +0.120 A 
ATOM     39  N   UNL     1     -38.635  -0.854  87.109  0.00  0.00    -0.263 NA
ATOM     40  C   UNL     1     -38.483  -0.966  88.500  0.00  0.00    +0.111 A 
ENDBRANCH   4   3
ENDBRANCH  10   9
BRANCH  12  13
ATOM     13  N   UNL     1     -42.133  -6.806  78.883  0.00  0.00    -0.281 N 
ATOM     14  C   UNL     1     -43.419  -6.341  79.106  0.00  0.00    +0.248 C 
ATOM     30  O   UNL     1     -43.942  -6.256  80.208  0.00  0.00    -0.270 OA
ATOM     31  H   UNL     1     -41.892  -7.009  77.913  0.00  0.00    +0.155 HD
BRANCH  14  15
ATOM     15  C   UNL     1     -44.249  -5.923  77.936  0.00  0.00    +0.037 A 
ATOM     16  C   UNL     1     -45.704  -5.785  78.046  0.00  0.00    +0.013 A 
ATOM     17  C   UNL     1     -46.483  -5.397  76.897  0.00  0.00    +0.005 A 
ATOM     18  C   UNL     1     -45.808  -5.143  75.627  0.00  0.00    -0.033 A 
ATOM     28  C   UNL     1     -44.363  -5.284  75.546  0.00  0.00    +0.005 A 
ATOM     29  C   UNL     1     -43.597  -5.664  76.670  0.00  0.00    +0.013 A 
BRANCH  18  19
ATOM     19  C   UNL     1     -46.562  -4.746  74.344  0.00  0.00    +0.119 C 
BRANCH  19  20
ATOM     20  N   UNL     1     -46.908  -3.303  74.174  0.00  0.00    -0.302 NA
ATOM     21  C   UNL     1     -45.851  -2.382  74.789  0.00  0.00    +0.066 C 
ATOM     22  C   UNL     1     -46.218  -0.877  74.582  0.00  0.00    -0.064 C 
ATOM     23  N   UNL     1     -47.595  -0.602  75.189  0.00  0.00    +0.379 N 
ATOM     24  C   UNL     1     -47.917   0.825  75.047  0.00  0.00    -0.096 C 
ATOM     25  H   UNL     1     -47.535  -0.829  76.279  0.00  0.00    -0.082 HD
ATOM     26  C   UNL     1     -48.652  -1.516  74.585  0.00  0.00    -0.064 C 
ATOM     27  C   UNL     1     -48.263  -3.009  74.770  0.00  0.00    +0.066 C 
ENDBRANCH  19  20
ENDBRANCH  18  19
ENDBRANCH  14  15
ENDBRANCH  12  13
TORSDOF 6
ENDMDL
MODEL 5
REMARK VINA RESULT:      -8.6      6.136     10.417
REMARK  Name = C:\Users\Docking\Desktop\test protocol\1iep_ligandH.pdb
REMARK  8 active torsions:
REMARK  status: ('A' for Active; 'I' for Inactive)
REMARK    1  A    between atoms: _5  and  _11
REMARK    2  A    between atoms: _19  and  _21
REMARK    3  A    between atoms: _22  and  _66
REMARK    4  A    between atoms: _27  and  _30
REMARK    5  A    between atoms: _32  and  _33
REMARK    6  A    between atoms: _38  and  _43
REMARK    7  A    between atoms: _43  and  _46
REMARK    8  A    between atoms: _53  and  _55
REMARK                            x       y       z     vdW  Elec       q    Type
REMARK                         _______ _______ _______ _____ _____    ______ ____
ROOT
ATOM     10  C   UNL     1     -67.975  12.443  91.765  0.00  0.00    +0.038 A 
ATOM     11  C   UNL     1     -68.498  13.525  92.518  0.00  0.00    +0.047 A 
ATOM     12  C   UNL     1     -69.639  13.345  93.402  0.00  0.00    +0.035 A 
ATOM     32  C   UNL     1     -70.222  12.047  93.497  0.00  0.00    +0.024 A 
ATOM     33  C   UNL     1     -69.704  10.937  92.737  0.00  0.00    +0.007 A 
ATOM     34  C   UNL     1     -68.580  11.109  91.862  0.00  0.00    -0.029 A 
ATOM     35  C   UNL     1     -68.071   9.884  91.067  0.00  0.00    +0.045 C 
ENDROOT
BRANCH  10   9
ATOM      4  C   UNL     1     -63.269  12.312  90.831  0.00  0.00    +0.077 A 
ATOM      5  C   UNL     1     -62.968  11.765  92.123  0.00  0.00    +0.048 A 
ATOM      6  C   UNL     1     -64.052  11.539  93.001  0.00  0.00    +0.116 A 
ATOM      7  N   UNL     1     -65.337  11.841  92.605  0.00  0.00    -0.223 NA
ATOM      8  C   UNL     1     -65.592  12.369  91.353  0.00  0.00    +0.220 A 
ATOM      9  N   UNL     1     -66.878  12.672  90.932  0.00  0.00    -0.283 N 
ATOM     36  H   UNL     1     -67.024  13.068  90.003  0.00  0.00    +0.155 HD
ATOM     37  N   UNL     1     -64.574  12.595  90.497  0.00  0.00    -0.214 NA
BRANCH   4   3
ATOM      1  C   UNL     1     -61.142  14.103  88.080  0.00  0.00    +0.020 A 
ATOM      2  C   UNL     1     -62.164  13.871  89.075  0.00  0.00    +0.013 A 
ATOM      3  C   UNL     1     -62.232  12.604  89.792  0.00  0.00    +0.019 A 
ATOM     38  C   UNL     1     -61.242  11.585  89.478  0.00  0.00    +0.120 A 
ATOM     39  N   UNL     1     -60.270  11.836  88.514  0.00  0.00    -0.263 NA
ATOM     40  C   UNL     1     -60.196  13.051  87.816  0.00  0.00    +0.111 A 
ENDBRANCH   4   3
ENDBRANCH  10   9
BRANCH  12  13
ATOM     13  N   UNL     1     -70.218  14.408  94.186  0.00  0.00    -0.281 N 
ATOM     14  C   UNL     1     -70.145  14.592  95.557  0.00  0.00    +0.248 C 
ATOM     30  O   UNL     1     -69.748  13.749  96.347  0.00  0.00    -0.270 OA
ATOM     31  H   UNL     1     -70.745  15.110  93.666  0.00  0.00    +0.155 HD
BRANCH  14  15
ATOM     15  C   UNL     1     -70.592  15.896  96.134  0.00  0.00    +0.037 A 
ATOM     16  C   UNL     1     -69.779  16.607  97.125  0.00  0.00    +0.013 A 
ATOM     17  C   UNL     1     -70.241  17.855  97.679  0.00  0.00    +0.005 A 
ATOM     18  C   UNL     1     -71.523  18.401  97.242  0.00  0.00    -0.033 A 
ATOM     28  C   UNL     1     -72.307  17.678  96.254  0.00  0.00    +0.005 A 
ATOM     29  C   UNL     1     -71.858  16.454  95.710  0.00  0.00    +0.013 A 
BRANCH  18  19
ATOM     19  C   UNL     1     -72.104  19.716  97.795  0.00  0.00    +0.119 C 
BRANCH  19  20
ATOM     20  N   UNL     1     -72.869  20.578  96.846  0.00  0.00    -0.302 NA
ATOM     21  C   UNL     1     -71.970  21.175  95.760  0.00  0.00    +0.066 C 
ATOM     22  C   UNL     1     -72.791  22.056  94.762  0.00  0.00    -0.064 C 
ATOM     23  N   UNL     1     -73.512  23.161  95.536  0.00  0.00    +0.379 N 
ATOM     24  C   UNL     1     -74.238  24.026  94.595  0.00  0.00    -0.096 C 
ATOM     25  H   UNL     1     -72.736  23.784  96.038  0.00  0.00    -0.082 HD
ATOM     26  C   UNL     1     -74.406  22.576  96.620  0.00  0.00    -0.064 C 
ATOM     27  C   UNL     1     -73.586  21.679  97.589  0.00  0.00    +0.066 C 
ENDBRANCH  19  20
ENDBRANCH  18  19
ENDBRANCH  14  15
ENDBRANCH  12  13
TORSDOF 6
ENDMDL
