MODEL 1
REMARK VINA RESULT:      -9.5      0.000      0.000
REMARK  Name = C:\Users\Docking\Desktop\test protocol\1iep_ligandH.pdb
REMARK  8 active torsions:
REMARK  status: ('A' for Active; 'I' for Inactive)
REMARK    1  A    between atoms: _5  and  _11
REMARK    2  A    between atoms: _19  and  _21
REMARK    3  A    between atoms: _22  and  _66
REMARK    4  A    between atoms: _27  and  _30
REMARK    5  A    between atoms: _32  and  _33
REMARK    6  A    between atoms: _38  and  _43
REMARK    7  A    between atoms: _43  and  _46
REMARK    8  A    between atoms: _53  and  _55
REMARK                            x       y       z     vdW  Elec       q    Type
REMARK                         _______ _______ _______ _____ _____    ______ ____
ROOT
ATOM     10  C   UNL     1     -68.496  11.432  92.376  0.00  0.00    +0.038 A 
ATOM     11  C   UNL     1     -69.081  10.222  92.827  0.00  0.00    +0.047 A 
ATOM     12  C   UNL     1     -70.372  10.214  93.497  0.00  0.00    +0.035 A 
ATOM     32  C   UNL     1     -71.042  11.457  93.687  0.00  0.00    +0.024 A 
ATOM     33  C   UNL     1     -70.462  12.697  93.235  0.00  0.00    +0.007 A 
ATOM     34  C   UNL     1     -69.187  12.712  92.577  0.00  0.00    -0.029 A 
ATOM     35  C   UNL     1     -68.609  14.071  92.119  0.00  0.00    +0.045 C 
ENDROOT
BRANCH  10   9
ATOM      4  C   UNL     1     -63.697  11.482  92.449  0.00  0.00    +0.077 A 
ATOM      5  C   UNL     1     -63.662  11.651  93.873  0.00  0.00    +0.048 A 
ATOM      6  C   UNL     1     -64.900  11.727  94.549  0.00  0.00    +0.116 A 
ATOM      7  N   UNL     1     -66.080  11.640  93.842  0.00  0.00    -0.223 NA
ATOM      8  C   UNL     1     -66.079  11.479  92.469  0.00  0.00    +0.220 A 
ATOM      9  N   UNL     1     -67.254  11.381  91.739  0.00  0.00    -0.283 N 
ATOM     36  H   UNL     1     -67.210  11.271  90.726  0.00  0.00    +0.155 HD
ATOM     37  N   UNL     1     -64.909  11.405  91.800  0.00  0.00    -0.214 NA
BRANCH   4   3
ATOM      1  C   UNL     1     -60.081  10.687  91.188  0.00  0.00    +0.020 A 
ATOM      2  C   UNL     1     -61.236  10.759  92.053  0.00  0.00    +0.013 A 
ATOM      3  C   UNL     1     -62.472  11.381  91.595  0.00  0.00    +0.019 A 
ATOM     38  C   UNL     1     -62.506  11.925  90.245  0.00  0.00    +0.120 A 
ATOM     39  N   UNL     1     -61.378  11.842  89.435  0.00  0.00    -0.263 NA
ATOM     40  C   UNL     1     -60.183  11.247  89.866  0.00  0.00    +0.111 A 
ENDBRANCH   4   3
ENDBRANCH  10   9
BRANCH  12  13
ATOM     13  N   UNL     1     -71.012   9.017  93.984  0.00  0.00    -0.281 N 
ATOM     14  C   UNL     1     -71.389   8.722  95.284  0.00  0.00    +0.248 C 
ATOM     30  O   UNL     1     -71.039   9.358  96.267  0.00  0.00    -0.270 OA
ATOM     31  H   UNL     1     -71.210   8.300  93.286  0.00  0.00    +0.155 HD
BRANCH  14  15
ATOM     15  C   UNL     1     -72.271   7.541  95.529  0.00  0.00    +0.037 A 
ATOM     16  C   UNL     1     -72.032   6.634  96.655  0.00  0.00    +0.013 A 
ATOM     17  C   UNL     1     -72.889   5.493  96.859  0.00  0.00    +0.005 A 
ATOM     18  C   UNL     1     -73.994   5.252  95.934  0.00  0.00    -0.033 A 
ATOM     28  C   UNL     1     -74.211   6.170  94.829  0.00  0.00    +0.005 A 
ATOM     29  C   UNL     1     -73.373   7.289  94.625  0.00  0.00    +0.013 A 
BRANCH  18  19
ATOM     19  C   UNL     1     -74.944   4.047  96.063  0.00  0.00    +0.119 C 
BRANCH  19  20
ATOM     20  N   UNL     1     -74.323   2.704  96.264  0.00  0.00    -0.302 NA
ATOM     21  C   UNL     1     -74.054   1.990  94.937  0.00  0.00    +0.066 C 
ATOM     22  C   UNL     1     -73.384   0.597  95.165  0.00  0.00    -0.064 C 
ATOM     23  N   UNL     1     -74.279  -0.255  96.067  0.00  0.00    +0.379 N 
ATOM     24  C   UNL     1     -73.679  -1.587  96.236  0.00  0.00    -0.096 C 
ATOM     25  H   UNL     1     -75.255  -0.388  95.545  0.00  0.00    -0.082 HD
ATOM     26  C   UNL     1     -74.553   0.448  97.388  0.00  0.00    -0.064 C 
ATOM     27  C   UNL     1     -75.193   1.844  97.149  0.00  0.00    +0.066 C 
ENDBRANCH  19  20
ENDBRANCH  18  19
ENDBRANCH  14  15
ENDBRANCH  12  13
TORSDOF 6
ENDMDL
MODEL 2
REMARK VINA RESULT:      -9.4     58.995     64.645
REMARK  Name = C:\Users\Docking\Desktop\test protocol\1iep_ligandH.pdb
REMARK  8 active torsions:
REMARK  status: ('A' for Active; 'I' for Inactive)
REMARK    1  A    between atoms: _5  and  _11
REMARK    2  A    between atoms: _19  and  _21
REMARK    3  A    between atoms: _22  and  _66
REMARK    4  A    between atoms: _27  and  _30
REMARK    5  A    between atoms: _32  and  _33
REMARK    6  A    between atoms: _38  and  _43
REMARK    7  A    between atoms: _43  and  _46
REMARK    8  A    between atoms: _53  and  _55
REMARK                            x       y       z     vdW  Elec       q    Type
REMARK                         _______ _______ _______ _____ _____    ______ ____
ROOT
ATOM     10  C   UNL     1     -14.588  -9.865  74.851  0.00  0.00    +0.038 A 
ATOM     11  C   UNL     1     -13.195  -9.649  74.697  0.00  0.00    +0.047 A 
ATOM     12  C   UNL     1     -12.484  -8.698  75.537  0.00  0.00    +0.035 A 
ATOM     32  C   UNL     1     -13.223  -7.986  76.527  0.00  0.00    +0.024 A 
ATOM     33  C   UNL     1     -14.640  -8.193  76.696  0.00  0.00    +0.007 A 
ATOM     34  C   UNL     1     -15.347  -9.128  75.868  0.00  0.00    -0.029 A 
ATOM     35  C   UNL     1     -16.867  -9.305  76.090  0.00  0.00    +0.045 C 
ENDROOT
BRANCH  10   9
ATOM      4  C   UNL     1     -16.677 -11.094  70.708  0.00  0.00    +0.077 A 
ATOM      5  C   UNL     1     -16.520  -9.774  70.169  0.00  0.00    +0.048 A 
ATOM      6  C   UNL     1     -15.903  -8.806  70.993  0.00  0.00    +0.116 A 
ATOM      7  N   UNL     1     -15.479  -9.144  72.260  0.00  0.00    -0.223 NA
ATOM      8  C   UNL     1     -15.647 -10.426  72.749  0.00  0.00    +0.220 A 
ATOM      9  N   UNL     1     -15.220 -10.791  74.017  0.00  0.00    -0.283 N 
ATOM     36  H   UNL     1     -15.369 -11.745  74.344  0.00  0.00    +0.155 HD
ATOM     37  N   UNL     1     -16.234 -11.369  71.983  0.00  0.00    -0.214 NA
BRANCH   4   3
ATOM      1  C   UNL     1     -19.298 -13.432  68.986  0.00  0.00    +0.020 A 
ATOM      2  C   UNL     1     -18.741 -12.316  69.716  0.00  0.00    +0.013 A 
ATOM      3  C   UNL     1     -17.307 -12.227  69.958  0.00  0.00    +0.019 A 
ATOM     38  C   UNL     1     -16.457 -13.290  69.444  0.00  0.00    +0.120 A 
ATOM     39  N   UNL     1     -17.022 -14.353  68.745  0.00  0.00    -0.263 NA
ATOM     40  C   UNL     1     -18.401 -14.450  68.507  0.00  0.00    +0.111 A 
ENDBRANCH   4   3
ENDBRANCH  10   9
BRANCH  12  13
ATOM     13  N   UNL     1     -11.072  -8.430  75.422  0.00  0.00    -0.281 N 
ATOM     14  C   UNL     1     -10.027  -9.338  75.461  0.00  0.00    +0.248 C 
ATOM     30  O   UNL     1     -10.136 -10.502  75.817  0.00  0.00    -0.270 OA
ATOM     31  H   UNL     1     -10.811  -7.452  75.296  0.00  0.00    +0.155 HD
BRANCH  14  15
ATOM     15  C   UNL     1      -8.660  -8.884  75.060  0.00  0.00    +0.037 A 
ATOM     16  C   UNL     1      -7.984  -7.794  75.768  0.00  0.00    +0.013 A 
ATOM     17  C   UNL     1      -6.673  -7.364  75.350  0.00  0.00    +0.005 A 
ATOM     18  C   UNL     1      -6.029  -8.027  74.219  0.00  0.00    -0.033 A 
ATOM     28  C   UNL     1      -6.720  -9.110  73.538  0.00  0.00    +0.005 A 
ATOM     29  C   UNL     1      -8.006  -9.533  73.944  0.00  0.00    +0.013 A 
BRANCH  18  19
ATOM     19  C   UNL     1      -4.640  -7.620  73.691  0.00  0.00    +0.119 C 
BRANCH  19  20
ATOM     20  N   UNL     1      -4.595  -6.597  72.604  0.00  0.00    -0.302 NA
ATOM     21  C   UNL     1      -5.663  -5.516  72.788  0.00  0.00    +0.066 C 
ATOM     22  C   UNL     1      -5.587  -4.441  71.655  0.00  0.00    -0.064 C 
ATOM     23  N   UNL     1      -5.737  -5.126  70.296  0.00  0.00    +0.379 N 
ATOM     24  C   UNL     1      -5.724  -4.112  69.231  0.00  0.00    -0.096 C 
ATOM     25  H   UNL     1      -6.735  -5.623  70.276  0.00  0.00    -0.082 HD
ATOM     26  C   UNL     1      -4.680  -6.204  70.106  0.00  0.00    -0.064 C 
ATOM     27  C   UNL     1      -4.746  -7.251  71.253  0.00  0.00    +0.066 C 
ENDBRANCH  19  20
ENDBRANCH  18  19
ENDBRANCH  14  15
ENDBRANCH  12  13
TORSDOF 6
ENDMDL
MODEL 3
REMARK VINA RESULT:      -8.8      2.179      3.133
REMARK  Name = C:\Users\Docking\Desktop\test protocol\1iep_ligandH.pdb
REMARK  8 active torsions:
REMARK  status: ('A' for Active; 'I' for Inactive)
REMARK    1  A    between atoms: _5  and  _11
REMARK    2  A    between atoms: _19  and  _21
REMARK    3  A    between atoms: _22  and  _66
REMARK    4  A    between atoms: _27  and  _30
REMARK    5  A    between atoms: _32  and  _33
REMARK    6  A    between atoms: _38  and  _43
REMARK    7  A    between atoms: _43  and  _46
REMARK    8  A    between atoms: _53  and  _55
REMARK                            x       y       z     vdW  Elec       q    Type
REMARK                         _______ _______ _______ _____ _____    ______ ____
ROOT
ATOM     10  C   UNL     1     -66.271  12.372  95.270  0.00  0.00    +0.038 A 
ATOM     11  C   UNL     1     -67.335  11.435  95.316  0.00  0.00    +0.047 A 
ATOM     12  C   UNL     1     -68.608  11.772  95.933  0.00  0.00    +0.035 A 
ATOM     32  C   UNL     1     -68.764  13.074  96.492  0.00  0.00    +0.024 A 
ATOM     33  C   UNL     1     -67.692  14.038  96.455  0.00  0.00    +0.007 A 
ATOM     34  C   UNL     1     -66.433  13.710  95.849  0.00  0.00    -0.029 A 
ATOM     35  C   UNL     1     -65.318  14.781  95.844  0.00  0.00    +0.045 C 
ENDROOT
BRANCH  10   9
ATOM      4  C   UNL     1     -63.483  11.769  91.409  0.00  0.00    +0.077 A 
ATOM      5  C   UNL     1     -64.516  12.218  90.520  0.00  0.00    +0.048 A 
ATOM      6  C   UNL     1     -65.752  12.588  91.096  0.00  0.00    +0.116 A 
ATOM      7  N   UNL     1     -65.931  12.511  92.460  0.00  0.00    -0.223 NA
ATOM      8  C   UNL     1     -64.915  12.072  93.289  0.00  0.00    +0.220 A 
ATOM      9  N   UNL     1     -65.070  11.995  94.664  0.00  0.00    -0.283 N 
ATOM     36  H   UNL     1     -64.298  11.659  95.241  0.00  0.00    +0.155 HD
ATOM     37  N   UNL     1     -63.725  11.712  92.764  0.00  0.00    -0.214 NA
BRANCH   4   3
ATOM      1  C   UNL     1     -60.226  11.330  89.287  0.00  0.00    +0.020 A 
ATOM      2  C   UNL     1     -61.547  11.766  89.681  0.00  0.00    +0.013 A 
ATOM      3  C   UNL     1     -62.121  11.347  90.953  0.00  0.00    +0.019 A 
ATOM     38  C   UNL     1     -61.327  10.480  91.811  0.00  0.00    +0.120 A 
ATOM     39  N   UNL     1     -60.059  10.075  91.405  0.00  0.00    -0.263 NA
ATOM     40  C   UNL     1     -59.497  10.471  90.183  0.00  0.00    +0.111 A 
ENDBRANCH   4   3
ENDBRANCH  10   9
BRANCH  12  13
ATOM     13  N   UNL     1     -69.721  10.860  96.017  0.00  0.00    -0.281 N 
ATOM     14  C   UNL     1     -70.677  10.592  95.051  0.00  0.00    +0.248 C 
ATOM     30  O   UNL     1     -70.844  11.258  94.040  0.00  0.00    -0.270 OA
ATOM     31  H   UNL     1     -69.816  10.350  96.895  0.00  0.00    +0.155 HD
BRANCH  14  15
ATOM     15  C   UNL     1     -71.589   9.423  95.242  0.00  0.00    +0.037 A 
ATOM     16  C   UNL     1     -71.965   8.561  94.118  0.00  0.00    +0.013 A 
ATOM     17  C   UNL     1     -72.860   7.450  94.327  0.00  0.00    +0.005 A 
ATOM     18  C   UNL     1     -73.384   7.195  95.666  0.00  0.00    -0.033 A 
ATOM     28  C   UNL     1     -72.990   8.062  96.764  0.00  0.00    +0.005 A 
ATOM     29  C   UNL     1     -72.114   9.153  96.563  0.00  0.00    +0.013 A 
BRANCH  18  19
ATOM     19  C   UNL     1     -74.360   6.045  95.977  0.00  0.00    +0.119 C 
BRANCH  19  20
ATOM     20  N   UNL     1     -74.474   4.952  94.965  0.00  0.00    -0.302 NA
ATOM     21  C   UNL     1     -75.807   5.001  94.213  0.00  0.00    +0.066 C 
ATOM     22  C   UNL     1     -75.900   3.865  93.144  0.00  0.00    -0.064 C 
ATOM     23  N   UNL     1     -75.713   2.509  93.827  0.00  0.00    +0.379 N 
ATOM     24  C   UNL     1     -75.857   1.435  92.833  0.00  0.00    -0.096 C 
ATOM     25  H   UNL     1     -76.532   2.391  94.573  0.00  0.00    -0.082 HD
ATOM     26  C   UNL     1     -74.391   2.452  94.579  0.00  0.00    -0.064 C 
ATOM     27  C   UNL     1     -74.297   3.604  95.619  0.00  0.00    +0.066 C 
ENDBRANCH  19  20
ENDBRANCH  18  19
ENDBRANCH  14  15
ENDBRANCH  12  13
TORSDOF 6
ENDMDL
MODEL 4
REMARK VINA RESULT:      -8.8     31.293     33.842
REMARK  Name = C:\Users\Docking\Desktop\test protocol\1iep_ligandH.pdb
REMARK  8 active torsions:
REMARK  status: ('A' for Active; 'I' for Inactive)
REMARK    1  A    between atoms: _5  and  _11
REMARK    2  A    between atoms: _19  and  _21
REMARK    3  A    between atoms: _22  and  _66
REMARK    4  A    between atoms: _27  and  _30
REMARK    5  A    between atoms: _32  and  _33
REMARK    6  A    between atoms: _38  and  _43
REMARK    7  A    between atoms: _43  and  _46
REMARK    8  A    between atoms: _53  and  _55
REMARK                            x       y       z     vdW  Elec       q    Type
REMARK                         _______ _______ _______ _____ _____    ______ ____
ROOT
ATOM     10  C   UNL     1     -39.674  -6.553  81.925  0.00  0.00    +0.038 A 
ATOM     11  C   UNL     1     -40.645  -6.163  80.968  0.00  0.00    +0.047 A 
ATOM     12  C   UNL     1     -41.128  -7.096  79.963  0.00  0.00    +0.035 A 
ATOM     32  C   UNL     1     -40.602  -8.421  79.962  0.00  0.00    +0.024 A 
ATOM     33  C   UNL     1     -39.614  -8.834  80.927  0.00  0.00    +0.007 A 
ATOM     34  C   UNL     1     -39.132  -7.917  81.920  0.00  0.00    -0.029 A 
ATOM     35  C   UNL     1     -38.067  -8.413  82.926  0.00  0.00    +0.045 C 
ENDROOT
BRANCH  10   9
ATOM      4  C   UNL     1     -40.147  -4.227  86.097  0.00  0.00    +0.077 A 
ATOM      5  C   UNL     1     -41.364  -4.917  86.412  0.00  0.00    +0.048 A 
ATOM      6  C   UNL     1     -41.839  -5.858  85.471  0.00  0.00    +0.116 A 
ATOM      7  N   UNL     1     -41.140  -6.084  84.305  0.00  0.00    -0.223 NA
ATOM      8  C   UNL     1     -39.970  -5.400  84.031  0.00  0.00    +0.220 A 
ATOM      9  N   UNL     1     -39.246  -5.616  82.869  0.00  0.00    -0.283 N 
ATOM     36  H   UNL     1     -38.392  -5.086  82.700  0.00  0.00    +0.155 HD
ATOM     37  N   UNL     1     -39.496  -4.495  84.913  0.00  0.00    -0.214 NA
BRANCH   4   3
ATOM      1  C   UNL     1     -38.661  -2.419  89.231  0.00  0.00    +0.020 A 
ATOM      2  C   UNL     1     -39.274  -3.438  88.411  0.00  0.00    +0.013 A 
ATOM      3  C   UNL     1     -39.517  -3.206  86.993  0.00  0.00    +0.019 A 
ATOM     38  C   UNL     1     -39.125  -1.922  86.431  0.00  0.00    +0.120 A 
ATOM     39  N   UNL     1     -38.538  -0.959  87.246  0.00  0.00    -0.263 NA
ATOM     40  C   UNL     1     -38.301  -1.170  88.613  0.00  0.00    +0.111 A 
ENDBRANCH   4   3
ENDBRANCH  10   9
BRANCH  12  13
ATOM     13  N   UNL     1     -42.107  -6.755  78.961  0.00  0.00    -0.281 N 
ATOM     14  C   UNL     1     -43.485  -6.704  79.098  0.00  0.00    +0.248 C 
ATOM     30  O   UNL     1     -44.101  -7.156  80.052  0.00  0.00    -0.270 OA
ATOM     31  H   UNL     1     -41.740  -6.521  78.038  0.00  0.00    +0.155 HD
BRANCH  14  15
ATOM     15  C   UNL     1     -44.296  -6.075  78.012  0.00  0.00    +0.037 A 
ATOM     16  C   UNL     1     -45.505  -5.305  78.316  0.00  0.00    +0.013 A 
ATOM     17  C   UNL     1     -46.279  -4.722  77.248  0.00  0.00    +0.005 A 
ATOM     18  C   UNL     1     -45.844  -4.907  75.866  0.00  0.00    -0.033 A 
ATOM     28  C   UNL     1     -44.638  -5.670  75.593  0.00  0.00    +0.005 A 
ATOM     29  C   UNL     1     -43.878  -6.244  76.637  0.00  0.00    +0.013 A 
BRANCH  18  19
ATOM     19  C   UNL     1     -46.620  -4.338  74.662  0.00  0.00    +0.119 C 
BRANCH  19  20
ATOM     20  N   UNL     1     -46.962  -2.885  74.694  0.00  0.00    -0.302 NA
ATOM     21  C   UNL     1     -47.871  -2.484  73.529  0.00  0.00    +0.066 C 
ATOM     22  C   UNL     1     -48.237  -0.965  73.590  0.00  0.00    -0.064 C 
ATOM     23  N   UNL     1     -46.954  -0.133  73.586  0.00  0.00    +0.379 N 
ATOM     24  C   UNL     1     -47.296   1.297  73.585  0.00  0.00    -0.096 C 
ATOM     25  H   UNL     1     -46.412  -0.352  72.637  0.00  0.00    -0.082 HD
ATOM     26  C   UNL     1     -46.042  -0.528  74.740  0.00  0.00    -0.064 C 
ATOM     27  C   UNL     1     -45.708  -2.045  74.686  0.00  0.00    +0.066 C 
ENDBRANCH  19  20
ENDBRANCH  18  19
ENDBRANCH  14  15
ENDBRANCH  12  13
TORSDOF 6
ENDMDL
MODEL 5
REMARK VINA RESULT:      -8.6     58.115     63.804
REMARK  Name = C:\Users\Docking\Desktop\test protocol\1iep_ligandH.pdb
REMARK  8 active torsions:
REMARK  status: ('A' for Active; 'I' for Inactive)
REMARK    1  A    between atoms: _5  and  _11
REMARK    2  A    between atoms: _19  and  _21
REMARK    3  A    between atoms: _22  and  _66
REMARK    4  A    between atoms: _27  and  _30
REMARK    5  A    between atoms: _32  and  _33
REMARK    6  A    between atoms: _38  and  _43
REMARK    7  A    between atoms: _43  and  _46
REMARK    8  A    between atoms: _53  and  _55
REMARK                            x       y       z     vdW  Elec       q    Type
REMARK                         _______ _______ _______ _____ _____    ______ ____
ROOT
ATOM     10  C   UNL     1     -15.094  -9.108  75.454  0.00  0.00    +0.038 A 
ATOM     11  C   UNL     1     -13.700  -9.330  75.595  0.00  0.00    +0.047 A 
ATOM     12  C   UNL     1     -12.917  -8.599  76.580  0.00  0.00    +0.035 A 
ATOM     32  C   UNL     1     -13.587  -7.651  77.407  0.00  0.00    +0.024 A 
ATOM     33  C   UNL     1     -15.003  -7.412  77.276  0.00  0.00    +0.007 A 
ATOM     34  C   UNL     1     -15.780  -8.128  76.305  0.00  0.00    -0.029 A 
ATOM     35  C   UNL     1     -17.293  -7.826  76.205  0.00  0.00    +0.045 C 
ENDROOT
BRANCH  10   9
ATOM      4  C   UNL     1     -16.670  -9.784  70.972  0.00  0.00    +0.077 A 
ATOM      5  C   UNL     1     -16.065  -8.567  70.512  0.00  0.00    +0.048 A 
ATOM      6  C   UNL     1     -15.363  -7.792  71.463  0.00  0.00    +0.116 A 
ATOM      7  N   UNL     1     -15.279  -8.213  72.772  0.00  0.00    -0.223 NA
ATOM      8  C   UNL     1     -15.876  -9.391  73.183  0.00  0.00    +0.220 A 
ATOM      9  N   UNL     1     -15.797  -9.837  74.493  0.00  0.00    -0.283 N 
ATOM     36  H   UNL     1     -16.257 -10.708  74.757  0.00  0.00    +0.155 HD
ATOM     37  N   UNL     1     -16.553 -10.148  72.294  0.00  0.00    -0.214 NA
BRANCH   4   3
ATOM      1  C   UNL     1     -18.430 -12.965  69.529  0.00  0.00    +0.020 A 
ATOM      2  C   UNL     1     -17.677 -12.111  70.419  0.00  0.00    +0.013 A 
ATOM      3  C   UNL     1     -17.443 -10.712  70.086  0.00  0.00    +0.019 A 
ATOM     38  C   UNL     1     -17.989 -10.203  68.837  0.00  0.00    +0.120 A 
ATOM     39  N   UNL     1     -18.709 -11.049  68.000  0.00  0.00    -0.263 NA
ATOM     40  C   UNL     1     -18.939 -12.398  68.308  0.00  0.00    +0.111 A 
ENDBRANCH   4   3
ENDBRANCH  10   9
BRANCH  12  13
ATOM     13  N   UNL     1     -11.498  -8.777  76.763  0.00  0.00    -0.281 N 
ATOM     14  C   UNL     1     -10.818  -9.046  77.939  0.00  0.00    +0.248 C 
ATOM     30  O   UNL     1     -11.309  -8.964  79.055  0.00  0.00    -0.270 OA
ATOM     31  H   UNL     1     -10.925  -8.693  75.923  0.00  0.00    +0.155 HD
BRANCH  14  15
ATOM     15  C   UNL     1      -9.382  -9.452  77.866  0.00  0.00    +0.037 A 
ATOM     16  C   UNL     1      -8.560  -9.558  79.074  0.00  0.00    +0.013 A 
ATOM     17  C   UNL     1      -7.172  -9.935  78.974  0.00  0.00    +0.005 A 
ATOM     18  C   UNL     1      -6.598 -10.211  77.659  0.00  0.00    -0.033 A 
ATOM     28  C   UNL     1      -7.437 -10.103  76.478  0.00  0.00    +0.005 A 
ATOM     29  C   UNL     1      -8.798  -9.732  76.572  0.00  0.00    +0.013 A 
BRANCH  18  19
ATOM     19  C   UNL     1      -5.121 -10.599  77.456  0.00  0.00    +0.119 C 
BRANCH  19  20
ATOM     20  N   UNL     1      -4.778 -12.049  77.541  0.00  0.00    -0.302 NA
ATOM     21  C   UNL     1      -4.418 -12.636  76.173  0.00  0.00    +0.066 C 
ATOM     22  C   UNL     1      -4.039 -14.149  76.284  0.00  0.00    -0.064 C 
ATOM     23  N   UNL     1      -5.202 -14.918  76.914  0.00  0.00    +0.379 N 
ATOM     24  C   UNL     1      -4.872 -16.349  76.966  0.00  0.00    -0.096 C 
ATOM     25  H   UNL     1      -6.087 -14.798  76.247  0.00  0.00    -0.082 HD
ATOM     26  C   UNL     1      -5.568 -14.339  78.274  0.00  0.00    -0.064 C 
ATOM     27  C   UNL     1      -5.914 -12.829  78.157  0.00  0.00    +0.066 C 
ENDBRANCH  19  20
ENDBRANCH  18  19
ENDBRANCH  14  15
ENDBRANCH  12  13
TORSDOF 6
ENDMDL
