MODEL 1
REMARK VINA RESULT:     -11.5      0.000      0.000
REMARK  Name = C:\Users\Docking\Desktop\test protocol\1iep_ligandH.pdb
REMARK  8 active torsions:
REMARK  status: ('A' for Active; 'I' for Inactive)
REMARK    1  A    between atoms: _5  and  _11
REMARK    2  A    between atoms: _19  and  _21
REMARK    3  A    between atoms: _22  and  _66
REMARK    4  A    between atoms: _27  and  _30
REMARK    5  A    between atoms: _32  and  _33
REMARK    6  A    between atoms: _38  and  _43
REMARK    7  A    between atoms: _43  and  _46
REMARK    8  A    between atoms: _53  and  _55
REMARK                            x       y       z     vdW  Elec       q    Type
REMARK                         _______ _______ _______ _____ _____    ______ ____
ROOT
ATOM     10  C   UNL     1     -16.180  -6.425  62.060  0.00  0.00    +0.038 A 
ATOM     11  C   UNL     1     -15.945  -6.779  63.414  0.00  0.00    +0.047 A 
ATOM     12  C   UNL     1     -17.027  -7.235  64.272  0.00  0.00    +0.035 A 
ATOM     32  C   UNL     1     -18.338  -7.321  63.717  0.00  0.00    +0.024 A 
ATOM     33  C   UNL     1     -18.595  -6.965  62.344  0.00  0.00    +0.007 A 
ATOM     34  C   UNL     1     -17.532  -6.512  61.494  0.00  0.00    -0.029 A 
ATOM     35  C   UNL     1     -17.867  -6.137  60.032  0.00  0.00    +0.045 C 
ENDROOT
BRANCH  10   9
ATOM      4  C   UNL     1     -13.506  -2.966  60.081  0.00  0.00    +0.077 A 
ATOM      5  C   UNL     1     -14.340  -1.931  60.622  0.00  0.00    +0.048 A 
ATOM      6  C   UNL     1     -15.450  -2.331  61.398  0.00  0.00    +0.116 A 
ATOM      7  N   UNL     1     -15.699  -3.669  61.611  0.00  0.00    -0.223 NA
ATOM      8  C   UNL     1     -14.877  -4.642  61.074  0.00  0.00    +0.220 A 
ATOM      9  N   UNL     1     -15.104  -5.994  61.282  0.00  0.00    -0.283 N 
ATOM     36  H   UNL     1     -14.478  -6.681  60.862  0.00  0.00    +0.155 HD
ATOM     37  N   UNL     1     -13.811  -4.286  60.328  0.00  0.00    -0.214 NA
BRANCH   4   3
ATOM      1  C   UNL     1      -9.810  -2.378  58.944  0.00  0.00    +0.020 A 
ATOM      2  C   UNL     1     -10.947  -2.635  59.797  0.00  0.00    +0.013 A 
ATOM      3  C   UNL     1     -12.294  -2.702  59.243  0.00  0.00    +0.019 A 
ATOM     38  C   UNL     1     -12.456  -2.503  57.811  0.00  0.00    +0.120 A 
ATOM     39  N   UNL     1     -11.342  -2.256  57.014  0.00  0.00    -0.263 NA
ATOM     40  C   UNL     1     -10.042  -2.188  57.537  0.00  0.00    +0.111 A 
ENDBRANCH   4   3
ENDBRANCH  10   9
BRANCH  12  13
ATOM     13  N   UNL     1     -16.850  -7.600  65.655  0.00  0.00    -0.281 N 
ATOM     14  C   UNL     1     -17.231  -8.775  66.281  0.00  0.00    +0.248 C 
ATOM     30  O   UNL     1     -17.979  -9.609  65.791  0.00  0.00    -0.270 OA
ATOM     31  H   UNL     1     -16.387  -6.908  66.244  0.00  0.00    +0.155 HD
BRANCH  14  15
ATOM     15  C   UNL     1     -16.720  -9.059  67.657  0.00  0.00    +0.037 A 
ATOM     16  C   UNL     1     -16.103 -10.346  67.988  0.00  0.00    +0.013 A 
ATOM     17  C   UNL     1     -15.634 -10.600  69.327  0.00  0.00    +0.005 A 
ATOM     18  C   UNL     1     -15.779  -9.563  70.346  0.00  0.00    -0.033 A 
ATOM     28  C   UNL     1     -16.391  -8.293  69.989  0.00  0.00    +0.005 A 
ATOM     29  C   UNL     1     -16.852  -8.041  68.677  0.00  0.00    +0.013 A 
BRANCH  18  19
ATOM     19  C   UNL     1     -15.326  -9.755  71.805  0.00  0.00    +0.119 C 
BRANCH  19  20
ATOM     20  N   UNL     1     -15.899  -8.828  72.826  0.00  0.00    -0.302 NA
ATOM     21  C   UNL     1     -14.842  -7.879  73.398  0.00  0.00    +0.066 C 
ATOM     22  C   UNL     1     -15.463  -6.901  74.448  0.00  0.00    -0.064 C 
ATOM     23  N   UNL     1     -16.125  -7.710  75.565  0.00  0.00    +0.379 N 
ATOM     24  C   UNL     1     -16.660  -6.794  76.583  0.00  0.00    -0.096 C 
ATOM     25  H   UNL     1     -15.334  -8.329  76.048  0.00  0.00    -0.082 HD
ATOM     26  C   UNL     1     -17.176  -8.659  75.005  0.00  0.00    -0.064 C 
ATOM     27  C   UNL     1     -16.555  -9.606  73.941  0.00  0.00    +0.066 C 
ENDBRANCH  19  20
ENDBRANCH  18  19
ENDBRANCH  14  15
ENDBRANCH  12  13
TORSDOF 6
ENDMDL
MODEL 2
REMARK VINA RESULT:     -11.0      1.535      1.882
REMARK  Name = C:\Users\Docking\Desktop\test protocol\1iep_ligandH.pdb
REMARK  8 active torsions:
REMARK  status: ('A' for Active; 'I' for Inactive)
REMARK    1  A    between atoms: _5  and  _11
REMARK    2  A    between atoms: _19  and  _21
REMARK    3  A    between atoms: _22  and  _66
REMARK    4  A    between atoms: _27  and  _30
REMARK    5  A    between atoms: _32  and  _33
REMARK    6  A    between atoms: _38  and  _43
REMARK    7  A    between atoms: _43  and  _46
REMARK    8  A    between atoms: _53  and  _55
REMARK                            x       y       z     vdW  Elec       q    Type
REMARK                         _______ _______ _______ _____ _____    ______ ____
ROOT
ATOM     10  C   UNL     1     -16.409  -6.753  61.602  0.00  0.00    +0.038 A 
ATOM     11  C   UNL     1     -16.280  -7.428  62.843  0.00  0.00    +0.047 A 
ATOM     12  C   UNL     1     -17.450  -7.793  63.627  0.00  0.00    +0.035 A 
ATOM     32  C   UNL     1     -18.737  -7.457  63.115  0.00  0.00    +0.024 A 
ATOM     33  C   UNL     1     -18.887  -6.771  61.856  0.00  0.00    +0.007 A 
ATOM     34  C   UNL     1     -17.736  -6.406  61.080  0.00  0.00    -0.029 A 
ATOM     35  C   UNL     1     -17.956  -5.665  59.740  0.00  0.00    +0.045 C 
ENDROOT
BRANCH  10   9
ATOM      4  C   UNL     1     -12.936  -3.687  60.346  0.00  0.00    +0.077 A 
ATOM      5  C   UNL     1     -13.489  -2.638  61.153  0.00  0.00    +0.048 A 
ATOM      6  C   UNL     1     -14.672  -2.926  61.871  0.00  0.00    +0.116 A 
ATOM      7  N   UNL     1     -15.250  -4.174  61.780  0.00  0.00    -0.223 NA
ATOM      8  C   UNL     1     -14.692  -5.163  60.991  0.00  0.00    +0.220 A 
ATOM      9  N   UNL     1     -15.252  -6.427  60.891  0.00  0.00    -0.283 N 
ATOM     36  H   UNL     1     -14.814  -7.127  60.292  0.00  0.00    +0.155 HD
ATOM     37  N   UNL     1     -13.563  -4.912  60.295  0.00  0.00    -0.214 NA
BRANCH   4   3
ATOM      1  C   UNL     1      -9.768  -2.186  58.611  0.00  0.00    +0.020 A 
ATOM      2  C   UNL     1     -10.969  -2.277  59.409  0.00  0.00    +0.013 A 
ATOM      3  C   UNL     1     -11.688  -3.538  59.532  0.00  0.00    +0.019 A 
ATOM     38  C   UNL     1     -11.162  -4.698  58.829  0.00  0.00    +0.120 A 
ATOM     39  N   UNL     1     -10.004  -4.581  58.066  0.00  0.00    -0.263 NA
ATOM     40  C   UNL     1      -9.304  -3.372  57.939  0.00  0.00    +0.111 A 
ENDBRANCH   4   3
ENDBRANCH  10   9
BRANCH  12  13
ATOM     13  N   UNL     1     -17.380  -8.471  64.897  0.00  0.00    -0.281 N 
ATOM     14  C   UNL     1     -17.048  -7.936  66.131  0.00  0.00    +0.248 C 
ATOM     30  O   UNL     1     -16.551  -6.832  66.294  0.00  0.00    -0.270 OA
ATOM     31  H   UNL     1     -17.602  -9.466  64.885  0.00  0.00    +0.155 HD
BRANCH  14  15
ATOM     15  C   UNL     1     -17.291  -8.751  67.360  0.00  0.00    +0.037 A 
ATOM     16  C   UNL     1     -18.328  -9.785  67.394  0.00  0.00    +0.013 A 
ATOM     17  C   UNL     1     -18.553 -10.545  68.598  0.00  0.00    +0.005 A 
ATOM     18  C   UNL     1     -17.737 -10.274  69.779  0.00  0.00    -0.033 A 
ATOM     28  C   UNL     1     -16.711  -9.247  69.716  0.00  0.00    +0.005 A 
ATOM     29  C   UNL     1     -16.488  -8.499  68.538  0.00  0.00    +0.013 A 
BRANCH  18  19
ATOM     19  C   UNL     1     -17.921 -11.022  71.112  0.00  0.00    +0.119 C 
BRANCH  19  20
ATOM     20  N   UNL     1     -17.058 -10.602  72.257  0.00  0.00    -0.302 NA
ATOM     21  C   UNL     1     -16.972 -11.683  73.338  0.00  0.00    +0.066 C 
ATOM     22  C   UNL     1     -16.047 -11.236  74.517  0.00  0.00    -0.064 C 
ATOM     23  N   UNL     1     -16.571  -9.924  75.103  0.00  0.00    +0.379 N 
ATOM     24  C   UNL     1     -15.738  -9.532  76.249  0.00  0.00    -0.096 C 
ATOM     25  H   UNL     1     -17.602 -10.112  75.483  0.00  0.00    -0.082 HD
ATOM     26  C   UNL     1     -16.663  -8.845  74.034  0.00  0.00    -0.064 C 
ATOM     27  C   UNL     1     -17.560  -9.310  72.854  0.00  0.00    +0.066 C 
ENDBRANCH  19  20
ENDBRANCH  18  19
ENDBRANCH  14  15
ENDBRANCH  12  13
TORSDOF 6
ENDMDL
MODEL 3
REMARK VINA RESULT:      -9.4     58.009     62.874
REMARK  Name = C:\Users\Docking\Desktop\test protocol\1iep_ligandH.pdb
REMARK  8 active torsions:
REMARK  status: ('A' for Active; 'I' for Inactive)
REMARK    1  A    between atoms: _5  and  _11
REMARK    2  A    between atoms: _19  and  _21
REMARK    3  A    between atoms: _22  and  _66
REMARK    4  A    between atoms: _27  and  _30
REMARK    5  A    between atoms: _32  and  _33
REMARK    6  A    between atoms: _38  and  _43
REMARK    7  A    between atoms: _43  and  _46
REMARK    8  A    between atoms: _53  and  _55
REMARK                            x       y       z     vdW  Elec       q    Type
REMARK                         _______ _______ _______ _____ _____    ______ ____
ROOT
ATOM     10  C   UNL     1     -68.474  12.588  91.641  0.00  0.00    +0.038 A 
ATOM     11  C   UNL     1     -69.182  11.612  92.388  0.00  0.00    +0.047 A 
ATOM     12  C   UNL     1     -70.433  11.937  93.055  0.00  0.00    +0.035 A 
ATOM     32  C   UNL     1     -70.936  13.265  92.938  0.00  0.00    +0.024 A 
ATOM     33  C   UNL     1     -70.229  14.270  92.183  0.00  0.00    +0.007 A 
ATOM     34  C   UNL     1     -68.993  13.956  91.525  0.00  0.00    -0.029 A 
ATOM     35  C   UNL     1     -68.274  15.074  90.735  0.00  0.00    +0.045 C 
ENDROOT
BRANCH  10   9
ATOM      4  C   UNL     1     -63.766  11.658  91.742  0.00  0.00    +0.077 A 
ATOM      5  C   UNL     1     -63.678  11.953  93.143  0.00  0.00    +0.048 A 
ATOM      6  C   UNL     1     -64.865  12.348  93.799  0.00  0.00    +0.116 A 
ATOM      7  N   UNL     1     -66.047  12.437  93.096  0.00  0.00    -0.223 NA
ATOM      8  C   UNL     1     -66.098  12.146  91.746  0.00  0.00    +0.220 A 
ATOM      9  N   UNL     1     -67.277  12.221  91.021  0.00  0.00    -0.283 N 
ATOM     36  H   UNL     1     -67.271  12.005  90.024  0.00  0.00    +0.155 HD
ATOM     37  N   UNL     1     -64.977  11.768  91.096  0.00  0.00    -0.214 NA
BRANCH   4   3
ATOM      1  C   UNL     1     -61.036  11.477  88.946  0.00  0.00    +0.020 A 
ATOM      2  C   UNL     1     -62.171  11.938  89.714  0.00  0.00    +0.013 A 
ATOM      3  C   UNL     1     -62.599  11.224  90.910  0.00  0.00    +0.019 A 
ATOM     38  C   UNL     1     -61.852  10.040  91.307  0.00  0.00    +0.120 A 
ATOM     39  N   UNL     1     -60.765   9.620  90.547  0.00  0.00    -0.263 NA
ATOM     40  C   UNL     1     -60.344  10.297  89.393  0.00  0.00    +0.111 A 
ENDBRANCH   4   3
ENDBRANCH  10   9
BRANCH  12  13
ATOM     13  N   UNL     1     -71.192  10.990  93.834  0.00  0.00    -0.281 N 
ATOM     14  C   UNL     1     -71.676   9.754  93.437  0.00  0.00    +0.248 C 
ATOM     30  O   UNL     1     -71.713   9.366  92.278  0.00  0.00    -0.270 OA
ATOM     31  H   UNL     1     -71.397  11.264  94.795  0.00  0.00    +0.155 HD
BRANCH  14  15
ATOM     15  C   UNL     1     -72.210   8.821  94.474  0.00  0.00    +0.037 A 
ATOM     16  C   UNL     1     -71.876   8.988  95.891  0.00  0.00    +0.013 A 
ATOM     17  C   UNL     1     -72.391   8.063  96.870  0.00  0.00    +0.005 A 
ATOM     18  C   UNL     1     -73.246   6.962  96.434  0.00  0.00    -0.033 A 
ATOM     28  C   UNL     1     -73.566   6.822  95.023  0.00  0.00    +0.005 A 
ATOM     29  C   UNL     1     -73.062   7.726  94.061  0.00  0.00    +0.013 A 
BRANCH  18  19
ATOM     19  C   UNL     1     -73.822   5.915  97.406  0.00  0.00    +0.119 C 
BRANCH  19  20
ATOM     20  N   UNL     1     -73.092   5.701  98.691  0.00  0.00    -0.302 NA
ATOM     21  C   UNL     1     -71.837   4.845  98.502  0.00  0.00    +0.066 C 
ATOM     22  C   UNL     1     -71.073   4.649  99.853  0.00  0.00    -0.064 C 
ATOM     23  N   UNL     1     -72.013   4.014 100.879  0.00  0.00    +0.379 N 
ATOM     24  C   UNL     1     -71.282   3.776 102.132  0.00  0.00    -0.096 C 
ATOM     25  H   UNL     1     -72.330   3.023 100.479  0.00  0.00    -0.082 HD
ATOM     26  C   UNL     1     -73.265   4.857 101.071  0.00  0.00    -0.064 C 
ATOM     27  C   UNL     1     -74.001   5.070  99.718  0.00  0.00    +0.066 C 
ENDBRANCH  19  20
ENDBRANCH  18  19
ENDBRANCH  14  15
ENDBRANCH  12  13
TORSDOF 6
ENDMDL
MODEL 4
REMARK VINA RESULT:      -9.4      8.219     12.937
REMARK  Name = C:\Users\Docking\Desktop\test protocol\1iep_ligandH.pdb
REMARK  8 active torsions:
REMARK  status: ('A' for Active; 'I' for Inactive)
REMARK    1  A    between atoms: _5  and  _11
REMARK    2  A    between atoms: _19  and  _21
REMARK    3  A    between atoms: _22  and  _66
REMARK    4  A    between atoms: _27  and  _30
REMARK    5  A    between atoms: _32  and  _33
REMARK    6  A    between atoms: _38  and  _43
REMARK    7  A    between atoms: _43  and  _46
REMARK    8  A    between atoms: _53  and  _55
REMARK                            x       y       z     vdW  Elec       q    Type
REMARK                         _______ _______ _______ _____ _____    ______ ____
ROOT
ATOM     10  C   UNL     1     -15.319 -10.207  74.872  0.00  0.00    +0.038 A 
ATOM     11  C   UNL     1     -13.982  -9.764  74.711  0.00  0.00    +0.047 A 
ATOM     12  C   UNL     1     -13.378  -8.835  75.654  0.00  0.00    +0.035 A 
ATOM     32  C   UNL     1     -14.165  -8.380  76.752  0.00  0.00    +0.024 A 
ATOM     33  C   UNL     1     -15.527  -8.819  76.930  0.00  0.00    +0.007 A 
ATOM     34  C   UNL     1     -16.128  -9.733  76.002  0.00  0.00    -0.029 A 
ATOM     35  C   UNL     1     -17.594 -10.166  76.239  0.00  0.00    +0.045 C 
ENDROOT
BRANCH  10   9
ATOM      4  C   UNL     1     -17.094 -11.231  70.532  0.00  0.00    +0.077 A 
ATOM      5  C   UNL     1     -16.982  -9.867  70.099  0.00  0.00    +0.048 A 
ATOM      6  C   UNL     1     -16.470  -8.932  71.027  0.00  0.00    +0.116 A 
ATOM      7  N   UNL     1     -16.100  -9.342  72.289  0.00  0.00    -0.223 NA
ATOM      8  C   UNL     1     -16.222 -10.664  72.675  0.00  0.00    +0.220 A 
ATOM      9  N   UNL     1     -15.849 -11.099  73.937  0.00  0.00    -0.283 N 
ATOM     36  H   UNL     1     -15.962 -12.082  74.185  0.00  0.00    +0.155 HD
ATOM     37  N   UNL     1     -16.710 -11.576  71.808  0.00  0.00    -0.214 NA
BRANCH   4   3
ATOM      1  C   UNL     1     -19.469 -13.798  68.780  0.00  0.00    +0.020 A 
ATOM      2  C   UNL     1     -19.018 -12.724  69.635  0.00  0.00    +0.013 A 
ATOM      3  C   UNL     1     -17.614 -12.336  69.666  0.00  0.00    +0.019 A 
ATOM     38  C   UNL     1     -16.684 -13.059  68.812  0.00  0.00    +0.120 A 
ATOM     39  N   UNL     1     -17.146 -14.090  68.000  0.00  0.00    -0.263 NA
ATOM     40  C   UNL     1     -18.495 -14.474  67.963  0.00  0.00    +0.111 A 
ENDBRANCH   4   3
ENDBRANCH  10   9
BRANCH  12  13
ATOM     13  N   UNL     1     -12.027  -8.344  75.537  0.00  0.00    -0.281 N 
ATOM     14  C   UNL     1     -10.852  -9.077  75.538  0.00  0.00    +0.248 C 
ATOM     30  O   UNL     1     -10.771 -10.254  75.856  0.00  0.00    -0.270 OA
ATOM     31  H   UNL     1     -11.926  -7.333  75.442  0.00  0.00    +0.155 HD
BRANCH  14  15
ATOM     15  C   UNL     1      -9.579  -8.400  75.143  0.00  0.00    +0.037 A 
ATOM     16  C   UNL     1      -8.878  -7.502  76.064  0.00  0.00    +0.013 A 
ATOM     17  C   UNL     1      -7.661  -6.849  75.652  0.00  0.00    +0.005 A 
ATOM     18  C   UNL     1      -7.136  -7.093  74.310  0.00  0.00    -0.033 A 
ATOM     28  C   UNL     1      -7.849  -7.992  73.418  0.00  0.00    +0.005 A 
ATOM     29  C   UNL     1      -9.043  -8.633  73.819  0.00  0.00    +0.013 A 
BRANCH  18  19
ATOM     19  C   UNL     1      -5.856  -6.422  73.778  0.00  0.00    +0.119 C 
BRANCH  19  20
ATOM     20  N   UNL     1      -6.014  -5.416  72.686  0.00  0.00    -0.302 NA
ATOM     21  C   UNL     1      -7.258  -4.545  72.883  0.00  0.00    +0.066 C 
ATOM     22  C   UNL     1      -7.396  -3.483  71.744  0.00  0.00    -0.064 C 
ATOM     23  N   UNL     1      -7.442  -4.195  70.390  0.00  0.00    +0.379 N 
ATOM     24  C   UNL     1      -7.630  -3.204  69.321  0.00  0.00    -0.096 C 
ATOM     25  H   UNL     1      -8.333  -4.865  70.391  0.00  0.00    -0.082 HD
ATOM     26  C   UNL     1      -6.211  -5.066  70.187  0.00  0.00    -0.064 C 
ATOM     27  C   UNL     1      -6.067  -6.098  71.341  0.00  0.00    +0.066 C 
ENDBRANCH  19  20
ENDBRANCH  18  19
ENDBRANCH  14  15
ENDBRANCH  12  13
TORSDOF 6
ENDMDL
MODEL 5
REMARK VINA RESULT:      -9.2     57.905     62.679
REMARK  Name = C:\Users\Docking\Desktop\test protocol\1iep_ligandH.pdb
REMARK  8 active torsions:
REMARK  status: ('A' for Active; 'I' for Inactive)
REMARK    1  A    between atoms: _5  and  _11
REMARK    2  A    between atoms: _19  and  _21
REMARK    3  A    between atoms: _22  and  _66
REMARK    4  A    between atoms: _27  and  _30
REMARK    5  A    between atoms: _32  and  _33
REMARK    6  A    between atoms: _38  and  _43
REMARK    7  A    between atoms: _43  and  _46
REMARK    8  A    between atoms: _53  and  _55
REMARK                            x       y       z     vdW  Elec       q    Type
REMARK                         _______ _______ _______ _____ _____    ______ ____
ROOT
ATOM     10  C   UNL     1     -68.131  12.280  91.306  0.00  0.00    +0.038 A 
ATOM     11  C   UNL     1     -68.824  11.163  91.840  0.00  0.00    +0.047 A 
ATOM     12  C   UNL     1     -70.080  11.329  92.554  0.00  0.00    +0.035 A 
ATOM     32  C   UNL     1     -70.604  12.646  92.703  0.00  0.00    +0.024 A 
ATOM     33  C   UNL     1     -69.912  13.792  92.168  0.00  0.00    +0.007 A 
ATOM     34  C   UNL     1     -68.671  13.635  91.465  0.00  0.00    -0.029 A 
ATOM     35  C   UNL     1     -67.970  14.900  90.917  0.00  0.00    +0.045 C 
ENDROOT
BRANCH  10   9
ATOM      4  C   UNL     1     -63.399  11.480  91.235  0.00  0.00    +0.077 A 
ATOM      5  C   UNL     1     -63.310  11.525  92.666  0.00  0.00    +0.048 A 
ATOM      6  C   UNL     1     -64.504  11.763  93.383  0.00  0.00    +0.116 A 
ATOM      7  N   UNL     1     -65.692  11.942  92.709  0.00  0.00    -0.223 NA
ATOM      8  C   UNL     1     -65.743  11.894  91.328  0.00  0.00    +0.220 A 
ATOM      9  N   UNL     1     -66.929  12.063  90.629  0.00  0.00    -0.283 N 
ATOM     36  H   UNL     1     -66.923  12.028  89.610  0.00  0.00    +0.155 HD
ATOM     37  N   UNL     1     -64.616  11.669  90.620  0.00  0.00    -0.214 NA
BRANCH   4   3
ATOM      1  C   UNL     1     -60.146   9.971  89.672  0.00  0.00    +0.020 A 
ATOM      2  C   UNL     1     -61.262  10.166  90.568  0.00  0.00    +0.013 A 
ATOM      3  C   UNL     1     -62.225  11.235  90.338  0.00  0.00    +0.019 A 
ATOM     38  C   UNL     1     -62.030  12.095  89.181  0.00  0.00    +0.120 A 
ATOM     39  N   UNL     1     -60.946  11.884  88.335  0.00  0.00    -0.263 NA
ATOM     40  C   UNL     1     -60.011  10.860  88.548  0.00  0.00    +0.111 A 
ENDBRANCH   4   3
ENDBRANCH  10   9
BRANCH  12  13
ATOM     13  N   UNL     1     -70.825  10.234  93.125  0.00  0.00    -0.281 N 
ATOM     14  C   UNL     1     -71.015   9.941  94.465  0.00  0.00    +0.248 C 
ATOM     30  O   UNL     1     -70.392  10.457  95.381  0.00  0.00    -0.270 OA
ATOM     31  H   UNL     1     -71.265   9.598  92.460  0.00  0.00    +0.155 HD
BRANCH  14  15
ATOM     15  C   UNL     1     -72.034   8.915  94.843  0.00  0.00    +0.037 A 
ATOM     16  C   UNL     1     -72.361   8.648  96.246  0.00  0.00    +0.013 A 
ATOM     17  C   UNL     1     -73.336   7.641  96.583  0.00  0.00    +0.005 A 
ATOM     18  C   UNL     1     -73.992   6.894  95.513  0.00  0.00    -0.033 A 
ATOM     28  C   UNL     1     -73.653   7.182  94.129  0.00  0.00    +0.005 A 
ATOM     29  C   UNL     1     -72.697   8.168  93.795  0.00  0.00    +0.013 A 
BRANCH  18  19
ATOM     19  C   UNL     1     -75.029   5.787  95.780  0.00  0.00    +0.119 C 
BRANCH  19  20
ATOM     20  N   UNL     1     -74.939   4.550  94.948  0.00  0.00    -0.302 NA
ATOM     21  C   UNL     1     -76.224   4.298  94.153  0.00  0.00    +0.066 C 
ATOM     22  C   UNL     1     -76.104   3.013  93.271  0.00  0.00    -0.064 C 
ATOM     23  N   UNL     1     -75.775   1.814  94.163  0.00  0.00    +0.379 N 
ATOM     24  C   UNL     1     -75.719   0.594  93.344  0.00  0.00    -0.096 C 
ATOM     25  H   UNL     1     -76.611   1.695  94.891  0.00  0.00    -0.082 HD
ATOM     26  C   UNL     1     -74.500   2.057  94.959  0.00  0.00    -0.064 C 
ATOM     27  C   UNL     1     -74.619   3.353  95.810  0.00  0.00    +0.066 C 
ENDBRANCH  19  20
ENDBRANCH  18  19
ENDBRANCH  14  15
ENDBRANCH  12  13
TORSDOF 6
ENDMDL
