MODEL 1
REMARK VINA RESULT:      -9.3      0.000      0.000
REMARK  Name = C:\Users\Docking\Desktop\test protocol\1iep_ligandH.pdb
REMARK  8 active torsions:
REMARK  status: ('A' for Active; 'I' for Inactive)
REMARK    1  A    between atoms: _5  and  _11
REMARK    2  A    between atoms: _19  and  _21
REMARK    3  A    between atoms: _22  and  _66
REMARK    4  A    between atoms: _27  and  _30
REMARK    5  A    between atoms: _32  and  _33
REMARK    6  A    between atoms: _38  and  _43
REMARK    7  A    between atoms: _43  and  _46
REMARK    8  A    between atoms: _53  and  _55
REMARK                            x       y       z     vdW  Elec       q    Type
REMARK                         _______ _______ _______ _____ _____    ______ ____
ROOT
ATOM     10  C   UNL     1      69.271  22.178  89.217  0.00  0.00    +0.038 A 
ATOM     11  C   UNL     1      68.177  21.429  88.713  0.00  0.00    +0.047 A 
ATOM     12  C   UNL     1      67.340  21.947  87.642  0.00  0.00    +0.035 A 
ATOM     32  C   UNL     1      67.647  23.231  87.106  0.00  0.00    +0.024 A 
ATOM     33  C   UNL     1      68.755  24.007  87.607  0.00  0.00    +0.007 A 
ATOM     34  C   UNL     1      69.583  23.502  88.665  0.00  0.00    -0.029 A 
ATOM     35  C   UNL     1      70.753  24.379  89.167  0.00  0.00    +0.045 C 
ENDROOT
BRANCH  10   9
ATOM      4  C   UNL     1      73.096  19.756  90.812  0.00  0.00    +0.077 A 
ATOM      5  C   UNL     1      73.586  19.537  89.481  0.00  0.00    +0.048 A 
ATOM      6  C   UNL     1      72.821  20.058  88.414  0.00  0.00    +0.116 A 
ATOM      7  N   UNL     1      71.654  20.745  88.670  0.00  0.00    -0.223 NA
ATOM      8  C   UNL     1      71.209  20.937  89.965  0.00  0.00    +0.220 A 
ATOM      9  N   UNL     1      70.042  21.632  90.246  0.00  0.00    -0.283 N 
ATOM     36  H   UNL     1      69.744  21.745  91.214  0.00  0.00    +0.155 HD
ATOM     37  N   UNL     1      71.921  20.448  91.001  0.00  0.00    -0.214 NA
BRANCH   4   3
ATOM      1  C   UNL     1      74.538  17.447  93.621  0.00  0.00    +0.020 A 
ATOM      2  C   UNL     1      73.849  17.863  92.421  0.00  0.00    +0.013 A 
ATOM      3  C   UNL     1      73.795  19.270  92.044  0.00  0.00    +0.019 A 
ATOM     38  C   UNL     1      74.452  20.238  92.909  0.00  0.00    +0.120 A 
ATOM     39  N   UNL     1      75.106  19.807  94.059  0.00  0.00    -0.263 NA
ATOM     40  C   UNL     1      75.164  18.456  94.433  0.00  0.00    +0.111 A 
ENDBRANCH   4   3
ENDBRANCH  10   9
BRANCH  12  13
ATOM     13  N   UNL     1      66.211  21.235  87.096  0.00  0.00    -0.281 N 
ATOM     14  C   UNL     1      66.166  19.925  86.648  0.00  0.00    +0.248 C 
ATOM     30  O   UNL     1      67.150  19.228  86.451  0.00  0.00    -0.270 OA
ATOM     31  H   UNL     1      65.340  21.762  87.031  0.00  0.00    +0.155 HD
BRANCH  14  15
ATOM     15  C   UNL     1      64.836  19.305  86.365  0.00  0.00    +0.037 A 
ATOM     16  C   UNL     1      64.205  18.390  87.321  0.00  0.00    +0.013 A 
ATOM     17  C   UNL     1      62.930  17.792  87.015  0.00  0.00    +0.005 A 
ATOM     18  C   UNL     1      62.276  18.108  85.748  0.00  0.00    -0.033 A 
ATOM     28  C   UNL     1      62.921  19.023  84.820  0.00  0.00    +0.005 A 
ATOM     29  C   UNL     1      64.172  19.610  85.116  0.00  0.00    +0.013 A 
BRANCH  18  19
ATOM     19  C   UNL     1      60.924  17.500  85.329  0.00  0.00    +0.119 C 
BRANCH  19  20
ATOM     20  N   UNL     1      60.877  16.023  85.112  0.00  0.00    -0.302 NA
ATOM     21  C   UNL     1      61.456  15.624  83.751  0.00  0.00    +0.066 C 
ATOM     22  C   UNL     1      61.420  14.074  83.550  0.00  0.00    -0.064 C 
ATOM     23  N   UNL     1      59.980  13.577  83.692  0.00  0.00    +0.379 N 
ATOM     24  C   UNL     1      59.934  12.129  83.446  0.00  0.00    -0.096 C 
ATOM     25  H   UNL     1      59.371  14.075  82.902  0.00  0.00    -0.082 HD
ATOM     26  C   UNL     1      59.396  13.972  85.041  0.00  0.00    -0.064 C 
ATOM     27  C   UNL     1      59.464  15.512  85.244  0.00  0.00    +0.066 C 
ENDBRANCH  19  20
ENDBRANCH  18  19
ENDBRANCH  14  15
ENDBRANCH  12  13
TORSDOF 6
ENDMDL
MODEL 2
REMARK VINA RESULT:      -9.0      1.868     12.571
REMARK  Name = C:\Users\Docking\Desktop\test protocol\1iep_ligandH.pdb
REMARK  8 active torsions:
REMARK  status: ('A' for Active; 'I' for Inactive)
REMARK    1  A    between atoms: _5  and  _11
REMARK    2  A    between atoms: _19  and  _21
REMARK    3  A    between atoms: _22  and  _66
REMARK    4  A    between atoms: _27  and  _30
REMARK    5  A    between atoms: _32  and  _33
REMARK    6  A    between atoms: _38  and  _43
REMARK    7  A    between atoms: _43  and  _46
REMARK    8  A    between atoms: _53  and  _55
REMARK                            x       y       z     vdW  Elec       q    Type
REMARK                         _______ _______ _______ _____ _____    ______ ____
ROOT
ATOM     10  C   UNL     1      62.623  19.139  85.380  0.00  0.00    +0.038 A 
ATOM     11  C   UNL     1      63.914  19.148  85.967  0.00  0.00    +0.047 A 
ATOM     12  C   UNL     1      64.428  20.333  86.636  0.00  0.00    +0.035 A 
ATOM     32  C   UNL     1      63.599  21.491  86.691  0.00  0.00    +0.024 A 
ATOM     33  C   UNL     1      62.284  21.500  86.099  0.00  0.00    +0.007 A 
ATOM     34  C   UNL     1      61.773  20.335  85.436  0.00  0.00    -0.029 A 
ATOM     35  C   UNL     1      60.359  20.403  84.813  0.00  0.00    +0.045 C 
ENDROOT
BRANCH  10   9
ATOM      4  C   UNL     1      59.912  15.181  85.224  0.00  0.00    +0.077 A 
ATOM      5  C   UNL     1      59.352  15.443  86.519  0.00  0.00    +0.048 A 
ATOM      6  C   UNL     1      59.793  16.602  87.195  0.00  0.00    +0.116 A 
ATOM      7  N   UNL     1      60.725  17.432  86.610  0.00  0.00    -0.223 NA
ATOM      8  C   UNL     1      61.247  17.150  85.361  0.00  0.00    +0.220 A 
ATOM      9  N   UNL     1      62.179  17.974  84.750  0.00  0.00    -0.283 N 
ATOM     36  H   UNL     1      62.545  17.728  83.831  0.00  0.00    +0.155 HD
ATOM     37  N   UNL     1      60.842  16.048  84.695  0.00  0.00    -0.214 NA
BRANCH   4   3
ATOM      1  C   UNL     1      60.123  12.049  82.891  0.00  0.00    +0.020 A 
ATOM      2  C   UNL     1      60.531  13.182  83.689  0.00  0.00    +0.013 A 
ATOM      3  C   UNL     1      59.544  13.998  84.384  0.00  0.00    +0.019 A 
ATOM     38  C   UNL     1      58.140  13.638  84.251  0.00  0.00    +0.120 A 
ATOM     39  N   UNL     1      57.776  12.542  83.474  0.00  0.00    -0.263 NA
ATOM     40  C   UNL     1      58.718  11.750  82.799  0.00  0.00    +0.111 A 
ENDBRANCH   4   3
ENDBRANCH  10   9
BRANCH  12  13
ATOM     13  N   UNL     1      65.734  20.404  87.243  0.00  0.00    -0.281 N 
ATOM     14  C   UNL     1      66.965  20.472  86.610  0.00  0.00    +0.248 C 
ATOM     30  O   UNL     1      67.141  20.266  85.418  0.00  0.00    -0.270 OA
ATOM     31  H   UNL     1      65.754  20.404  88.262  0.00  0.00    +0.155 HD
BRANCH  14  15
ATOM     15  C   UNL     1      68.176  20.802  87.420  0.00  0.00    +0.037 A 
ATOM     16  C   UNL     1      68.065  21.507  88.700  0.00  0.00    +0.013 A 
ATOM     17  C   UNL     1      69.251  21.829  89.454  0.00  0.00    +0.005 A 
ATOM     18  C   UNL     1      70.559  21.444  88.929  0.00  0.00    -0.033 A 
ATOM     28  C   UNL     1      70.640  20.740  87.660  0.00  0.00    +0.005 A 
ATOM     29  C   UNL     1      69.480  20.425  86.918  0.00  0.00    +0.013 A 
BRANCH  18  19
ATOM     19  C   UNL     1      71.879  21.765  89.655  0.00  0.00    +0.119 C 
BRANCH  19  20
ATOM     20  N   UNL     1      72.581  20.632  90.330  0.00  0.00    -0.302 NA
ATOM     21  C   UNL     1      73.703  20.054  89.464  0.00  0.00    +0.066 C 
ATOM     22  C   UNL     1      74.441  18.885  90.195  0.00  0.00    -0.064 C 
ATOM     23  N   UNL     1      73.430  17.800  90.566  0.00  0.00    +0.379 N 
ATOM     24  C   UNL     1      74.130  16.674  91.201  0.00  0.00    -0.096 C 
ATOM     25  H   UNL     1      72.974  17.425  89.620  0.00  0.00    -0.082 HD
ATOM     26  C   UNL     1      72.309  18.367  91.425  0.00  0.00    -0.064 C 
ATOM     27  C   UNL     1      71.601  19.547  90.702  0.00  0.00    +0.066 C 
ENDBRANCH  19  20
ENDBRANCH  18  19
ENDBRANCH  14  15
ENDBRANCH  12  13
TORSDOF 6
ENDMDL
MODEL 3
REMARK VINA RESULT:      -8.9      2.414     13.085
REMARK  Name = C:\Users\Docking\Desktop\test protocol\1iep_ligandH.pdb
REMARK  8 active torsions:
REMARK  status: ('A' for Active; 'I' for Inactive)
REMARK    1  A    between atoms: _5  and  _11
REMARK    2  A    between atoms: _19  and  _21
REMARK    3  A    between atoms: _22  and  _66
REMARK    4  A    between atoms: _27  and  _30
REMARK    5  A    between atoms: _32  and  _33
REMARK    6  A    between atoms: _38  and  _43
REMARK    7  A    between atoms: _43  and  _46
REMARK    8  A    between atoms: _53  and  _55
REMARK                            x       y       z     vdW  Elec       q    Type
REMARK                         _______ _______ _______ _____ _____    ______ ____
ROOT
ATOM     10  C   UNL     1      67.905  22.162  88.013  0.00  0.00    +0.038 A 
ATOM     11  C   UNL     1      68.732  21.298  88.775  0.00  0.00    +0.047 A 
ATOM     12  C   UNL     1      70.120  21.636  89.052  0.00  0.00    +0.035 A 
ATOM     32  C   UNL     1      70.632  22.863  88.540  0.00  0.00    +0.024 A 
ATOM     33  C   UNL     1      69.805  23.753  87.762  0.00  0.00    +0.007 A 
ATOM     34  C   UNL     1      68.437  23.424  87.484  0.00  0.00    -0.029 A 
ATOM     35  C   UNL     1      67.599  24.412  86.640  0.00  0.00    +0.045 C 
ENDROOT
BRANCH  10   9
ATOM      4  C   UNL     1      64.561  19.745  85.561  0.00  0.00    +0.077 A 
ATOM      5  C   UNL     1      65.533  19.202  84.656  0.00  0.00    +0.048 A 
ATOM      6  C   UNL     1      66.882  19.575  84.852  0.00  0.00    +0.116 A 
ATOM      7  N   UNL     1      67.222  20.428  85.879  0.00  0.00    -0.223 NA
ATOM      8  C   UNL     1      66.260  20.935  86.733  0.00  0.00    +0.220 A 
ATOM      9  N   UNL     1      66.580  21.788  87.777  0.00  0.00    -0.283 N 
ATOM     36  H   UNL     1      65.840  22.147  88.381  0.00  0.00    +0.155 HD
ATOM     37  N   UNL     1      64.965  20.595  86.566  0.00  0.00    -0.214 NA
BRANCH   4   3
ATOM      1  C   UNL     1      60.691  20.110  85.126  0.00  0.00    +0.020 A 
ATOM      2  C   UNL     1      62.093  20.455  85.187  0.00  0.00    +0.013 A 
ATOM      3  C   UNL     1      63.097  19.442  85.486  0.00  0.00    +0.019 A 
ATOM     38  C   UNL     1      62.647  18.078  85.718  0.00  0.00    +0.120 A 
ATOM     39  N   UNL     1      61.290  17.775  85.654  0.00  0.00    -0.263 NA
ATOM     40  C   UNL     1      60.314  18.742  85.369  0.00  0.00    +0.111 A 
ENDBRANCH   4   3
ENDBRANCH  10   9
BRANCH  12  13
ATOM     13  N   UNL     1      71.010  20.794  89.813  0.00  0.00    -0.281 N 
ATOM     14  C   UNL     1      72.143  20.132  89.369  0.00  0.00    +0.248 C 
ATOM     30  O   UNL     1      72.445  19.991  88.193  0.00  0.00    -0.270 OA
ATOM     31  H   UNL     1      70.776  20.671  90.798  0.00  0.00    +0.155 HD
BRANCH  14  15
ATOM     15  C   UNL     1      73.067  19.527  90.376  0.00  0.00    +0.037 A 
ATOM     16  C   UNL     1      73.772  18.272  90.103  0.00  0.00    +0.013 A 
ATOM     17  C   UNL     1      74.645  17.702  91.099  0.00  0.00    +0.005 A 
ATOM     18  C   UNL     1      74.817  18.387  92.377  0.00  0.00    -0.033 A 
ATOM     28  C   UNL     1      74.109  19.633  92.620  0.00  0.00    +0.005 A 
ATOM     29  C   UNL     1      73.253  20.195  91.647  0.00  0.00    +0.013 A 
BRANCH  18  19
ATOM     19  C   UNL     1      75.711  17.840  93.506  0.00  0.00    +0.119 C 
BRANCH  19  20
ATOM     20  N   UNL     1      77.059  18.461  93.673  0.00  0.00    -0.302 NA
ATOM     21  C   UNL     1      78.188  17.443  93.491  0.00  0.00    +0.066 C 
ATOM     22  C   UNL     1      79.591  18.114  93.647  0.00  0.00    -0.064 C 
ATOM     23  N   UNL     1      79.682  18.786  95.018  0.00  0.00    +0.379 N 
ATOM     24  C   UNL     1      81.021  19.369  95.191  0.00  0.00    -0.096 C 
ATOM     25  H   UNL     1      79.556  17.993  95.792  0.00  0.00    -0.082 HD
ATOM     26  C   UNL     1      78.562  19.798  95.208  0.00  0.00    -0.064 C 
ATOM     27  C   UNL     1      77.173  19.127  95.022  0.00  0.00    +0.066 C 
ENDBRANCH  19  20
ENDBRANCH  18  19
ENDBRANCH  14  15
ENDBRANCH  12  13
TORSDOF 6
ENDMDL
MODEL 4
REMARK VINA RESULT:      -8.9      7.788     11.992
REMARK  Name = C:\Users\Docking\Desktop\test protocol\1iep_ligandH.pdb
REMARK  8 active torsions:
REMARK  status: ('A' for Active; 'I' for Inactive)
REMARK    1  A    between atoms: _5  and  _11
REMARK    2  A    between atoms: _19  and  _21
REMARK    3  A    between atoms: _22  and  _66
REMARK    4  A    between atoms: _27  and  _30
REMARK    5  A    between atoms: _32  and  _33
REMARK    6  A    between atoms: _38  and  _43
REMARK    7  A    between atoms: _43  and  _46
REMARK    8  A    between atoms: _53  and  _55
REMARK                            x       y       z     vdW  Elec       q    Type
REMARK                         _______ _______ _______ _____ _____    ______ ____
ROOT
ATOM     10  C   UNL     1      60.239  15.335  83.471  0.00  0.00    +0.038 A 
ATOM     11  C   UNL     1      61.287  14.701  82.755  0.00  0.00    +0.047 A 
ATOM     12  C   UNL     1      61.183  14.463  81.323  0.00  0.00    +0.035 A 
ATOM     32  C   UNL     1      59.998  14.886  80.653  0.00  0.00    +0.024 A 
ATOM     33  C   UNL     1      58.924  15.531  81.365  0.00  0.00    +0.007 A 
ATOM     34  C   UNL     1      59.020  15.766  82.778  0.00  0.00    -0.029 A 
ATOM     35  C   UNL     1      57.834  16.456  83.491  0.00  0.00    +0.045 C 
ENDROOT
BRANCH  10   9
ATOM      4  C   UNL     1      61.870  17.847  87.222  0.00  0.00    +0.077 A 
ATOM      5  C   UNL     1      62.493  18.822  86.373  0.00  0.00    +0.048 A 
ATOM      6  C   UNL     1      62.377  18.636  84.977  0.00  0.00    +0.116 A 
ATOM      7  N   UNL     1      61.686  17.553  84.478  0.00  0.00    -0.223 NA
ATOM      8  C   UNL     1      61.098  16.631  85.324  0.00  0.00    +0.220 A 
ATOM      9  N   UNL     1      60.392  15.539  84.844  0.00  0.00    -0.283 N 
ATOM     36  H   UNL     1      59.980  14.877  85.501  0.00  0.00    +0.155 HD
ATOM     37  N   UNL     1      61.197  16.785  86.661  0.00  0.00    -0.214 NA
BRANCH   4   3
ATOM      1  C   UNL     1      61.089  18.785  90.938  0.00  0.00    +0.020 A 
ATOM      2  C   UNL     1      61.017  18.765  89.495  0.00  0.00    +0.013 A 
ATOM      3  C   UNL     1      61.903  17.907  88.717  0.00  0.00    +0.019 A 
ATOM     38  C   UNL     1      62.856  17.075  89.436  0.00  0.00    +0.120 A 
ATOM     39  N   UNL     1      62.903  17.117  90.826  0.00  0.00    -0.263 NA
ATOM     40  C   UNL     1      62.057  17.939  91.585  0.00  0.00    +0.111 A 
ENDBRANCH   4   3
ENDBRANCH  10   9
BRANCH  12  13
ATOM     13  N   UNL     1      62.210  13.817  80.545  0.00  0.00    -0.281 N 
ATOM     14  C   UNL     1      62.843  14.292  79.408  0.00  0.00    +0.248 C 
ATOM     30  O   UNL     1      62.469  15.260  78.762  0.00  0.00    -0.270 OA
ATOM     31  H   UNL     1      62.506  12.897  80.871  0.00  0.00    +0.155 HD
BRANCH  14  15
ATOM     15  C   UNL     1      64.060  13.582  78.909  0.00  0.00    +0.037 A 
ATOM     16  C   UNL     1      64.927  12.830  79.818  0.00  0.00    +0.013 A 
ATOM     17  C   UNL     1      66.104  12.168  79.313  0.00  0.00    +0.005 A 
ATOM     18  C   UNL     1      66.420  12.256  77.890  0.00  0.00    -0.033 A 
ATOM     28  C   UNL     1      65.539  13.005  77.009  0.00  0.00    +0.005 A 
ATOM     29  C   UNL     1      64.385  13.655  77.500  0.00  0.00    +0.013 A 
BRANCH  18  19
ATOM     19  C   UNL     1      67.666  11.599  77.267  0.00  0.00    +0.119 C 
BRANCH  19  20
ATOM     20  N   UNL     1      68.274  10.451  78.004  0.00  0.00    -0.302 NA
ATOM     21  C   UNL     1      69.666  10.098  77.470  0.00  0.00    +0.066 C 
ATOM     22  C   UNL     1      70.296   8.911  78.267  0.00  0.00    -0.064 C 
ATOM     23  N   UNL     1      69.365   7.699  78.194  0.00  0.00    +0.379 N 
ATOM     24  C   UNL     1      69.982   6.563  78.894  0.00  0.00    -0.096 C 
ATOM     25  H   UNL     1      69.259   7.419  77.120  0.00  0.00    -0.082 HD
ATOM     26  C   UNL     1      67.979   8.042  78.720  0.00  0.00    -0.064 C 
ATOM     27  C   UNL     1      67.373   9.243  77.941  0.00  0.00    +0.066 C 
ENDBRANCH  19  20
ENDBRANCH  18  19
ENDBRANCH  14  15
ENDBRANCH  12  13
TORSDOF 6
ENDMDL
MODEL 5
REMARK VINA RESULT:      -8.7      9.050     14.573
REMARK  Name = C:\Users\Docking\Desktop\test protocol\1iep_ligandH.pdb
REMARK  8 active torsions:
REMARK  status: ('A' for Active; 'I' for Inactive)
REMARK    1  A    between atoms: _5  and  _11
REMARK    2  A    between atoms: _19  and  _21
REMARK    3  A    between atoms: _22  and  _66
REMARK    4  A    between atoms: _27  and  _30
REMARK    5  A    between atoms: _32  and  _33
REMARK    6  A    between atoms: _38  and  _43
REMARK    7  A    between atoms: _43  and  _46
REMARK    8  A    between atoms: _53  and  _55
REMARK                            x       y       z     vdW  Elec       q    Type
REMARK                         _______ _______ _______ _____ _____    ______ ____
ROOT
ATOM     10  C   UNL     1      60.902  18.990  89.058  0.00  0.00    +0.038 A 
ATOM     11  C   UNL     1      60.020  19.684  89.925  0.00  0.00    +0.047 A 
ATOM     12  C   UNL     1      60.472  20.830  90.699  0.00  0.00    +0.035 A 
ATOM     32  C   UNL     1      61.830  21.244  90.563  0.00  0.00    +0.024 A 
ATOM     33  C   UNL     1      62.740  20.549  89.687  0.00  0.00    +0.007 A 
ATOM     34  C   UNL     1      62.300  19.417  88.923  0.00  0.00    -0.029 A 
ATOM     35  C   UNL     1      63.321  18.706  88.005  0.00  0.00    +0.045 C 
ENDROOT
BRANCH  10   9
ATOM      4  C   UNL     1      58.694  17.070  85.254  0.00  0.00    +0.077 A 
ATOM      5  C   UNL     1      58.468  18.357  84.661  0.00  0.00    +0.048 A 
ATOM      6  C   UNL     1      58.930  19.488  85.371  0.00  0.00    +0.116 A 
ATOM      7  N   UNL     1      59.568  19.332  86.582  0.00  0.00    -0.223 NA
ATOM      8  C   UNL     1      59.768  18.077  87.126  0.00  0.00    +0.220 A 
ATOM      9  N   UNL     1      60.415  17.896  88.339  0.00  0.00    -0.283 N 
ATOM     36  H   UNL     1      60.536  16.955  88.711  0.00  0.00    +0.155 HD
ATOM     37  N   UNL     1      59.335  16.981  86.469  0.00  0.00    -0.214 NA
BRANCH   4   3
ATOM      1  C   UNL     1      57.827  13.298  84.692  0.00  0.00    +0.020 A 
ATOM      2  C   UNL     1      58.247  14.515  85.346  0.00  0.00    +0.013 A 
ATOM      3  C   UNL     1      58.268  15.781  84.624  0.00  0.00    +0.019 A 
ATOM     38  C   UNL     1      57.852  15.781  83.229  0.00  0.00    +0.120 A 
ATOM     39  N   UNL     1      57.453  14.593  82.625  0.00  0.00    -0.263 NA
ATOM     40  C   UNL     1      57.431  13.368  83.309  0.00  0.00    +0.111 A 
ENDBRANCH   4   3
ENDBRANCH  10   9
BRANCH  12  13
ATOM     13  N   UNL     1      59.625  21.569  91.602  0.00  0.00    -0.281 N 
ATOM     14  C   UNL     1      58.430  22.209  91.316  0.00  0.00    +0.248 C 
ATOM     30  O   UNL     1      58.014  22.424  90.187  0.00  0.00    -0.270 OA
ATOM     31  H   UNL     1      59.945  21.628  92.568  0.00  0.00    +0.155 HD
BRANCH  14  15
ATOM     15  C   UNL     1      57.581  22.691  92.448  0.00  0.00    +0.037 A 
ATOM     16  C   UNL     1      56.201  22.229  92.613  0.00  0.00    +0.013 A 
ATOM     17  C   UNL     1      55.398  22.724  93.704  0.00  0.00    +0.005 A 
ATOM     18  C   UNL     1      55.976  23.687  94.639  0.00  0.00    -0.033 A 
ATOM     28  C   UNL     1      57.349  24.124  94.454  0.00  0.00    +0.005 A 
ATOM     29  C   UNL     1      58.139  23.642  93.386  0.00  0.00    +0.013 A 
BRANCH  18  19
ATOM     19  C   UNL     1      55.186  24.284  95.819  0.00  0.00    +0.119 C 
BRANCH  19  20
ATOM     20  N   UNL     1      55.743  25.511  96.463  0.00  0.00    -0.302 NA
ATOM     21  C   UNL     1      55.558  25.496  97.983  0.00  0.00    +0.066 C 
ATOM     22  C   UNL     1      56.166  26.777  98.642  0.00  0.00    -0.064 C 
ATOM     23  N   UNL     1      55.517  28.019  98.030  0.00  0.00    +0.379 N 
ATOM     24  C   UNL     1      56.044  29.223  98.689  0.00  0.00    -0.096 C 
ATOM     25  H   UNL     1      54.424  27.969  98.242  0.00  0.00    -0.082 HD
ATOM     26  C   UNL     1      55.694  28.040  96.518  0.00  0.00    -0.064 C 
ATOM     27  C   UNL     1      55.113  26.750  95.876  0.00  0.00    +0.066 C 
ENDBRANCH  19  20
ENDBRANCH  18  19
ENDBRANCH  14  15
ENDBRANCH  12  13
TORSDOF 6
ENDMDL
