MODEL 1
REMARK VINA RESULT:      -8.6      0.000      0.000
REMARK  Name = C:\Users\Docking\Desktop\test protocol\1iep_ligandH.pdb
REMARK  8 active torsions:
REMARK  status: ('A' for Active; 'I' for Inactive)
REMARK    1  A    between atoms: _5  and  _11
REMARK    2  A    between atoms: _19  and  _21
REMARK    3  A    between atoms: _22  and  _66
REMARK    4  A    between atoms: _27  and  _30
REMARK    5  A    between atoms: _32  and  _33
REMARK    6  A    between atoms: _38  and  _43
REMARK    7  A    between atoms: _43  and  _46
REMARK    8  A    between atoms: _53  and  _55
REMARK                            x       y       z     vdW  Elec       q    Type
REMARK                         _______ _______ _______ _____ _____    ______ ____
ROOT
ATOM     10  C   UNL     1      81.814   3.972  90.760  0.00  0.00    +0.038 A 
ATOM     11  C   UNL     1      81.718   3.228  89.556  0.00  0.00    +0.047 A 
ATOM     12  C   UNL     1      80.762   3.591  88.521  0.00  0.00    +0.035 A 
ATOM     32  C   UNL     1      79.920   4.720  88.745  0.00  0.00    +0.024 A 
ATOM     33  C   UNL     1      80.003   5.486  89.964  0.00  0.00    +0.007 A 
ATOM     34  C   UNL     1      80.943   5.131  90.989  0.00  0.00    -0.029 A 
ATOM     35  C   UNL     1      80.984   5.984  92.278  0.00  0.00    +0.045 C 
ENDROOT
BRANCH  10   9
ATOM      4  C   UNL     1      86.001   4.488  93.049  0.00  0.00    +0.077 A 
ATOM      5  C   UNL     1      86.367   5.621  92.248  0.00  0.00    +0.048 A 
ATOM      6  C   UNL     1      85.453   6.034  91.253  0.00  0.00    +0.116 A 
ATOM      7  N   UNL     1      84.264   5.358  91.081  0.00  0.00    -0.223 NA
ATOM      8  C   UNL     1      83.943   4.268  91.869  0.00  0.00    +0.220 A 
ATOM      9  N   UNL     1      82.750   3.579  91.719  0.00  0.00    -0.283 N 
ATOM     36  H   UNL     1      82.553   2.775  92.316  0.00  0.00    +0.155 HD
ATOM     37  N   UNL     1      84.800   3.853  92.825  0.00  0.00    -0.214 NA
BRANCH   4   3
ATOM      1  C   UNL     1      87.857   4.009  96.458  0.00  0.00    +0.020 A 
ATOM      2  C   UNL     1      87.016   4.587  95.436  0.00  0.00    +0.013 A 
ATOM      3  C   UNL     1      86.860   3.933  94.143  0.00  0.00    +0.019 A 
ATOM     38  C   UNL     1      87.573   2.686  93.914  0.00  0.00    +0.120 A 
ATOM     39  N   UNL     1      88.378   2.154  94.917  0.00  0.00    -0.263 NA
ATOM     40  C   UNL     1      88.537   2.775  96.165  0.00  0.00    +0.111 A 
ENDBRANCH   4   3
ENDBRANCH  10   9
BRANCH  12  13
ATOM     13  N   UNL     1      80.614   2.870  87.282  0.00  0.00    -0.281 N 
ATOM     14  C   UNL     1      79.525   2.128  86.853  0.00  0.00    +0.248 C 
ATOM     30  O   UNL     1      78.591   1.796  87.567  0.00  0.00    -0.270 OA
ATOM     31  H   UNL     1      81.408   2.910  86.643  0.00  0.00    +0.155 HD
BRANCH  14  15
ATOM     15  C   UNL     1      79.473   1.679  85.428  0.00  0.00    +0.037 A 
ATOM     16  C   UNL     1      79.878   0.324  85.044  0.00  0.00    +0.013 A 
ATOM     17  C   UNL     1      79.834  -0.078  83.660  0.00  0.00    +0.005 A 
ATOM     18  C   UNL     1      79.383   0.877  82.651  0.00  0.00    -0.033 A 
ATOM     28  C   UNL     1      78.982   2.213  83.061  0.00  0.00    +0.005 A 
ATOM     29  C   UNL     1      79.025   2.611  84.416  0.00  0.00    +0.013 A 
BRANCH  18  19
ATOM     19  C   UNL     1      79.325   0.541  81.149  0.00  0.00    +0.119 C 
BRANCH  19  20
ATOM     20  N   UNL     1      79.665  -0.856  80.747  0.00  0.00    -0.302 NA
ATOM     21  C   UNL     1      80.992  -0.928  79.986  0.00  0.00    +0.066 C 
ATOM     22  C   UNL     1      81.344  -2.400  79.593  0.00  0.00    -0.064 C 
ATOM     23  N   UNL     1      80.207  -2.987  78.755  0.00  0.00    +0.379 N 
ATOM     24  C   UNL     1      80.560  -4.351  78.335  0.00  0.00    -0.096 C 
ATOM     25  H   UNL     1      80.109  -2.364  77.835  0.00  0.00    -0.082 HD
ATOM     26  C   UNL     1      78.883  -2.917  79.503  0.00  0.00    -0.064 C 
ATOM     27  C   UNL     1      78.557  -1.454  79.914  0.00  0.00    +0.066 C 
ENDBRANCH  19  20
ENDBRANCH  18  19
ENDBRANCH  14  15
ENDBRANCH  12  13
TORSDOF 6
ENDMDL
MODEL 2
REMARK VINA RESULT:      -8.4     22.779     27.181
REMARK  Name = C:\Users\Docking\Desktop\test protocol\1iep_ligandH.pdb
REMARK  8 active torsions:
REMARK  status: ('A' for Active; 'I' for Inactive)
REMARK    1  A    between atoms: _5  and  _11
REMARK    2  A    between atoms: _19  and  _21
REMARK    3  A    between atoms: _22  and  _66
REMARK    4  A    between atoms: _27  and  _30
REMARK    5  A    between atoms: _32  and  _33
REMARK    6  A    between atoms: _38  and  _43
REMARK    7  A    between atoms: _43  and  _46
REMARK    8  A    between atoms: _53  and  _55
REMARK                            x       y       z     vdW  Elec       q    Type
REMARK                         _______ _______ _______ _____ _____    ______ ____
ROOT
ATOM     10  C   UNL     1      57.605  12.258  82.258  0.00  0.00    +0.038 A 
ATOM     11  C   UNL     1      58.586  11.602  81.472  0.00  0.00    +0.047 A 
ATOM     12  C   UNL     1      59.815  12.276  81.085  0.00  0.00    +0.035 A 
ATOM     32  C   UNL     1      60.015  13.619  81.519  0.00  0.00    +0.024 A 
ATOM     33  C   UNL     1      59.028  14.302  82.318  0.00  0.00    +0.007 A 
ATOM     34  C   UNL     1      57.812  13.642  82.701  0.00  0.00    -0.029 A 
ATOM     35  C   UNL     1      56.787  14.425  83.553  0.00  0.00    +0.045 C 
ENDROOT
BRANCH  10   9
ATOM      4  C   UNL     1      53.095  10.866  81.391  0.00  0.00    +0.077 A 
ATOM      5  C   UNL     1      53.039  11.608  80.164  0.00  0.00    +0.048 A 
ATOM      6  C   UNL     1      54.190  12.340  79.796  0.00  0.00    +0.116 A 
ATOM      7  N   UNL     1      55.307  12.324  80.602  0.00  0.00    -0.223 NA
ATOM      8  C   UNL     1      55.327  11.600  81.779  0.00  0.00    +0.220 A 
ATOM      9  N   UNL     1      56.443  11.563  82.601  0.00  0.00    -0.283 N 
ATOM     36  H   UNL     1      56.416  11.023  83.465  0.00  0.00    +0.155 HD
ATOM     37  N   UNL     1      54.241  10.893  82.154  0.00  0.00    -0.214 NA
BRANCH   4   3
ATOM      1  C   UNL     1      49.692   8.959  81.687  0.00  0.00    +0.020 A 
ATOM      2  C   UNL     1      50.759   9.762  81.136  0.00  0.00    +0.013 A 
ATOM      3  C   UNL     1      51.960  10.040  81.913  0.00  0.00    +0.019 A 
ATOM     38  C   UNL     1      52.052   9.484  83.255  0.00  0.00    +0.120 A 
ATOM     39  N   UNL     1      51.009   8.715  83.760  0.00  0.00    -0.263 NA
ATOM     40  C   UNL     1      49.847   8.443  83.022  0.00  0.00    +0.111 A 
ENDBRANCH   4   3
ENDBRANCH  10   9
BRANCH  12  13
ATOM     13  N   UNL     1      60.843  11.663  80.280  0.00  0.00    -0.281 N 
ATOM     14  C   UNL     1      60.883  11.535  78.901  0.00  0.00    +0.248 C 
ATOM     30  O   UNL     1      59.932  11.740  78.161  0.00  0.00    -0.270 OA
ATOM     31  H   UNL     1      61.638  11.276  80.789  0.00  0.00    +0.155 HD
BRANCH  14  15
ATOM     15  C   UNL     1      62.158  11.102  78.253  0.00  0.00    +0.037 A 
ATOM     16  C   UNL     1      62.194   9.963  77.332  0.00  0.00    +0.013 A 
ATOM     17  C   UNL     1      63.440   9.557  76.733  0.00  0.00    +0.005 A 
ATOM     18  C   UNL     1      64.662  10.291  77.052  0.00  0.00    -0.033 A 
ATOM     28  C   UNL     1      64.596  11.421  77.965  0.00  0.00    +0.005 A 
ATOM     29  C   UNL     1      63.377  11.822  78.555  0.00  0.00    +0.013 A 
BRANCH  18  19
ATOM     19  C   UNL     1      66.039   9.914  76.476  0.00  0.00    +0.119 C 
BRANCH  19  20
ATOM     20  N   UNL     1      67.005   9.242  77.396  0.00  0.00    -0.302 NA
ATOM     21  C   UNL     1      68.382   9.062  76.752  0.00  0.00    +0.066 C 
ATOM     22  C   UNL     1      69.386   8.378  77.736  0.00  0.00    -0.064 C 
ATOM     23  N   UNL     1      68.818   7.031  78.185  0.00  0.00    +0.379 N 
ATOM     24  C   UNL     1      69.785   6.359  79.065  0.00  0.00    -0.096 C 
ATOM     25  H   UNL     1      68.690   6.398  77.276  0.00  0.00    -0.082 HD
ATOM     26  C   UNL     1      67.447   7.200  78.824  0.00  0.00    -0.064 C 
ATOM     27  C   UNL     1      66.465   7.908  77.849  0.00  0.00    +0.066 C 
ENDBRANCH  19  20
ENDBRANCH  18  19
ENDBRANCH  14  15
ENDBRANCH  12  13
TORSDOF 6
ENDMDL
MODEL 3
REMARK VINA RESULT:      -8.2     19.696     24.743
REMARK  Name = C:\Users\Docking\Desktop\test protocol\1iep_ligandH.pdb
REMARK  8 active torsions:
REMARK  status: ('A' for Active; 'I' for Inactive)
REMARK    1  A    between atoms: _5  and  _11
REMARK    2  A    between atoms: _19  and  _21
REMARK    3  A    between atoms: _22  and  _66
REMARK    4  A    between atoms: _27  and  _30
REMARK    5  A    between atoms: _32  and  _33
REMARK    6  A    between atoms: _38  and  _43
REMARK    7  A    between atoms: _43  and  _46
REMARK    8  A    between atoms: _53  and  _55
REMARK                            x       y       z     vdW  Elec       q    Type
REMARK                         _______ _______ _______ _____ _____    ______ ____
ROOT
ATOM     10  C   UNL     1      65.191   9.545  76.582  0.00  0.00    +0.038 A 
ATOM     11  C   UNL     1      63.958   9.638  77.277  0.00  0.00    +0.047 A 
ATOM     12  C   UNL     1      63.421  10.926  77.687  0.00  0.00    +0.035 A 
ATOM     32  C   UNL     1      64.165  12.100  77.370  0.00  0.00    +0.024 A 
ATOM     33  C   UNL     1      65.420  12.024  76.665  0.00  0.00    +0.007 A 
ATOM     34  C   UNL     1      65.957  10.756  76.261  0.00  0.00    -0.029 A 
ATOM     35  C   UNL     1      67.310  10.734  75.513  0.00  0.00    +0.045 C 
ENDROOT
BRANCH  10   9
ATOM      4  C   UNL     1      67.558   5.472  77.503  0.00  0.00    +0.077 A 
ATOM      5  C   UNL     1      67.913   5.908  78.823  0.00  0.00    +0.048 A 
ATOM      6  C   UNL     1      67.473   7.189  79.224  0.00  0.00    +0.116 A 
ATOM      7  N   UNL     1      66.733   7.968  78.361  0.00  0.00    -0.223 NA
ATOM      8  C   UNL     1      66.410   7.519  77.094  0.00  0.00    +0.220 A 
ATOM      9  N   UNL     1      65.660   8.283  76.212  0.00  0.00    -0.283 N 
ATOM     36  H   UNL     1      65.449   7.919  75.283  0.00  0.00    +0.155 HD
ATOM     37  N   UNL     1      66.819   6.300  76.686  0.00  0.00    -0.214 NA
BRANCH   4   3
ATOM      1  C   UNL     1      69.318   2.678  75.406  0.00  0.00    +0.020 A 
ATOM      2  C   UNL     1      68.981   3.985  75.921  0.00  0.00    +0.013 A 
ATOM      3  C   UNL     1      67.946   4.142  76.935  0.00  0.00    +0.019 A 
ATOM     38  C   UNL     1      67.267   2.947  77.412  0.00  0.00    +0.120 A 
ATOM     39  N   UNL     1      67.612   1.701  76.897  0.00  0.00    -0.263 NA
ATOM     40  C   UNL     1      68.605   1.538  75.919  0.00  0.00    +0.111 A 
ENDBRANCH   4   3
ENDBRANCH  10   9
BRANCH  12  13
ATOM     13  N   UNL     1      62.179  11.082  78.401  0.00  0.00    -0.281 N 
ATOM     14  C   UNL     1      61.997  11.292  79.758  0.00  0.00    +0.248 C 
ATOM     30  O   UNL     1      62.874  11.165  80.601  0.00  0.00    -0.270 OA
ATOM     31  H   UNL     1      61.329  11.031  77.838  0.00  0.00    +0.155 HD
BRANCH  14  15
ATOM     15  C   UNL     1      60.644  11.688  80.254  0.00  0.00    +0.037 A 
ATOM     16  C   UNL     1      60.431  12.088  81.647  0.00  0.00    +0.013 A 
ATOM     17  C   UNL     1      59.112  12.448  82.102  0.00  0.00    +0.005 A 
ATOM     18  C   UNL     1      57.994  12.411  81.162  0.00  0.00    -0.033 A 
ATOM     28  C   UNL     1      58.234  12.015  79.785  0.00  0.00    +0.005 A 
ATOM     29  C   UNL     1      59.526  11.660  79.335  0.00  0.00    +0.013 A 
BRANCH  18  19
ATOM     19  C   UNL     1      56.549  12.758  81.566  0.00  0.00    +0.119 C 
BRANCH  19  20
ATOM     20  N   UNL     1      55.666  11.629  81.986  0.00  0.00    -0.302 NA
ATOM     21  C   UNL     1      54.344  11.617  81.214  0.00  0.00    +0.066 C 
ATOM     22  C   UNL     1      53.442  10.417  81.649  0.00  0.00    -0.064 C 
ATOM     23  N   UNL     1      53.188  10.492  83.155  0.00  0.00    +0.379 N 
ATOM     24  C   UNL     1      52.293   9.398  83.558  0.00  0.00    -0.096 C 
ATOM     25  H   UNL     1      52.662  11.453  83.362  0.00  0.00    -0.082 HD
ATOM     26  C   UNL     1      54.498  10.507  83.930  0.00  0.00    -0.064 C 
ATOM     27  C   UNL     1      55.400  11.687  83.470  0.00  0.00    +0.066 C 
ENDBRANCH  19  20
ENDBRANCH  18  19
ENDBRANCH  14  15
ENDBRANCH  12  13
TORSDOF 6
ENDMDL
MODEL 4
REMARK VINA RESULT:      -8.2     49.246     53.312
REMARK  Name = C:\Users\Docking\Desktop\test protocol\1iep_ligandH.pdb
REMARK  8 active torsions:
REMARK  status: ('A' for Active; 'I' for Inactive)
REMARK    1  A    between atoms: _5  and  _11
REMARK    2  A    between atoms: _19  and  _21
REMARK    3  A    between atoms: _22  and  _66
REMARK    4  A    between atoms: _27  and  _30
REMARK    5  A    between atoms: _32  and  _33
REMARK    6  A    between atoms: _38  and  _43
REMARK    7  A    between atoms: _43  and  _46
REMARK    8  A    between atoms: _53  and  _55
REMARK                            x       y       z     vdW  Elec       q    Type
REMARK                         _______ _______ _______ _____ _____    ______ ____
ROOT
ATOM     10  C   UNL     1      31.172   9.063  86.255  0.00  0.00    +0.038 A 
ATOM     11  C   UNL     1      31.585   9.700  87.453  0.00  0.00    +0.047 A 
ATOM     12  C   UNL     1      32.990   9.968  87.716  0.00  0.00    +0.035 A 
ATOM     32  C   UNL     1      33.948   9.577  86.736  0.00  0.00    +0.024 A 
ATOM     33  C   UNL     1      33.545   8.928  85.513  0.00  0.00    +0.007 A 
ATOM     34  C   UNL     1      32.161   8.658  85.249  0.00  0.00    -0.029 A 
ATOM     35  C   UNL     1      31.787   7.954  83.924  0.00  0.00    +0.045 C 
ENDROOT
BRANCH  10   9
ATOM      4  C   UNL     1      27.170   6.503  86.941  0.00  0.00    +0.077 A 
ATOM      5  C   UNL     1      27.857   5.534  87.745  0.00  0.00    +0.048 A 
ATOM      6  C   UNL     1      29.241   5.727  87.953  0.00  0.00    +0.116 A 
ATOM      7  N   UNL     1      29.880   6.812  87.393  0.00  0.00    -0.223 NA
ATOM      8  C   UNL     1      29.188   7.727  86.621  0.00  0.00    +0.220 A 
ATOM      9  N   UNL     1      29.809   8.829  86.054  0.00  0.00    -0.283 N 
ATOM     36  H   UNL     1      29.266   9.477  85.485  0.00  0.00    +0.155 HD
ATOM     37  N   UNL     1      27.866   7.564  86.406  0.00  0.00    -0.214 NA
BRANCH   4   3
ATOM      1  C   UNL     1      23.489   7.506  86.075  0.00  0.00    +0.020 A 
ATOM      2  C   UNL     1      24.899   7.623  86.367  0.00  0.00    +0.013 A 
ATOM      3  C   UNL     1      25.706   6.439  86.633  0.00  0.00    +0.019 A 
ATOM     38  C   UNL     1      25.050   5.141  86.596  0.00  0.00    +0.120 A 
ATOM     39  N   UNL     1      23.690   5.059  86.313  0.00  0.00    -0.263 NA
ATOM     40  C   UNL     1      22.903   6.192  86.057  0.00  0.00    +0.111 A 
ENDBRANCH   4   3
ENDBRANCH  10   9
BRANCH  12  13
ATOM     13  N   UNL     1      33.470  10.604  88.918  0.00  0.00    -0.281 N 
ATOM     14  C   UNL     1      34.027  11.866  89.050  0.00  0.00    +0.248 C 
ATOM     30  O   UNL     1      34.394  12.561  88.114  0.00  0.00    -0.270 OA
ATOM     31  H   UNL     1      33.390  10.058  89.776  0.00  0.00    +0.155 HD
BRANCH  14  15
ATOM     15  C   UNL     1      34.216  12.432  90.420  0.00  0.00    +0.037 A 
ATOM     16  C   UNL     1      34.594  13.834  90.617  0.00  0.00    +0.013 A 
ATOM     17  C   UNL     1      34.787  14.350  91.949  0.00  0.00    +0.005 A 
ATOM     18  C   UNL     1      34.599  13.464  93.095  0.00  0.00    -0.033 A 
ATOM     28  C   UNL     1      34.219  12.079  92.871  0.00  0.00    +0.005 A 
ATOM     29  C   UNL     1      34.030  11.569  91.567  0.00  0.00    +0.013 A 
BRANCH  18  19
ATOM     19  C   UNL     1      34.804  13.923  94.551  0.00  0.00    +0.119 C 
BRANCH  19  20
ATOM     20  N   UNL     1      34.677  15.385  94.831  0.00  0.00    -0.302 NA
ATOM     21  C   UNL     1      35.419  15.792  96.106  0.00  0.00    +0.066 C 
ATOM     22  C   UNL     1      35.295  17.328  96.372  0.00  0.00    -0.064 C 
ATOM     23  N   UNL     1      33.816  17.709  96.460  0.00  0.00    +0.379 N 
ATOM     24  C   UNL     1      33.696  19.142  96.767  0.00  0.00    -0.096 C 
ATOM     25  H   UNL     1      33.372  17.142  97.311  0.00  0.00    -0.082 HD
ATOM     26  C   UNL     1      33.070  17.305  95.197  0.00  0.00    -0.064 C 
ATOM     27  C   UNL     1      33.225  15.782  94.926  0.00  0.00    +0.066 C 
ENDBRANCH  19  20
ENDBRANCH  18  19
ENDBRANCH  14  15
ENDBRANCH  12  13
TORSDOF 6
ENDMDL
MODEL 5
REMARK VINA RESULT:      -8.1     30.673     34.362
REMARK  Name = C:\Users\Docking\Desktop\test protocol\1iep_ligandH.pdb
REMARK  8 active torsions:
REMARK  status: ('A' for Active; 'I' for Inactive)
REMARK    1  A    between atoms: _5  and  _11
REMARK    2  A    between atoms: _19  and  _21
REMARK    3  A    between atoms: _22  and  _66
REMARK    4  A    between atoms: _27  and  _30
REMARK    5  A    between atoms: _32  and  _33
REMARK    6  A    between atoms: _38  and  _43
REMARK    7  A    between atoms: _43  and  _46
REMARK    8  A    between atoms: _53  and  _55
REMARK                            x       y       z     vdW  Elec       q    Type
REMARK                         _______ _______ _______ _____ _____    ______ ____
ROOT
ATOM     10  C   UNL     1      53.323   9.642  79.281  0.00  0.00    +0.038 A 
ATOM     11  C   UNL     1      52.141   9.694  80.062  0.00  0.00    +0.047 A 
ATOM     12  C   UNL     1      50.841   9.400  79.479  0.00  0.00    +0.035 A 
ATOM     32  C   UNL     1      50.783   9.053  78.097  0.00  0.00    +0.024 A 
ATOM     33  C   UNL     1      51.975   8.997  77.289  0.00  0.00    +0.007 A 
ATOM     34  C   UNL     1      53.260   9.288  77.858  0.00  0.00    -0.029 A 
ATOM     35  C   UNL     1      54.504   9.218  76.942  0.00  0.00    +0.045 C 
ENDROOT
BRANCH  10   9
ATOM      4  C   UNL     1      56.584  12.739  80.959  0.00  0.00    +0.077 A 
ATOM      5  C   UNL     1      55.799  13.872  80.561  0.00  0.00    +0.048 A 
ATOM      6  C   UNL     1      54.566  13.614  79.921  0.00  0.00    +0.116 A 
ATOM      7  N   UNL     1      54.158  12.317  79.701  0.00  0.00    -0.223 NA
ATOM      8  C   UNL     1      54.939  11.247  80.096  0.00  0.00    +0.220 A 
ATOM      9  N   UNL     1      54.545   9.933  79.892  0.00  0.00    -0.283 N 
ATOM     36  H   UNL     1      55.153   9.172  80.192  0.00  0.00    +0.155 HD
ATOM     37  N   UNL     1      56.122  11.466  80.708  0.00  0.00    -0.214 NA
BRANCH   4   3
ATOM      1  C   UNL     1      60.247  12.041  82.138  0.00  0.00    +0.020 A 
ATOM      2  C   UNL     1      58.988  11.890  81.448  0.00  0.00    +0.013 A 
ATOM      3  C   UNL     1      57.908  12.848  81.650  0.00  0.00    +0.019 A 
ATOM     38  C   UNL     1      58.137  13.956  82.564  0.00  0.00    +0.120 A 
ATOM     39  N   UNL     1      59.360  14.075  83.216  0.00  0.00    -0.263 NA
ATOM     40  C   UNL     1      60.406  13.159  83.031  0.00  0.00    +0.111 A 
ENDBRANCH   4   3
ENDBRANCH  10   9
BRANCH  12  13
ATOM     13  N   UNL     1      49.605   9.444  80.220  0.00  0.00    -0.281 N 
ATOM     14  C   UNL     1      49.325   8.861  81.445  0.00  0.00    +0.248 C 
ATOM     30  O   UNL     1      50.033   8.029  81.992  0.00  0.00    -0.270 OA
ATOM     31  H   UNL     1      48.844   9.969  79.789  0.00  0.00    +0.155 HD
BRANCH  14  15
ATOM     15  C   UNL     1      48.069   9.247  82.158  0.00  0.00    +0.037 A 
ATOM     16  C   UNL     1      48.011  10.447  82.997  0.00  0.00    +0.013 A 
ATOM     17  C   UNL     1      46.792  10.787  83.688  0.00  0.00    +0.005 A 
ATOM     18  C   UNL     1      45.621   9.926  83.542  0.00  0.00    -0.033 A 
ATOM     28  C   UNL     1      45.706   8.745  82.699  0.00  0.00    +0.005 A 
ATOM     29  C   UNL     1      46.898   8.408  82.021  0.00  0.00    +0.013 A 
BRANCH  18  19
ATOM     19  C   UNL     1      44.286  10.201  84.259  0.00  0.00    +0.119 C 
BRANCH  19  20
ATOM     20  N   UNL     1      43.259  10.987  83.513  0.00  0.00    -0.302 NA
ATOM     21  C   UNL     1      43.423  12.495  83.726  0.00  0.00    +0.066 C 
ATOM     22  C   UNL     1      42.354  13.303  82.920  0.00  0.00    -0.064 C 
ATOM     23  N   UNL     1      40.954  12.847  83.336  0.00  0.00    +0.379 N 
ATOM     24  C   UNL     1      39.946  13.645  82.623  0.00  0.00    -0.096 C 
ATOM     25  H   UNL     1      40.841  13.053  84.425  0.00  0.00    -0.082 HD
ATOM     26  C   UNL     1      40.783  11.348  83.130  0.00  0.00    -0.064 C 
ATOM     27  C   UNL     1      41.869  10.556  83.911  0.00  0.00    +0.066 C 
ENDBRANCH  19  20
ENDBRANCH  18  19
ENDBRANCH  14  15
ENDBRANCH  12  13
TORSDOF 6
ENDMDL
