MODEL 1
REMARK VINA RESULT:      -7.8      0.000      0.000
REMARK  Name = C:\Users\Docking\Desktop\test protocol\1iep_ligandH.pdb
REMARK  8 active torsions:
REMARK  status: ('A' for Active; 'I' for Inactive)
REMARK    1  A    between atoms: _5  and  _11
REMARK    2  A    between atoms: _19  and  _21
REMARK    3  A    between atoms: _22  and  _66
REMARK    4  A    between atoms: _27  and  _30
REMARK    5  A    between atoms: _32  and  _33
REMARK    6  A    between atoms: _38  and  _43
REMARK    7  A    between atoms: _43  and  _46
REMARK    8  A    between atoms: _53  and  _55
REMARK                            x       y       z     vdW  Elec       q    Type
REMARK                         _______ _______ _______ _____ _____    ______ ____
ROOT
ATOM     10  C   UNL     1      73.908  18.631  90.553  0.00  0.00    +0.038 A 
ATOM     11  C   UNL     1      73.435  19.785  89.877  0.00  0.00    +0.047 A 
ATOM     12  C   UNL     1      72.032  19.926  89.520  0.00  0.00    +0.035 A 
ATOM     32  C   UNL     1      71.137  18.874  89.869  0.00  0.00    +0.024 A 
ATOM     33  C   UNL     1      71.600  17.694  90.556  0.00  0.00    +0.007 A 
ATOM     34  C   UNL     1      72.984  17.548  90.908  0.00  0.00    -0.029 A 
ATOM     35  C   UNL     1      73.426  16.258  91.638  0.00  0.00    +0.045 C 
ENDROOT
BRANCH  10   9
ATOM      4  C   UNL     1      77.617  19.387  93.504  0.00  0.00    +0.077 A 
ATOM      5  C   UNL     1      76.785  20.025  94.482  0.00  0.00    +0.048 A 
ATOM      6  C   UNL     1      75.409  20.146  94.185  0.00  0.00    +0.116 A 
ATOM      7  N   UNL     1      74.913  19.660  92.994  0.00  0.00    -0.223 NA
ATOM      8  C   UNL     1      75.744  19.051  92.071  0.00  0.00    +0.220 A 
ATOM      9  N   UNL     1      75.265  18.548  90.871  0.00  0.00    -0.283 N 
ATOM     36  H   UNL     1      75.911  18.112  90.214  0.00  0.00    +0.155 HD
ATOM     37  N   UNL     1      77.062  18.925  92.331  0.00  0.00    -0.214 NA
BRANCH   4   3
ATOM      1  C   UNL     1      81.470  19.258  92.840  0.00  0.00    +0.020 A 
ATOM      2  C   UNL     1      80.058  19.473  92.624  0.00  0.00    +0.013 A 
ATOM      3  C   UNL     1      79.090  19.181  93.674  0.00  0.00    +0.019 A 
ATOM     38  C   UNL     1      79.589  18.669  94.942  0.00  0.00    +0.120 A 
ATOM     39  N   UNL     1      80.954  18.470  95.121  0.00  0.00    -0.263 NA
ATOM     40  C   UNL     1      81.894  18.746  94.117  0.00  0.00    +0.111 A 
ENDBRANCH   4   3
ENDBRANCH  10   9
BRANCH  12  13
ATOM     13  N   UNL     1      71.496  21.071  88.826  0.00  0.00    -0.281 N 
ATOM     14  C   UNL     1      70.765  21.089  87.649  0.00  0.00    +0.248 C 
ATOM     30  O   UNL     1      70.643  20.133  86.897  0.00  0.00    -0.270 OA
ATOM     31  H   UNL     1      71.678  21.979  89.254  0.00  0.00    +0.155 HD
BRANCH  14  15
ATOM     15  C   UNL     1      70.083  22.354  87.242  0.00  0.00    +0.037 A 
ATOM     16  C   UNL     1      69.406  22.470  85.948  0.00  0.00    +0.013 A 
ATOM     17  C   UNL     1      68.771  23.708  85.572  0.00  0.00    +0.005 A 
ATOM     18  C   UNL     1      68.808  24.841  86.494  0.00  0.00    -0.033 A 
ATOM     28  C   UNL     1      69.482  24.697  87.774  0.00  0.00    +0.005 A 
ATOM     29  C   UNL     1      70.107  23.485  88.145  0.00  0.00    +0.013 A 
BRANCH  18  19
ATOM     19  C   UNL     1      68.174  26.206  86.167  0.00  0.00    +0.119 C 
BRANCH  19  20
ATOM     20  N   UNL     1      66.880  26.536  86.834  0.00  0.00    -0.302 NA
ATOM     21  C   UNL     1      65.711  25.739  86.247  0.00  0.00    +0.066 C 
ATOM     22  C   UNL     1      64.369  26.080  86.971  0.00  0.00    -0.064 C 
ATOM     23  N   UNL     1      64.104  27.584  86.868  0.00  0.00    +0.379 N 
ATOM     24  C   UNL     1      62.814  27.899  87.498  0.00  0.00    -0.096 C 
ATOM     25  H   UNL     1      64.025  27.839  85.786  0.00  0.00    -0.082 HD
ATOM     26  C   UNL     1      65.262  28.384  87.448  0.00  0.00    -0.064 C 
ATOM     27  C   UNL     1      66.597  28.016  86.741  0.00  0.00    +0.066 C 
ENDBRANCH  19  20
ENDBRANCH  18  19
ENDBRANCH  14  15
ENDBRANCH  12  13
TORSDOF 6
ENDMDL
MODEL 2
REMARK VINA RESULT:      -7.7     29.394     33.125
REMARK  Name = C:\Users\Docking\Desktop\test protocol\1iep_ligandH.pdb
REMARK  8 active torsions:
REMARK  status: ('A' for Active; 'I' for Inactive)
REMARK    1  A    between atoms: _5  and  _11
REMARK    2  A    between atoms: _19  and  _21
REMARK    3  A    between atoms: _22  and  _66
REMARK    4  A    between atoms: _27  and  _30
REMARK    5  A    between atoms: _32  and  _33
REMARK    6  A    between atoms: _38  and  _43
REMARK    7  A    between atoms: _43  and  _46
REMARK    8  A    between atoms: _53  and  _55
REMARK                            x       y       z     vdW  Elec       q    Type
REMARK                         _______ _______ _______ _____ _____    ______ ____
ROOT
ATOM     10  C   UNL     1      67.542  -8.571 101.813  0.00  0.00    +0.038 A 
ATOM     11  C   UNL     1      66.312  -8.447 101.118  0.00  0.00    +0.047 A 
ATOM     12  C   UNL     1      65.043  -8.699 101.782  0.00  0.00    +0.035 A 
ATOM     32  C   UNL     1      65.063  -9.073 103.158  0.00  0.00    +0.024 A 
ATOM     33  C   UNL     1      66.304  -9.204 103.880  0.00  0.00    +0.007 A 
ATOM     34  C   UNL     1      67.560  -8.960 103.229  0.00  0.00    -0.029 A 
ATOM     35  C   UNL     1      68.859  -9.123 104.050  0.00  0.00    +0.045 C 
ENDROOT
BRANCH  10   9
ATOM      4  C   UNL     1      71.241  -5.740 100.656  0.00  0.00    +0.077 A 
ATOM      5  C   UNL     1      70.749  -4.665 101.469  0.00  0.00    +0.048 A 
ATOM      6  C   UNL     1      69.537  -4.878 102.163  0.00  0.00    +0.116 A 
ATOM      7  N   UNL     1      68.875  -6.081 102.046  0.00  0.00    -0.223 NA
ATOM      8  C   UNL     1      69.376  -7.097 101.252  0.00  0.00    +0.220 A 
ATOM      9  N   UNL     1      68.731  -8.318 101.126  0.00  0.00    -0.283 N 
ATOM     36  H   UNL     1      69.130  -9.038 100.525  0.00  0.00    +0.155 HD
ATOM     37  N   UNL     1      70.531  -6.917 100.578  0.00  0.00    -0.214 NA
BRANCH   4   3
ATOM      1  C   UNL     1      73.806  -5.775  97.703  0.00  0.00    +0.020 A 
ATOM      2  C   UNL     1      72.554  -5.856  98.420  0.00  0.00    +0.013 A 
ATOM      3  C   UNL     1      72.510  -5.668  99.864  0.00  0.00    +0.019 A 
ATOM     38  C   UNL     1      73.759  -5.397 100.559  0.00  0.00    +0.120 A 
ATOM     39  N   UNL     1      74.950  -5.327  99.842  0.00  0.00    -0.263 NA
ATOM     40  C   UNL     1      75.005  -5.508  98.452  0.00  0.00    +0.111 A 
ENDBRANCH   4   3
ENDBRANCH  10   9
BRANCH  12  13
ATOM     13  N   UNL     1      63.764  -8.597 101.125  0.00  0.00    -0.281 N 
ATOM     14  C   UNL     1      63.139  -9.540 100.326  0.00  0.00    +0.248 C 
ATOM     30  O   UNL     1      63.685 -10.537  99.879  0.00  0.00    -0.270 OA
ATOM     31  H   UNL     1      63.257  -7.722 101.267  0.00  0.00    +0.155 HD
BRANCH  14  15
ATOM     15  C   UNL     1      61.704  -9.339  99.959  0.00  0.00    +0.037 A 
ATOM     16  C   UNL     1      60.965 -10.351  99.200  0.00  0.00    +0.013 A 
ATOM     17  C   UNL     1      59.587 -10.124  98.844  0.00  0.00    +0.005 A 
ATOM     18  C   UNL     1      58.938  -8.880  99.249  0.00  0.00    -0.033 A 
ATOM     28  C   UNL     1      59.693  -7.895 100.007  0.00  0.00    +0.005 A 
ATOM     29  C   UNL     1      61.044  -8.113 100.356  0.00  0.00    +0.013 A 
BRANCH  18  19
ATOM     19  C   UNL     1      57.477  -8.544  98.895  0.00  0.00    +0.119 C 
BRANCH  19  20
ATOM     20  N   UNL     1      56.419  -9.021  99.836  0.00  0.00    -0.302 NA
ATOM     21  C   UNL     1      56.924  -9.092 101.280  0.00  0.00    +0.066 C 
ATOM     22  C   UNL     1      55.798  -9.571 102.253  0.00  0.00    -0.064 C 
ATOM     23  N   UNL     1      55.275 -10.933 101.794  0.00  0.00    +0.379 N 
ATOM     24  C   UNL     1      54.256 -11.412 102.740  0.00  0.00    -0.096 C 
ATOM     25  H   UNL     1      56.128 -11.650 101.823  0.00  0.00    -0.082 HD
ATOM     26  C   UNL     1      54.773 -10.871 100.358  0.00  0.00    -0.064 C 
ATOM     27  C   UNL     1      55.891 -10.366  99.403  0.00  0.00    +0.066 C 
ENDBRANCH  19  20
ENDBRANCH  18  19
ENDBRANCH  14  15
ENDBRANCH  12  13
TORSDOF 6
ENDMDL
MODEL 3
REMARK VINA RESULT:      -7.6     30.324     34.156
REMARK  Name = C:\Users\Docking\Desktop\test protocol\1iep_ligandH.pdb
REMARK  8 active torsions:
REMARK  status: ('A' for Active; 'I' for Inactive)
REMARK    1  A    between atoms: _5  and  _11
REMARK    2  A    between atoms: _19  and  _21
REMARK    3  A    between atoms: _22  and  _66
REMARK    4  A    between atoms: _27  and  _30
REMARK    5  A    between atoms: _32  and  _33
REMARK    6  A    between atoms: _38  and  _43
REMARK    7  A    between atoms: _43  and  _46
REMARK    8  A    between atoms: _53  and  _55
REMARK                            x       y       z     vdW  Elec       q    Type
REMARK                         _______ _______ _______ _____ _____    ______ ____
ROOT
ATOM     10  C   UNL     1      54.381  -5.083  79.351  0.00  0.00    +0.038 A 
ATOM     11  C   UNL     1      55.754  -4.727  79.355  0.00  0.00    +0.047 A 
ATOM     12  C   UNL     1      56.337  -3.966  78.261  0.00  0.00    +0.035 A 
ATOM     32  C   UNL     1      55.493  -3.583  77.179  0.00  0.00    +0.024 A 
ATOM     33  C   UNL     1      54.095  -3.938  77.157  0.00  0.00    +0.007 A 
ATOM     34  C   UNL     1      53.515  -4.690  78.233  0.00  0.00    -0.029 A 
ATOM     35  C   UNL     1      52.012  -5.048  78.154  0.00  0.00    +0.045 C 
ENDROOT
BRANCH  10   9
ATOM      4  C   UNL     1      54.157  -9.050  82.044  0.00  0.00    +0.077 A 
ATOM      5  C   UNL     1      55.113  -9.733  81.222  0.00  0.00    +0.048 A 
ATOM      6  C   UNL     1      55.633  -9.032  80.111  0.00  0.00    +0.116 A 
ATOM      7  N   UNL     1      55.220  -7.743  79.852  0.00  0.00    -0.223 NA
ATOM      8  C   UNL     1      54.296  -7.113  80.664  0.00  0.00    +0.220 A 
ATOM      9  N   UNL     1      53.873  -5.814  80.427  0.00  0.00    -0.283 N 
ATOM     36  H   UNL     1      53.184  -5.387  81.046  0.00  0.00    +0.155 HD
ATOM     37  N   UNL     1      53.783  -7.762  81.730  0.00  0.00    -0.214 NA
BRANCH   4   3
ATOM      1  C   UNL     1      52.889 -11.626  84.701  0.00  0.00    +0.020 A 
ATOM      2  C   UNL     1      53.519 -11.091  83.515  0.00  0.00    +0.013 A 
ATOM      3  C   UNL     1      53.520  -9.657  83.255  0.00  0.00    +0.019 A 
ATOM     38  C   UNL     1      52.871  -8.784  84.223  0.00  0.00    +0.120 A 
ATOM     39  N   UNL     1      52.272  -9.328  85.355  0.00  0.00    -0.263 NA
ATOM     40  C   UNL     1      52.263 -10.707  85.614  0.00  0.00    +0.111 A 
ENDBRANCH   4   3
ENDBRANCH  10   9
BRANCH  12  13
ATOM     13  N   UNL     1      57.726  -3.583  78.207  0.00  0.00    -0.281 N 
ATOM     14  C   UNL     1      58.812  -4.363  77.845  0.00  0.00    +0.248 C 
ATOM     30  O   UNL     1      58.778  -5.578  77.718  0.00  0.00    -0.270 OA
ATOM     31  H   UNL     1      57.934  -2.618  78.467  0.00  0.00    +0.155 HD
BRANCH  14  15
ATOM     15  C   UNL     1      60.130  -3.700  77.605  0.00  0.00    +0.037 A 
ATOM     16  C   UNL     1      60.460  -2.417  78.230  0.00  0.00    +0.013 A 
ATOM     17  C   UNL     1      61.732  -1.791  77.967  0.00  0.00    +0.005 A 
ATOM     18  C   UNL     1      62.683  -2.449  77.075  0.00  0.00    -0.033 A 
ATOM     28  C   UNL     1      62.332  -3.724  76.473  0.00  0.00    +0.005 A 
ATOM     29  C   UNL     1      61.086  -4.340  76.727  0.00  0.00    +0.013 A 
BRANCH  18  19
ATOM     19  C   UNL     1      64.055  -1.843  76.722  0.00  0.00    +0.119 C 
BRANCH  19  20
ATOM     20  N   UNL     1      65.055  -2.745  76.076  0.00  0.00    -0.302 NA
ATOM     21  C   UNL     1      65.954  -3.435  77.105  0.00  0.00    +0.066 C 
ATOM     22  C   UNL     1      66.979  -4.392  76.414  0.00  0.00    -0.064 C 
ATOM     23  N   UNL     1      67.816  -3.599  75.409  0.00  0.00    +0.379 N 
ATOM     24  C   UNL     1      68.820  -4.483  74.799  0.00  0.00    -0.096 C 
ATOM     25  H   UNL     1      68.361  -2.807  75.973  0.00  0.00    -0.082 HD
ATOM     26  C   UNL     1      66.929  -2.907  74.383  0.00  0.00    -0.064 C 
ATOM     27  C   UNL     1      65.894  -1.981  75.082  0.00  0.00    +0.066 C 
ENDBRANCH  19  20
ENDBRANCH  18  19
ENDBRANCH  14  15
ENDBRANCH  12  13
TORSDOF 6
ENDMDL
MODEL 4
REMARK VINA RESULT:      -7.6     23.804     27.891
REMARK  Name = C:\Users\Docking\Desktop\test protocol\1iep_ligandH.pdb
REMARK  8 active torsions:
REMARK  status: ('A' for Active; 'I' for Inactive)
REMARK    1  A    between atoms: _5  and  _11
REMARK    2  A    between atoms: _19  and  _21
REMARK    3  A    between atoms: _22  and  _66
REMARK    4  A    between atoms: _27  and  _30
REMARK    5  A    between atoms: _32  and  _33
REMARK    6  A    between atoms: _38  and  _43
REMARK    7  A    between atoms: _43  and  _46
REMARK    8  A    between atoms: _53  and  _55
REMARK                            x       y       z     vdW  Elec       q    Type
REMARK                         _______ _______ _______ _____ _____    ______ ____
ROOT
ATOM     10  C   UNL     1      51.327   7.871  80.484  0.00  0.00    +0.038 A 
ATOM     11  C   UNL     1      50.435   8.706  81.205  0.00  0.00    +0.047 A 
ATOM     12  C   UNL     1      49.002   8.457  81.200  0.00  0.00    +0.035 A 
ATOM     32  C   UNL     1      48.511   7.347  80.452  0.00  0.00    +0.024 A 
ATOM     33  C   UNL     1      49.404   6.489  79.712  0.00  0.00    +0.007 A 
ATOM     34  C   UNL     1      50.818   6.731  79.712  0.00  0.00    -0.029 A 
ATOM     35  C   UNL     1      51.728   5.783  78.896  0.00  0.00    +0.045 C 
ENDROOT
BRANCH  10   9
ATOM      4  C   UNL     1      55.130  10.543  79.284  0.00  0.00    +0.077 A 
ATOM      5  C   UNL     1      54.331  11.429  78.489  0.00  0.00    +0.048 A 
ATOM      6  C   UNL     1      52.946  11.159  78.409  0.00  0.00    +0.116 A 
ATOM      7  N   UNL     1      52.412  10.080  79.079  0.00  0.00    -0.223 NA
ATOM      8  C   UNL     1      53.211   9.243  79.836  0.00  0.00    +0.220 A 
ATOM      9  N   UNL     1      52.694   8.157  80.524  0.00  0.00    -0.283 N 
ATOM     36  H   UNL     1      53.318   7.559  81.065  0.00  0.00    +0.155 HD
ATOM     37  N   UNL     1      54.536   9.479  79.927  0.00  0.00    -0.214 NA
BRANCH   4   3
ATOM      1  C   UNL     1      58.625  11.664  80.635  0.00  0.00    +0.020 A 
ATOM      2  C   UNL     1      57.192  11.549  80.498  0.00  0.00    +0.013 A 
ATOM      3  C   UNL     1      56.607  10.698  79.469  0.00  0.00    +0.019 A 
ATOM     38  C   UNL     1      57.509   9.971  78.589  0.00  0.00    +0.120 A 
ATOM     39  N   UNL     1      58.885  10.102  78.743  0.00  0.00    -0.263 NA
ATOM     40  C   UNL     1      59.459  10.920  79.728  0.00  0.00    +0.111 A 
ENDBRANCH   4   3
ENDBRANCH  10   9
BRANCH  12  13
ATOM     13  N   UNL     1      48.047   9.274  81.906  0.00  0.00    -0.281 N 
ATOM     14  C   UNL     1      47.601  10.543  81.573  0.00  0.00    +0.248 C 
ATOM     30  O   UNL     1      48.118  11.258  80.728  0.00  0.00    -0.270 OA
ATOM     31  H   UNL     1      47.651   8.868  82.754  0.00  0.00    +0.155 HD
BRANCH  14  15
ATOM     15  C   UNL     1      46.417  11.104  82.293  0.00  0.00    +0.037 A 
ATOM     16  C   UNL     1      45.684  12.258  81.766  0.00  0.00    +0.013 A 
ATOM     17  C   UNL     1      44.556  12.790  82.489  0.00  0.00    +0.005 A 
ATOM     18  C   UNL     1      44.154  12.167  83.748  0.00  0.00    -0.033 A 
ATOM     28  C   UNL     1      44.896  11.020  84.245  0.00  0.00    +0.005 A 
ATOM     29  C   UNL     1      46.002  10.497  83.540  0.00  0.00    +0.013 A 
BRANCH  18  19
ATOM     19  C   UNL     1      42.976  12.682  84.597  0.00  0.00    +0.119 C 
BRANCH  19  20
ATOM     20  N   UNL     1      41.610  12.204  84.231  0.00  0.00    -0.302 NA
ATOM     21  C   UNL     1      41.522  10.675  84.210  0.00  0.00    +0.066 C 
ATOM     22  C   UNL     1      40.080  10.193  83.848  0.00  0.00    -0.064 C 
ATOM     23  N   UNL     1      39.675  10.777  82.493  0.00  0.00    +0.379 N 
ATOM     24  C   UNL     1      38.342  10.279  82.122  0.00  0.00    -0.096 C 
ATOM     25  H   UNL     1      40.400  10.402  81.733  0.00  0.00    -0.082 HD
ATOM     26  C   UNL     1      39.762  12.297  82.504  0.00  0.00    -0.064 C 
ATOM     27  C   UNL     1      41.191  12.765  82.894  0.00  0.00    +0.066 C 
ENDBRANCH  19  20
ENDBRANCH  18  19
ENDBRANCH  14  15
ENDBRANCH  12  13
TORSDOF 6
ENDMDL
MODEL 5
REMARK VINA RESULT:      -7.6     29.640     33.771
REMARK  Name = C:\Users\Docking\Desktop\test protocol\1iep_ligandH.pdb
REMARK  8 active torsions:
REMARK  status: ('A' for Active; 'I' for Inactive)
REMARK    1  A    between atoms: _5  and  _11
REMARK    2  A    between atoms: _19  and  _21
REMARK    3  A    between atoms: _22  and  _66
REMARK    4  A    between atoms: _27  and  _30
REMARK    5  A    between atoms: _32  and  _33
REMARK    6  A    between atoms: _38  and  _43
REMARK    7  A    between atoms: _43  and  _46
REMARK    8  A    between atoms: _53  and  _55
REMARK                            x       y       z     vdW  Elec       q    Type
REMARK                         _______ _______ _______ _____ _____    ______ ____
ROOT
ATOM     10  C   UNL     1      66.940  -8.158 102.245  0.00  0.00    +0.038 A 
ATOM     11  C   UNL     1      65.712  -7.997 101.555  0.00  0.00    +0.047 A 
ATOM     12  C   UNL     1      64.482  -8.587 102.059  0.00  0.00    +0.035 A 
ATOM     32  C   UNL     1      64.539  -9.334 103.272  0.00  0.00    +0.024 A 
ATOM     33  C   UNL     1      65.779  -9.509 103.986  0.00  0.00    +0.007 A 
ATOM     34  C   UNL     1      66.996  -8.932 103.491  0.00  0.00    -0.029 A 
ATOM     35  C   UNL     1      68.298  -9.157 104.294  0.00  0.00    +0.045 C 
ENDROOT
BRANCH  10   9
ATOM      4  C   UNL     1      70.884  -8.283  99.511  0.00  0.00    +0.077 A 
ATOM      5  C   UNL     1      70.646  -9.645  99.127  0.00  0.00    +0.048 A 
ATOM      6  C   UNL     1      69.502 -10.279  99.661  0.00  0.00    +0.116 A 
ATOM      7  N   UNL     1      68.665  -9.593 100.514  0.00  0.00    -0.223 NA
ATOM      8  C   UNL     1      68.924  -8.281 100.865  0.00  0.00    +0.220 A 
ATOM      9  N   UNL     1      68.091  -7.570 101.715  0.00  0.00    -0.283 N 
ATOM     36  H   UNL     1      68.321  -6.606 101.956  0.00  0.00    +0.155 HD
ATOM     37  N   UNL     1      70.011  -7.653 100.370  0.00  0.00    -0.214 NA
BRANCH   4   3
ATOM      1  C   UNL     1      73.056  -5.527  97.782  0.00  0.00    +0.020 A 
ATOM      2  C   UNL     1      71.898  -6.271  98.223  0.00  0.00    +0.013 A 
ATOM      3  C   UNL     1      72.049  -7.476  99.028  0.00  0.00    +0.019 A 
ATOM     38  C   UNL     1      73.395  -7.904  99.375  0.00  0.00    +0.120 A 
ATOM     39  N   UNL     1      74.492  -7.169  98.935  0.00  0.00    -0.263 NA
ATOM     40  C   UNL     1      74.359  -6.009  98.158  0.00  0.00    +0.111 A 
ENDBRANCH   4   3
ENDBRANCH  10   9
BRANCH  12  13
ATOM     13  N   UNL     1      63.207  -8.463 101.398  0.00  0.00    -0.281 N 
ATOM     14  C   UNL     1      62.740  -9.179 100.307  0.00  0.00    +0.248 C 
ATOM     30  O   UNL     1      63.437  -9.890  99.598  0.00  0.00    -0.270 OA
ATOM     31  H   UNL     1      62.571  -7.764 101.780  0.00  0.00    +0.155 HD
BRANCH  14  15
ATOM     15  C   UNL     1      61.294  -9.078  99.942  0.00  0.00    +0.037 A 
ATOM     16  C   UNL     1      60.519  -7.869 100.233  0.00  0.00    +0.013 A 
ATOM     17  C   UNL     1      59.122  -7.805  99.886  0.00  0.00    +0.005 A 
ATOM     18  C   UNL     1      58.490  -8.955  99.243  0.00  0.00    -0.033 A 
ATOM     28  C   UNL     1      59.284 -10.139  98.961  0.00  0.00    +0.005 A 
ATOM     29  C   UNL     1      60.653 -10.206  99.300  0.00  0.00    +0.013 A 
BRANCH  18  19
ATOM     19  C   UNL     1      56.999  -8.982  98.857  0.00  0.00    +0.119 C 
BRANCH  19  20
ATOM     20  N   UNL     1      56.145 -10.022  99.504  0.00  0.00    -0.302 NA
ATOM     21  C   UNL     1      54.697  -9.965  99.010  0.00  0.00    +0.066 C 
ATOM     22  C   UNL     1      53.822 -11.073  99.680  0.00  0.00    -0.064 C 
ATOM     23  N   UNL     1      53.881 -10.916 101.201  0.00  0.00    +0.379 N 
ATOM     24  C   UNL     1      53.014 -11.921 101.832  0.00  0.00    -0.096 C 
ATOM     25  H   UNL     1      53.473  -9.910 101.452  0.00  0.00    -0.082 HD
ATOM     26  C   UNL     1      55.318 -10.969 101.701  0.00  0.00    -0.064 C 
ATOM     27  C   UNL     1      56.185  -9.882 101.006  0.00  0.00    +0.066 C 
ENDBRANCH  19  20
ENDBRANCH  18  19
ENDBRANCH  14  15
ENDBRANCH  12  13
TORSDOF 6
ENDMDL
