MODEL 1
REMARK VINA RESULT:      -8.2      0.000      0.000
REMARK  Name = C:\Users\Docking\Desktop\test protocol\1iep_ligandH.pdb
REMARK  8 active torsions:
REMARK  status: ('A' for Active; 'I' for Inactive)
REMARK    1  A    between atoms: _5  and  _11
REMARK    2  A    between atoms: _19  and  _21
REMARK    3  A    between atoms: _22  and  _66
REMARK    4  A    between atoms: _27  and  _30
REMARK    5  A    between atoms: _32  and  _33
REMARK    6  A    between atoms: _38  and  _43
REMARK    7  A    between atoms: _43  and  _46
REMARK    8  A    between atoms: _53  and  _55
REMARK                            x       y       z     vdW  Elec       q    Type
REMARK                         _______ _______ _______ _____ _____    ______ ____
ROOT
ATOM     10  C   UNL     1      34.174  12.546  88.078  0.00  0.00    +0.038 A 
ATOM     11  C   UNL     1      35.403  12.319  87.408  0.00  0.00    +0.047 A 
ATOM     12  C   UNL     1      35.456  11.557  86.170  0.00  0.00    +0.035 A 
ATOM     32  C   UNL     1      34.237  11.044  85.640  0.00  0.00    +0.024 A 
ATOM     33  C   UNL     1      32.978  11.264  86.308  0.00  0.00    +0.007 A 
ATOM     34  C   UNL     1      32.920  12.013  87.531  0.00  0.00    -0.029 A 
ATOM     35  C   UNL     1      31.544  12.213  88.208  0.00  0.00    +0.045 C 
ENDROOT
BRANCH  10   9
ATOM      4  C   UNL     1      34.603  12.893  92.846  0.00  0.00    +0.077 A 
ATOM      5  C   UNL     1      34.804  11.480  92.990  0.00  0.00    +0.048 A 
ATOM      6  C   UNL     1      34.782  10.698  91.813  0.00  0.00    +0.116 A 
ATOM      7  N   UNL     1      34.575  11.296  90.589  0.00  0.00    -0.223 NA
ATOM      8  C   UNL     1      34.383  12.661  90.485  0.00  0.00    +0.220 A 
ATOM      9  N   UNL     1      34.181  13.285  89.263  0.00  0.00    -0.283 N 
ATOM     36  H   UNL     1      34.036  14.294  89.230  0.00  0.00    +0.155 HD
ATOM     37  N   UNL     1      34.398  13.430  91.594  0.00  0.00    -0.214 NA
BRANCH   4   3
ATOM      1  C   UNL     1      34.000  16.054  95.070  0.00  0.00    +0.020 A 
ATOM      2  C   UNL     1      33.973  15.165  93.931  0.00  0.00    +0.013 A 
ATOM      3  C   UNL     1      34.603  13.852  93.995  0.00  0.00    +0.019 A 
ATOM     38  C   UNL     1      35.255  13.465  95.237  0.00  0.00    +0.120 A 
ATOM     39  N   UNL     1      35.267  14.342  96.317  0.00  0.00    -0.263 NA
ATOM     40  C   UNL     1      34.666  15.609  96.266  0.00  0.00    +0.111 A 
ENDBRANCH   4   3
ENDBRANCH  10   9
BRANCH  12  13
ATOM     13  N   UNL     1      36.676  11.288  85.450  0.00  0.00    -0.281 N 
ATOM     14  C   UNL     1      37.696  10.417  85.798  0.00  0.00    +0.248 C 
ATOM     30  O   UNL     1      37.812   9.893  86.896  0.00  0.00    -0.270 OA
ATOM     31  H   UNL     1      36.804  11.801  84.578  0.00  0.00    +0.155 HD
BRANCH  14  15
ATOM     15  C   UNL     1      38.745  10.092  84.785  0.00  0.00    +0.037 A 
ATOM     16  C   UNL     1      39.326   8.750  84.696  0.00  0.00    +0.013 A 
ATOM     17  C   UNL     1      40.349   8.468  83.720  0.00  0.00    +0.005 A 
ATOM     18  C   UNL     1      40.798   9.532  82.825  0.00  0.00    -0.033 A 
ATOM     28  C   UNL     1      40.201  10.853  82.932  0.00  0.00    +0.005 A 
ATOM     29  C   UNL     1      39.198  11.133  83.887  0.00  0.00    +0.013 A 
BRANCH  18  19
ATOM     19  C   UNL     1      41.899   9.326  81.768  0.00  0.00    +0.119 C 
BRANCH  19  20
ATOM     20  N   UNL     1      43.312   9.285  82.252  0.00  0.00    -0.302 NA
ATOM     21  C   UNL     1      43.774  10.641  82.794  0.00  0.00    +0.066 C 
ATOM     22  C   UNL     1      45.245  10.574  83.316  0.00  0.00    -0.064 C 
ATOM     23  N   UNL     1      46.163  10.100  82.188  0.00  0.00    +0.379 N 
ATOM     24  C   UNL     1      47.556  10.091  82.659  0.00  0.00    -0.096 C 
ATOM     25  H   UNL     1      46.091  10.842  81.359  0.00  0.00    -0.082 HD
ATOM     26  C   UNL     1      45.709   8.753  81.642  0.00  0.00    -0.064 C 
ATOM     27  C   UNL     1      44.236   8.823  81.153  0.00  0.00    +0.066 C 
ENDBRANCH  19  20
ENDBRANCH  18  19
ENDBRANCH  14  15
ENDBRANCH  12  13
TORSDOF 6
ENDMDL
MODEL 2
REMARK VINA RESULT:      -8.1     42.507     48.788
REMARK  Name = C:\Users\Docking\Desktop\test protocol\1iep_ligandH.pdb
REMARK  8 active torsions:
REMARK  status: ('A' for Active; 'I' for Inactive)
REMARK    1  A    between atoms: _5  and  _11
REMARK    2  A    between atoms: _19  and  _21
REMARK    3  A    between atoms: _22  and  _66
REMARK    4  A    between atoms: _27  and  _30
REMARK    5  A    between atoms: _32  and  _33
REMARK    6  A    between atoms: _38  and  _43
REMARK    7  A    between atoms: _43  and  _46
REMARK    8  A    between atoms: _53  and  _55
REMARK                            x       y       z     vdW  Elec       q    Type
REMARK                         _______ _______ _______ _____ _____    ______ ____
ROOT
ATOM     10  C   UNL     1      86.944   4.206  94.415  0.00  0.00    +0.038 A 
ATOM     11  C   UNL     1      85.862   4.192  93.498  0.00  0.00    +0.047 A 
ATOM     12  C   UNL     1      85.784   5.156  92.411  0.00  0.00    +0.035 A 
ATOM     32  C   UNL     1      86.827   6.119  92.286  0.00  0.00    +0.024 A 
ATOM     33  C   UNL     1      87.934   6.148  93.210  0.00  0.00    +0.007 A 
ATOM     34  C   UNL     1      88.015   5.202  94.285  0.00  0.00    -0.029 A 
ATOM     35  C   UNL     1      89.221   5.284  95.249  0.00  0.00    +0.045 C 
ENDROOT
BRANCH  10   9
ATOM      4  C   UNL     1      88.356   0.007  96.263  0.00  0.00    +0.077 A 
ATOM      5  C   UNL     1      89.084  -0.338  95.075  0.00  0.00    +0.048 A 
ATOM      6  C   UNL     1      89.064   0.589  94.010  0.00  0.00    +0.116 A 
ATOM      7  N   UNL     1      88.365   1.771  94.133  0.00  0.00    -0.223 NA
ATOM      8  C   UNL     1      87.672   2.072  95.291  0.00  0.00    +0.220 A 
ATOM      9  N   UNL     1      86.969   3.257  95.440  0.00  0.00    -0.283 N 
ATOM     36  H   UNL     1      86.464   3.439  96.307  0.00  0.00    +0.155 HD
ATOM     37  N   UNL     1      87.674   1.202  96.323  0.00  0.00    -0.214 NA
BRANCH   4   3
ATOM      1  C   UNL     1      87.176  -2.633  98.897  0.00  0.00    +0.020 A 
ATOM      2  C   UNL     1      87.198  -1.810  97.709  0.00  0.00    +0.013 A 
ATOM      3  C   UNL     1      88.284  -0.868  97.476  0.00  0.00    +0.019 A 
ATOM     38  C   UNL     1      89.342  -0.781  98.471  0.00  0.00    +0.120 A 
ATOM     39  N   UNL     1      89.294  -1.584  99.606  0.00  0.00    -0.263 NA
ATOM     40  C   UNL     1      88.253  -2.494  99.842  0.00  0.00    +0.111 A 
ENDBRANCH   4   3
ENDBRANCH  10   9
BRANCH  12  13
ATOM     13  N   UNL     1      84.705   5.195  91.455  0.00  0.00    -0.281 N 
ATOM     14  C   UNL     1      83.359   5.411  91.698  0.00  0.00    +0.248 C 
ATOM     30  O   UNL     1      82.845   5.392  92.807  0.00  0.00    -0.270 OA
ATOM     31  H   UNL     1      84.966   5.045  90.480  0.00  0.00    +0.155 HD
BRANCH  14  15
ATOM     15  C   UNL     1      82.449   5.673  90.542  0.00  0.00    +0.037 A 
ATOM     16  C   UNL     1      80.998   5.765  90.722  0.00  0.00    +0.013 A 
ATOM     17  C   UNL     1      80.142   6.001  89.587  0.00  0.00    +0.005 A 
ATOM     18  C   UNL     1      80.736   6.148  88.260  0.00  0.00    -0.033 A 
ATOM     28  C   UNL     1      82.179   6.057  88.110  0.00  0.00    +0.005 A 
ATOM     29  C   UNL     1      83.021   5.825  89.221  0.00  0.00    +0.013 A 
BRANCH  18  19
ATOM     19  C   UNL     1      79.897   6.381  86.989  0.00  0.00    +0.119 C 
BRANCH  19  20
ATOM     20  N   UNL     1      79.931   5.316  85.943  0.00  0.00    -0.302 NA
ATOM     21  C   UNL     1      79.041   5.659  84.745  0.00  0.00    +0.066 C 
ATOM     22  C   UNL     1      79.106   4.545  83.650  0.00  0.00    -0.064 C 
ATOM     23  N   UNL     1      78.696   3.205  84.264  0.00  0.00    +0.379 N 
ATOM     24  C   UNL     1      78.701   2.167  83.223  0.00  0.00    -0.096 C 
ATOM     25  H   UNL     1      77.650   3.309  84.634  0.00  0.00    -0.082 HD
ATOM     26  C   UNL     1      79.575   2.858  85.457  0.00  0.00    -0.064 C 
ATOM     27  C   UNL     1      79.526   3.985  86.526  0.00  0.00    +0.066 C 
ENDBRANCH  19  20
ENDBRANCH  18  19
ENDBRANCH  14  15
ENDBRANCH  12  13
TORSDOF 6
ENDMDL
MODEL 3
REMARK VINA RESULT:      -8.0     42.643     50.147
REMARK  Name = C:\Users\Docking\Desktop\test protocol\1iep_ligandH.pdb
REMARK  8 active torsions:
REMARK  status: ('A' for Active; 'I' for Inactive)
REMARK    1  A    between atoms: _5  and  _11
REMARK    2  A    between atoms: _19  and  _21
REMARK    3  A    between atoms: _22  and  _66
REMARK    4  A    between atoms: _27  and  _30
REMARK    5  A    between atoms: _32  and  _33
REMARK    6  A    between atoms: _38  and  _43
REMARK    7  A    between atoms: _43  and  _46
REMARK    8  A    between atoms: _53  and  _55
REMARK                            x       y       z     vdW  Elec       q    Type
REMARK                         _______ _______ _______ _____ _____    ______ ____
ROOT
ATOM     10  C   UNL     1      86.135   4.754  92.539  0.00  0.00    +0.038 A 
ATOM     11  C   UNL     1      86.209   3.611  93.375  0.00  0.00    +0.047 A 
ATOM     12  C   UNL     1      87.213   3.508  94.422  0.00  0.00    +0.035 A 
ATOM     32  C   UNL     1      88.125   4.590  94.592  0.00  0.00    +0.024 A 
ATOM     33  C   UNL     1      88.065   5.760  93.751  0.00  0.00    +0.007 A 
ATOM     34  C   UNL     1      87.078   5.866  92.715  0.00  0.00    -0.029 A 
ATOM     35  C   UNL     1      87.064   7.140  91.838  0.00  0.00    +0.045 C 
ENDROOT
BRANCH  10   9
ATOM      4  C   UNL     1      81.601   5.409  91.106  0.00  0.00    +0.077 A 
ATOM      5  C   UNL     1      81.150   5.654  92.446  0.00  0.00    +0.048 A 
ATOM      6  C   UNL     1      82.116   5.595  93.476  0.00  0.00    +0.116 A 
ATOM      7  N   UNL     1      83.431   5.312  93.177  0.00  0.00    -0.223 NA
ATOM      8  C   UNL     1      83.831   5.079  91.874  0.00  0.00    +0.220 A 
ATOM      9  N   UNL     1      85.150   4.800  91.549  0.00  0.00    -0.283 N 
ATOM     36  H   UNL     1      85.404   4.627  90.577  0.00  0.00    +0.155 HD
ATOM     37  N   UNL     1      82.929   5.128  90.873  0.00  0.00    -0.214 NA
BRANCH   4   3
ATOM      1  C   UNL     1      79.569   6.626  87.993  0.00  0.00    +0.020 A 
ATOM      2  C   UNL     1      80.446   6.651  89.141  0.00  0.00    +0.013 A 
ATOM      3  C   UNL     1      80.701   5.439  89.910  0.00  0.00    +0.019 A 
ATOM     38  C   UNL     1      80.049   4.209  89.487  0.00  0.00    +0.120 A 
ATOM     39  N   UNL     1      79.208   4.216  88.378  0.00  0.00    -0.263 NA
ATOM     40  C   UNL     1      78.954   5.376  87.632  0.00  0.00    +0.111 A 
ENDBRANCH   4   3
ENDBRANCH  10   9
BRANCH  12  13
ATOM     13  N   UNL     1      87.342   2.368  95.296  0.00  0.00    -0.281 N 
ATOM     14  C   UNL     1      88.262   1.336  95.219  0.00  0.00    +0.248 C 
ATOM     30  O   UNL     1      88.984   1.123  94.256  0.00  0.00    -0.270 OA
ATOM     31  H   UNL     1      86.673   2.316  96.064  0.00  0.00    +0.155 HD
BRANCH  14  15
ATOM     15  C   UNL     1      88.389   0.395  96.373  0.00  0.00    +0.037 A 
ATOM     16  C   UNL     1      89.454   0.551  97.367  0.00  0.00    +0.013 A 
ATOM     17  C   UNL     1      89.564  -0.381  98.461  0.00  0.00    +0.005 A 
ATOM     18  C   UNL     1      88.605  -1.478  98.567  0.00  0.00    -0.033 A 
ATOM     28  C   UNL     1      87.555  -1.606  97.570  0.00  0.00    +0.005 A 
ATOM     29  C   UNL     1      87.445  -0.695  96.496  0.00  0.00    +0.013 A 
BRANCH  18  19
ATOM     19  C   UNL     1      88.660  -2.532  99.689  0.00  0.00    +0.119 C 
BRANCH  19  20
ATOM     20  N   UNL     1      87.418  -3.321  99.948  0.00  0.00    -0.302 NA
ATOM     21  C   UNL     1      86.986  -3.247 101.415  0.00  0.00    +0.066 C 
ATOM     22  C   UNL     1      85.673  -4.060 101.662  0.00  0.00    -0.064 C 
ATOM     23  N   UNL     1      85.887  -5.512 101.233  0.00  0.00    +0.379 N 
ATOM     24  C   UNL     1      84.674  -6.292 101.518  0.00  0.00    -0.096 C 
ATOM     25  H   UNL     1      86.712  -5.931 101.855  0.00  0.00    -0.082 HD
ATOM     26  C   UNL     1      86.320  -5.594  99.776  0.00  0.00    -0.064 C 
ATOM     27  C   UNL     1      87.609  -4.759  99.534  0.00  0.00    +0.066 C 
ENDBRANCH  19  20
ENDBRANCH  18  19
ENDBRANCH  14  15
ENDBRANCH  12  13
TORSDOF 6
ENDMDL
MODEL 4
REMARK VINA RESULT:      -7.9     23.456     25.307
REMARK  Name = C:\Users\Docking\Desktop\test protocol\1iep_ligandH.pdb
REMARK  8 active torsions:
REMARK  status: ('A' for Active; 'I' for Inactive)
REMARK    1  A    between atoms: _5  and  _11
REMARK    2  A    between atoms: _19  and  _21
REMARK    3  A    between atoms: _22  and  _66
REMARK    4  A    between atoms: _27  and  _30
REMARK    5  A    between atoms: _32  and  _33
REMARK    6  A    between atoms: _38  and  _43
REMARK    7  A    between atoms: _43  and  _46
REMARK    8  A    between atoms: _53  and  _55
REMARK                            x       y       z     vdW  Elec       q    Type
REMARK                         _______ _______ _______ _____ _____    ______ ____
ROOT
ATOM     10  C   UNL     1      59.601  22.080  95.068  0.00  0.00    +0.038 A 
ATOM     11  C   UNL     1      59.808  21.568  93.761  0.00  0.00    +0.047 A 
ATOM     12  C   UNL     1      60.198  20.183  93.548  0.00  0.00    +0.035 A 
ATOM     32  C   UNL     1      60.367  19.346  94.690  0.00  0.00    +0.024 A 
ATOM     33  C   UNL     1      60.162  19.850  96.025  0.00  0.00    +0.007 A 
ATOM     34  C   UNL     1      59.779  21.216  96.241  0.00  0.00    -0.029 A 
ATOM     35  C   UNL     1      59.579  21.704  97.695  0.00  0.00    +0.045 C 
ENDROOT
BRANCH  10   9
ATOM      4  C   UNL     1      56.303  25.565  95.173  0.00  0.00    +0.077 A 
ATOM      5  C   UNL     1      55.238  24.647  94.886  0.00  0.00    +0.048 A 
ATOM      6  C   UNL     1      55.583  23.288  94.712  0.00  0.00    +0.116 A 
ATOM      7  N   UNL     1      56.897  22.888  94.818  0.00  0.00    -0.223 NA
ATOM      8  C   UNL     1      57.900  23.799  95.094  0.00  0.00    +0.220 A 
ATOM      9  N   UNL     1      59.227  23.417  95.214  0.00  0.00    -0.283 N 
ATOM     36  H   UNL     1      59.939  24.121  95.410  0.00  0.00    +0.155 HD
ATOM     37  N   UNL     1      57.597  25.103  95.264  0.00  0.00    -0.214 NA
BRANCH   4   3
ATOM      1  C   UNL     1      56.332  29.447  94.694  0.00  0.00    +0.020 A 
ATOM      2  C   UNL     1      56.556  28.042  94.440  0.00  0.00    +0.013 A 
ATOM      3  C   UNL     1      56.099  27.033  95.387  0.00  0.00    +0.019 A 
ATOM     38  C   UNL     1      55.413  27.481  96.589  0.00  0.00    +0.120 A 
ATOM     39  N   UNL     1      55.213  28.841  96.807  0.00  0.00    -0.263 NA
ATOM     40  C   UNL     1      55.650  29.822  95.905  0.00  0.00    +0.111 A 
ENDBRANCH   4   3
ENDBRANCH  10   9
BRANCH  12  13
ATOM     13  N   UNL     1      60.430  19.609  92.246  0.00  0.00    -0.281 N 
ATOM     14  C   UNL     1      60.156  20.168  91.008  0.00  0.00    +0.248 C 
ATOM     30  O   UNL     1      59.470  21.165  90.837  0.00  0.00    -0.270 OA
ATOM     31  H   UNL     1      60.847  18.678  92.235  0.00  0.00    +0.155 HD
BRANCH  14  15
ATOM     15  C   UNL     1      60.714  19.519  89.783  0.00  0.00    +0.037 A 
ATOM     16  C   UNL     1      61.198  18.136  89.810  0.00  0.00    +0.013 A 
ATOM     17  C   UNL     1      61.747  17.539  88.618  0.00  0.00    +0.005 A 
ATOM     18  C   UNL     1      61.813  18.325  87.388  0.00  0.00    -0.033 A 
ATOM     28  C   UNL     1      61.321  19.693  87.389  0.00  0.00    +0.005 A 
ATOM     29  C   UNL     1      60.784  20.282  88.555  0.00  0.00    +0.013 A 
BRANCH  18  19
ATOM     19  C   UNL     1      62.402  17.776  86.075  0.00  0.00    +0.119 C 
BRANCH  19  20
ATOM     20  N   UNL     1      63.724  18.319  85.640  0.00  0.00    -0.302 NA
ATOM     21  C   UNL     1      64.420  17.397  84.634  0.00  0.00    +0.066 C 
ATOM     22  C   UNL     1      65.790  17.991  84.171  0.00  0.00    -0.064 C 
ATOM     23  N   UNL     1      66.679  18.228  85.394  0.00  0.00    +0.379 N 
ATOM     24  C   UNL     1      67.989  18.732  84.958  0.00  0.00    -0.096 C 
ATOM     25  H   UNL     1      66.842  17.242  85.888  0.00  0.00    -0.082 HD
ATOM     26  C   UNL     1      65.993  19.141  86.400  0.00  0.00    -0.064 C 
ATOM     27  C   UNL     1      64.619  18.556  86.831  0.00  0.00    +0.066 C 
ENDBRANCH  19  20
ENDBRANCH  18  19
ENDBRANCH  14  15
ENDBRANCH  12  13
TORSDOF 6
ENDMDL
MODEL 5
REMARK VINA RESULT:      -7.7      1.711      2.190
REMARK  Name = C:\Users\Docking\Desktop\test protocol\1iep_ligandH.pdb
REMARK  8 active torsions:
REMARK  status: ('A' for Active; 'I' for Inactive)
REMARK    1  A    between atoms: _5  and  _11
REMARK    2  A    between atoms: _19  and  _21
REMARK    3  A    between atoms: _22  and  _66
REMARK    4  A    between atoms: _27  and  _30
REMARK    5  A    between atoms: _32  and  _33
REMARK    6  A    between atoms: _38  and  _43
REMARK    7  A    between atoms: _43  and  _46
REMARK    8  A    between atoms: _53  and  _55
REMARK                            x       y       z     vdW  Elec       q    Type
REMARK                         _______ _______ _______ _____ _____    ______ ____
ROOT
ATOM     10  C   UNL     1      35.005  11.302  88.423  0.00  0.00    +0.038 A 
ATOM     11  C   UNL     1      36.191  11.263  87.647  0.00  0.00    +0.047 A 
ATOM     12  C   UNL     1      36.152  10.944  86.228  0.00  0.00    +0.035 A 
ATOM     32  C   UNL     1      34.886  10.673  85.632  0.00  0.00    +0.024 A 
ATOM     33  C   UNL     1      33.670  10.708  86.406  0.00  0.00    +0.007 A 
ATOM     34  C   UNL     1      33.703  11.019  87.807  0.00  0.00    -0.029 A 
ATOM     35  C   UNL     1      32.369  11.035  88.589  0.00  0.00    +0.045 C 
ENDROOT
BRANCH  10   9
ATOM      4  C   UNL     1      34.895  14.424  92.068  0.00  0.00    +0.077 A 
ATOM      5  C   UNL     1      34.652  15.531  91.189  0.00  0.00    +0.048 A 
ATOM      6  C   UNL     1      34.569  15.256  89.806  0.00  0.00    +0.116 A 
ATOM      7  N   UNL     1      34.719  13.966  89.347  0.00  0.00    -0.223 NA
ATOM      8  C   UNL     1      34.954  12.921  90.221  0.00  0.00    +0.220 A 
ATOM      9  N   UNL     1      35.101  11.614  89.782  0.00  0.00    -0.283 N 
ATOM     36  H   UNL     1      35.280  10.872  90.458  0.00  0.00    +0.155 HD
ATOM     37  N   UNL     1      35.039  13.157  91.546  0.00  0.00    -0.214 NA
BRANCH   4   3
ATOM      1  C   UNL     1      35.407  13.605  95.859  0.00  0.00    +0.020 A 
ATOM      2  C   UNL     1      35.312  13.427  94.428  0.00  0.00    +0.013 A 
ATOM      3  C   UNL     1      35.005  14.553  93.555  0.00  0.00    +0.019 A 
ATOM     38  C   UNL     1      34.800  15.857  94.167  0.00  0.00    +0.120 A 
ATOM     39  N   UNL     1      34.896  15.999  95.547  0.00  0.00    -0.263 NA
ATOM     40  C   UNL     1      35.189  14.922  96.397  0.00  0.00    +0.111 A 
ENDBRANCH   4   3
ENDBRANCH  10   9
BRANCH  12  13
ATOM     13  N   UNL     1      37.324  10.881  85.391  0.00  0.00    -0.281 N 
ATOM     14  C   UNL     1      37.498  11.423  84.128  0.00  0.00    +0.248 C 
ATOM     30  O   UNL     1      36.594  11.863  83.434  0.00  0.00    -0.270 OA
ATOM     31  H   UNL     1      38.122  10.377  85.777  0.00  0.00    +0.155 HD
BRANCH  14  15
ATOM     15  C   UNL     1      38.874  11.468  83.545  0.00  0.00    +0.037 A 
ATOM     16  C   UNL     1      39.110  11.172  82.130  0.00  0.00    +0.013 A 
ATOM     17  C   UNL     1      40.449  11.206  81.598  0.00  0.00    +0.005 A 
ATOM     18  C   UNL     1      41.563  11.540  82.482  0.00  0.00    -0.033 A 
ATOM     28  C   UNL     1      41.300  11.835  83.881  0.00  0.00    +0.005 A 
ATOM     29  C   UNL     1      39.989  11.801  84.406  0.00  0.00    +0.013 A 
BRANCH  18  19
ATOM     19  C   UNL     1      43.027  11.580  82.005  0.00  0.00    +0.119 C 
BRANCH  19  20
ATOM     20  N   UNL     1      43.996  10.679  82.697  0.00  0.00    -0.302 NA
ATOM     21  C   UNL     1      44.860  11.435  83.710  0.00  0.00    +0.066 C 
ATOM     22  C   UNL     1      45.853  10.474  84.441  0.00  0.00    -0.064 C 
ATOM     23  N   UNL     1      46.728   9.766  83.406  0.00  0.00    +0.379 N 
ATOM     24  C   UNL     1      47.702   8.905  84.093  0.00  0.00    -0.096 C 
ATOM     25  H   UNL     1      47.299  10.548  82.854  0.00  0.00    -0.082 HD
ATOM     26  C   UNL     1      45.877   9.014  82.393  0.00  0.00    -0.064 C 
ATOM     27  C   UNL     1      44.874   9.973  81.693  0.00  0.00    +0.066 C 
ENDBRANCH  19  20
ENDBRANCH  18  19
ENDBRANCH  14  15
ENDBRANCH  12  13
TORSDOF 6
ENDMDL
