MODEL 1
REMARK VINA RESULT:      -8.1      0.000      0.000
REMARK  Name = C:\Users\Docking\Desktop\test protocol\1iep_ligandH.pdb
REMARK  8 active torsions:
REMARK  status: ('A' for Active; 'I' for Inactive)
REMARK    1  A    between atoms: _5  and  _11
REMARK    2  A    between atoms: _19  and  _21
REMARK    3  A    between atoms: _22  and  _66
REMARK    4  A    between atoms: _27  and  _30
REMARK    5  A    between atoms: _32  and  _33
REMARK    6  A    between atoms: _38  and  _43
REMARK    7  A    between atoms: _43  and  _46
REMARK    8  A    between atoms: _53  and  _55
REMARK                            x       y       z     vdW  Elec       q    Type
REMARK                         _______ _______ _______ _____ _____    ______ ____
ROOT
ATOM     10  C   UNL     1      50.358   7.680  82.256  0.00  0.00    +0.038 A 
ATOM     11  C   UNL     1      49.237   8.316  82.847  0.00  0.00    +0.047 A 
ATOM     12  C   UNL     1      47.896   7.772  82.695  0.00  0.00    +0.035 A 
ATOM     32  C   UNL     1      47.735   6.576  81.936  0.00  0.00    +0.024 A 
ATOM     33  C   UNL     1      48.864   5.917  81.328  0.00  0.00    +0.007 A 
ATOM     34  C   UNL     1      50.188   6.451  81.473  0.00  0.00    -0.029 A 
ATOM     35  C   UNL     1      51.360   5.706  80.793  0.00  0.00    +0.045 C 
ENDROOT
BRANCH  10   9
ATOM      4  C   UNL     1      53.495  11.278  81.751  0.00  0.00    +0.077 A 
ATOM      5  C   UNL     1      52.542  12.088  81.048  0.00  0.00    +0.048 A 
ATOM      6  C   UNL     1      51.258  11.539  80.831  0.00  0.00    +0.116 A 
ATOM      7  N   UNL     1      50.960  10.274  81.288  0.00  0.00    -0.223 NA
ATOM      8  C   UNL     1      51.903   9.518  81.960  0.00  0.00    +0.220 A 
ATOM      9  N   UNL     1      51.623   8.246  82.435  0.00  0.00    -0.283 N 
ATOM     36  H   UNL     1      52.348   7.717  82.919  0.00  0.00    +0.155 HD
ATOM     37  N   UNL     1      53.137  10.019  82.178  0.00  0.00    -0.214 NA
BRANCH   4   3
ATOM      1  C   UNL     1      56.742  13.433  82.079  0.00  0.00    +0.020 A 
ATOM      2  C   UNL     1      55.384  13.058  81.760  0.00  0.00    +0.013 A 
ATOM      3  C   UNL     1      54.892  11.719  82.060  0.00  0.00    +0.019 A 
ATOM     38  C   UNL     1      55.806  10.777  82.688  0.00  0.00    +0.120 A 
ATOM     39  N   UNL     1      57.109  11.167  82.983  0.00  0.00    -0.263 NA
ATOM     40  C   UNL     1      57.594  12.452  82.698  0.00  0.00    +0.111 A 
ENDBRANCH   4   3
ENDBRANCH  10   9
BRANCH  12  13
ATOM     13  N   UNL     1      46.719   8.379  83.265  0.00  0.00    -0.281 N 
ATOM     14  C   UNL     1      46.557   8.886  84.544  0.00  0.00    +0.248 C 
ATOM     30  O   UNL     1      47.338   8.700  85.466  0.00  0.00    -0.270 OA
ATOM     31  H   UNL     1      45.907   8.442  82.652  0.00  0.00    +0.155 HD
BRANCH  14  15
ATOM     15  C   UNL     1      45.344   9.705  84.848  0.00  0.00    +0.037 A 
ATOM     16  C   UNL     1      44.460   9.369  85.966  0.00  0.00    +0.013 A 
ATOM     17  C   UNL     1      43.287  10.166  86.226  0.00  0.00    +0.005 A 
ATOM     18  C   UNL     1      42.994  11.310  85.366  0.00  0.00    -0.033 A 
ATOM     28  C   UNL     1      43.891  11.624  84.266  0.00  0.00    +0.005 A 
ATOM     29  C   UNL     1      45.040  10.844  84.008  0.00  0.00    +0.013 A 
BRANCH  18  19
ATOM     19  C   UNL     1      41.753  12.203  85.556  0.00  0.00    +0.119 C 
BRANCH  19  20
ATOM     20  N   UNL     1      40.525  11.840  84.788  0.00  0.00    -0.302 NA
ATOM     21  C   UNL     1      40.507  10.360  84.399  0.00  0.00    +0.066 C 
ATOM     22  C   UNL     1      39.204   9.993  83.616  0.00  0.00    -0.064 C 
ATOM     23  N   UNL     1      39.092  10.880  82.375  0.00  0.00    +0.379 N 
ATOM     24  C   UNL     1      37.899  10.498  81.606  0.00  0.00    -0.096 C 
ATOM     25  H   UNL     1      39.984  10.682  81.737  0.00  0.00    -0.082 HD
ATOM     26  C   UNL     1      39.112  12.354  82.753  0.00  0.00    -0.064 C 
ATOM     27  C   UNL     1      40.396  12.702  83.556  0.00  0.00    +0.066 C 
ENDBRANCH  19  20
ENDBRANCH  18  19
ENDBRANCH  14  15
ENDBRANCH  12  13
TORSDOF 6
ENDMDL
MODEL 2
REMARK VINA RESULT:      -8.0     18.421     23.133
REMARK  Name = C:\Users\Docking\Desktop\test protocol\1iep_ligandH.pdb
REMARK  8 active torsions:
REMARK  status: ('A' for Active; 'I' for Inactive)
REMARK    1  A    between atoms: _5  and  _11
REMARK    2  A    between atoms: _19  and  _21
REMARK    3  A    between atoms: _22  and  _66
REMARK    4  A    between atoms: _27  and  _30
REMARK    5  A    between atoms: _32  and  _33
REMARK    6  A    between atoms: _38  and  _43
REMARK    7  A    between atoms: _43  and  _46
REMARK    8  A    between atoms: _53  and  _55
REMARK                            x       y       z     vdW  Elec       q    Type
REMARK                         _______ _______ _______ _____ _____    ______ ____
ROOT
ATOM     10  C   UNL     1      68.553  22.752  87.156  0.00  0.00    +0.038 A 
ATOM     11  C   UNL     1      67.308  23.095  87.742  0.00  0.00    +0.047 A 
ATOM     12  C   UNL     1      66.547  24.244  87.276  0.00  0.00    +0.035 A 
ATOM     32  C   UNL     1      67.083  25.020  86.207  0.00  0.00    +0.024 A 
ATOM     33  C   UNL     1      68.348  24.686  85.600  0.00  0.00    +0.007 A 
ATOM     34  C   UNL     1      69.104  23.556  86.058  0.00  0.00    -0.029 A 
ATOM     35  C   UNL     1      70.456  23.248  85.374  0.00  0.00    +0.045 C 
ENDROOT
BRANCH  10   9
ATOM      4  C   UNL     1      71.129  20.512  90.529  0.00  0.00    +0.077 A 
ATOM      5  C   UNL     1      71.127  21.666  91.381  0.00  0.00    +0.048 A 
ATOM      6  C   UNL     1      70.458  22.818  90.911  0.00  0.00    +0.116 A 
ATOM      7  N   UNL     1      69.840  22.806  89.680  0.00  0.00    -0.223 NA
ATOM      8  C   UNL     1      69.862  21.676  88.882  0.00  0.00    +0.220 A 
ATOM      9  N   UNL     1      69.241  21.639  87.643  0.00  0.00    -0.283 N 
ATOM     36  H   UNL     1      69.287  20.789  87.082  0.00  0.00    +0.155 HD
ATOM     37  N   UNL     1      70.496  20.564  89.308  0.00  0.00    -0.214 NA
BRANCH   4   3
ATOM      1  C   UNL     1      72.144  17.230  92.401  0.00  0.00    +0.020 A 
ATOM      2  C   UNL     1      71.476  18.476  92.102  0.00  0.00    +0.013 A 
ATOM      3  C   UNL     1      71.791  19.218  90.887  0.00  0.00    +0.019 A 
ATOM     38  C   UNL     1      72.794  18.667  89.989  0.00  0.00    +0.120 A 
ATOM     39  N   UNL     1      73.422  17.466  90.303  0.00  0.00    -0.263 NA
ATOM     40  C   UNL     1      73.129  16.744  91.470  0.00  0.00    +0.111 A 
ENDBRANCH   4   3
ENDBRANCH  10   9
BRANCH  12  13
ATOM     13  N   UNL     1      65.282  24.646  87.838  0.00  0.00    -0.281 N 
ATOM     14  C   UNL     1      64.017  24.201  87.492  0.00  0.00    +0.248 C 
ATOM     30  O   UNL     1      63.764  23.543  86.493  0.00  0.00    -0.270 OA
ATOM     31  H   UNL     1      65.324  25.343  88.582  0.00  0.00    +0.155 HD
BRANCH  14  15
ATOM     15  C   UNL     1      62.862  24.549  88.375  0.00  0.00    +0.037 A 
ATOM     16  C   UNL     1      62.297  25.901  88.389  0.00  0.00    +0.013 A 
ATOM     17  C   UNL     1      61.194  26.215  89.263  0.00  0.00    +0.005 A 
ATOM     18  C   UNL     1      60.648  25.173  90.129  0.00  0.00    -0.033 A 
ATOM     28  C   UNL     1      61.224  23.839  90.091  0.00  0.00    +0.005 A 
ATOM     29  C   UNL     1      62.306  23.528  89.237  0.00  0.00    +0.013 A 
BRANCH  18  19
ATOM     19  C   UNL     1      59.486  25.423  91.109  0.00  0.00    +0.119 C 
BRANCH  19  20
ATOM     20  N   UNL     1      58.665  24.243  91.512  0.00  0.00    -0.302 NA
ATOM     21  C   UNL     1      57.394  24.113  90.668  0.00  0.00    +0.066 C 
ATOM     22  C   UNL     1      56.558  22.860  91.088  0.00  0.00    -0.064 C 
ATOM     23  N   UNL     1      56.213  22.956  92.575  0.00  0.00    +0.379 N 
ATOM     24  C   UNL     1      55.378  21.808  92.960  0.00  0.00    -0.096 C 
ATOM     25  H   UNL     1      55.608  23.880  92.723  0.00  0.00    -0.082 HD
ATOM     26  C   UNL     1      57.471  23.088  93.421  0.00  0.00    -0.064 C 
ATOM     27  C   UNL     1      58.310  24.319  92.976  0.00  0.00    +0.066 C 
ENDBRANCH  19  20
ENDBRANCH  18  19
ENDBRANCH  14  15
ENDBRANCH  12  13
TORSDOF 6
ENDMDL
MODEL 3
REMARK VINA RESULT:      -8.0      9.569     15.288
REMARK  Name = C:\Users\Docking\Desktop\test protocol\1iep_ligandH.pdb
REMARK  8 active torsions:
REMARK  status: ('A' for Active; 'I' for Inactive)
REMARK    1  A    between atoms: _5  and  _11
REMARK    2  A    between atoms: _19  and  _21
REMARK    3  A    between atoms: _22  and  _66
REMARK    4  A    between atoms: _27  and  _30
REMARK    5  A    between atoms: _32  and  _33
REMARK    6  A    between atoms: _38  and  _43
REMARK    7  A    between atoms: _43  and  _46
REMARK    8  A    between atoms: _53  and  _55
REMARK                            x       y       z     vdW  Elec       q    Type
REMARK                         _______ _______ _______ _____ _____    ______ ____
ROOT
ATOM     10  C   UNL     1      64.852   8.761  77.851  0.00  0.00    +0.038 A 
ATOM     11  C   UNL     1      63.542   8.814  78.391  0.00  0.00    +0.047 A 
ATOM     12  C   UNL     1      62.980  10.062  78.883  0.00  0.00    +0.035 A 
ATOM     32  C   UNL     1      63.781  11.239  78.809  0.00  0.00    +0.024 A 
ATOM     33  C   UNL     1      65.116  11.203  78.265  0.00  0.00    +0.007 A 
ATOM     34  C   UNL     1      65.676   9.974  77.779  0.00  0.00    -0.029 A 
ATOM     35  C   UNL     1      67.114   9.994  77.212  0.00  0.00    +0.045 C 
ENDROOT
BRANCH  10   9
ATOM      4  C   UNL     1      67.167   4.610  78.519  0.00  0.00    +0.077 A 
ATOM      5  C   UNL     1      67.450   4.920  79.890  0.00  0.00    +0.048 A 
ATOM      6  C   UNL     1      66.989   6.161  80.383  0.00  0.00    +0.116 A 
ATOM      7  N   UNL     1      66.297   7.020  79.557  0.00  0.00    -0.223 NA
ATOM      8  C   UNL     1      66.042   6.691  78.239  0.00  0.00    +0.220 A 
ATOM      9  N   UNL     1      65.341   7.536  77.392  0.00  0.00    -0.283 N 
ATOM     36  H   UNL     1      65.181   7.260  76.424  0.00  0.00    +0.155 HD
ATOM     37  N   UNL     1      66.474   5.512  77.743  0.00  0.00    -0.214 NA
BRANCH   4   3
ATOM      1  C   UNL     1      67.231   0.918  77.228  0.00  0.00    +0.020 A 
ATOM      2  C   UNL     1      66.781   2.121  77.888  0.00  0.00    +0.013 A 
ATOM      3  C   UNL     1      67.586   3.336  77.852  0.00  0.00    +0.019 A 
ATOM     38  C   UNL     1      68.851   3.299  77.134  0.00  0.00    +0.120 A 
ATOM     39  N   UNL     1      69.259   2.125  76.509  0.00  0.00    -0.263 NA
ATOM     40  C   UNL     1      68.494   0.950  76.538  0.00  0.00    +0.111 A 
ENDBRANCH   4   3
ENDBRANCH  10   9
BRANCH  12  13
ATOM     13  N   UNL     1      61.659  10.175  79.449  0.00  0.00    -0.281 N 
ATOM     14  C   UNL     1      60.522  10.700  78.858  0.00  0.00    +0.248 C 
ATOM     30  O   UNL     1      60.518  11.352  77.824  0.00  0.00    -0.270 OA
ATOM     31  H   UNL     1      61.549   9.824  80.401  0.00  0.00    +0.155 HD
BRANCH  14  15
ATOM     15  C   UNL     1      59.199  10.483  79.519  0.00  0.00    +0.037 A 
ATOM     16  C   UNL     1      57.994  10.204  78.733  0.00  0.00    +0.013 A 
ATOM     17  C   UNL     1      56.727  10.015  79.394  0.00  0.00    +0.005 A 
ATOM     18  C   UNL     1      56.659  10.104  80.851  0.00  0.00    -0.033 A 
ATOM     28  C   UNL     1      57.871  10.377  81.606  0.00  0.00    +0.005 A 
ATOM     29  C   UNL     1      59.114  10.563  80.961  0.00  0.00    +0.013 A 
BRANCH  18  19
ATOM     19  C   UNL     1      55.346   9.937  81.638  0.00  0.00    +0.119 C 
BRANCH  19  20
ATOM     20  N   UNL     1      54.160  10.709  81.161  0.00  0.00    -0.302 NA
ATOM     21  C   UNL     1      54.297  12.207  81.446  0.00  0.00    +0.066 C 
ATOM     22  C   UNL     1      53.058  13.002  80.920  0.00  0.00    -0.064 C 
ATOM     23  N   UNL     1      51.787  12.443  81.562  0.00  0.00    +0.379 N 
ATOM     24  C   UNL     1      50.626  13.226  81.115  0.00  0.00    -0.096 C 
ATOM     25  H   UNL     1      51.880  12.575  82.665  0.00  0.00    -0.082 HD
ATOM     26  C   UNL     1      51.644  10.953  81.287  0.00  0.00    -0.064 C 
ATOM     27  C   UNL     1      52.894  10.176  81.787  0.00  0.00    +0.066 C 
ENDBRANCH  19  20
ENDBRANCH  18  19
ENDBRANCH  14  15
ENDBRANCH  12  13
TORSDOF 6
ENDMDL
MODEL 4
REMARK VINA RESULT:      -7.8     42.015     43.772
REMARK  Name = C:\Users\Docking\Desktop\test protocol\1iep_ligandH.pdb
REMARK  8 active torsions:
REMARK  status: ('A' for Active; 'I' for Inactive)
REMARK    1  A    between atoms: _5  and  _11
REMARK    2  A    between atoms: _19  and  _21
REMARK    3  A    between atoms: _22  and  _66
REMARK    4  A    between atoms: _27  and  _30
REMARK    5  A    between atoms: _32  and  _33
REMARK    6  A    between atoms: _38  and  _43
REMARK    7  A    between atoms: _43  and  _46
REMARK    8  A    between atoms: _53  and  _55
REMARK                            x       y       z     vdW  Elec       q    Type
REMARK                         _______ _______ _______ _____ _____    ______ ____
ROOT
ATOM     10  C   UNL     1      87.803   1.758  96.151  0.00  0.00    +0.038 A 
ATOM     11  C   UNL     1      87.423   2.962  96.798  0.00  0.00    +0.047 A 
ATOM     12  C   UNL     1      87.970   4.244  96.383  0.00  0.00    +0.035 A 
ATOM     32  C   UNL     1      88.900   4.264  95.303  0.00  0.00    +0.024 A 
ATOM     33  C   UNL     1      89.298   3.050  94.635  0.00  0.00    +0.007 A 
ATOM     34  C   UNL     1      88.764   1.782  95.042  0.00  0.00    -0.029 A 
ATOM     35  C   UNL     1      89.231   0.511  94.294  0.00  0.00    +0.045 C 
ENDROOT
BRANCH  10   9
ATOM      4  C   UNL     1      87.600  -1.949  99.194  0.00  0.00    +0.077 A 
ATOM      5  C   UNL     1      88.713  -1.460  99.956  0.00  0.00    +0.048 A 
ATOM      6  C   UNL     1      89.314  -0.256  99.528  0.00  0.00    +0.116 A 
ATOM      7  N   UNL     1      88.830   0.403  98.419  0.00  0.00    -0.223 NA
ATOM      8  C   UNL     1      87.756  -0.096  97.705  0.00  0.00    +0.220 A 
ATOM      9  N   UNL     1      87.247   0.555  96.591  0.00  0.00    -0.283 N 
ATOM     36  H   UNL     1      86.458   0.150  96.088  0.00  0.00    +0.155 HD
ATOM     37  N   UNL     1      87.165  -1.245  98.093  0.00  0.00    -0.214 NA
BRANCH   4   3
ATOM      1  C   UNL     1      84.738  -4.497  99.978  0.00  0.00    +0.020 A 
ATOM      2  C   UNL     1      85.407  -3.257  99.660  0.00  0.00    +0.013 A 
ATOM      3  C   UNL     1      86.857  -3.206  99.523  0.00  0.00    +0.019 A 
ATOM     38  C   UNL     1      87.607  -4.438  99.715  0.00  0.00    +0.120 A 
ATOM     39  N   UNL     1      86.936  -5.618 100.022  0.00  0.00    -0.263 NA
ATOM     40  C   UNL     1      85.541  -5.678 100.158  0.00  0.00    +0.111 A 
ENDBRANCH   4   3
ENDBRANCH  10   9
BRANCH  12  13
ATOM     13  N   UNL     1      87.627   5.498  97.007  0.00  0.00    -0.281 N 
ATOM     14  C   UNL     1      88.485   6.448  97.537  0.00  0.00    +0.248 C 
ATOM     30  O   UNL     1      89.675   6.264  97.748  0.00  0.00    -0.270 OA
ATOM     31  H   UNL     1      86.631   5.711  97.065  0.00  0.00    +0.155 HD
BRANCH  14  15
ATOM     15  C   UNL     1      87.940   7.791  97.899  0.00  0.00    +0.037 A 
ATOM     16  C   UNL     1      86.880   7.937  98.900  0.00  0.00    +0.013 A 
ATOM     17  C   UNL     1      86.360   9.243  99.218  0.00  0.00    +0.005 A 
ATOM     18  C   UNL     1      86.901  10.415  98.535  0.00  0.00    -0.033 A 
ATOM     28  C   UNL     1      87.956  10.243  97.549  0.00  0.00    +0.005 A 
ATOM     29  C   UNL     1      88.467   8.964  97.234  0.00  0.00    +0.013 A 
BRANCH  18  19
ATOM     19  C   UNL     1      86.392  11.845  98.796  0.00  0.00    +0.119 C 
BRANCH  19  20
ATOM     20  N   UNL     1      86.115  12.224 100.213  0.00  0.00    -0.302 NA
ATOM     21  C   UNL     1      85.326  13.533 100.315  0.00  0.00    +0.066 C 
ATOM     22  C   UNL     1      85.026  13.902 101.804  0.00  0.00    -0.064 C 
ATOM     23  N   UNL     1      86.342  14.002 102.577  0.00  0.00    +0.379 N 
ATOM     24  C   UNL     1      86.067  14.406 103.964  0.00  0.00    -0.096 C 
ATOM     25  H   UNL     1      86.951  14.807 102.104  0.00  0.00    -0.082 HD
ATOM     26  C   UNL     1      87.134  12.706 102.479  0.00  0.00    -0.064 C 
ATOM     27  C   UNL     1      87.402  12.332 100.994  0.00  0.00    +0.066 C 
ENDBRANCH  19  20
ENDBRANCH  18  19
ENDBRANCH  14  15
ENDBRANCH  12  13
TORSDOF 6
ENDMDL
MODEL 5
REMARK VINA RESULT:      -7.8     11.543     18.741
REMARK  Name = C:\Users\Docking\Desktop\test protocol\1iep_ligandH.pdb
REMARK  8 active torsions:
REMARK  status: ('A' for Active; 'I' for Inactive)
REMARK    1  A    between atoms: _5  and  _11
REMARK    2  A    between atoms: _19  and  _21
REMARK    3  A    between atoms: _22  and  _66
REMARK    4  A    between atoms: _27  and  _30
REMARK    5  A    between atoms: _32  and  _33
REMARK    6  A    between atoms: _38  and  _43
REMARK    7  A    between atoms: _43  and  _46
REMARK    8  A    between atoms: _53  and  _55
REMARK                            x       y       z     vdW  Elec       q    Type
REMARK                         _______ _______ _______ _____ _____    ______ ____
ROOT
ATOM     10  C   UNL     1      49.269  -1.197  82.365  0.00  0.00    +0.038 A 
ATOM     11  C   UNL     1      50.434  -1.959  82.097  0.00  0.00    +0.047 A 
ATOM     12  C   UNL     1      51.424  -1.508  81.131  0.00  0.00    +0.035 A 
ATOM     32  C   UNL     1      51.195  -0.272  80.458  0.00  0.00    +0.024 A 
ATOM     33  C   UNL     1      50.015   0.515  80.716  0.00  0.00    +0.007 A 
ATOM     34  C   UNL     1      49.035   0.073  81.666  0.00  0.00    -0.029 A 
ATOM     35  C   UNL     1      47.785   0.954  81.899  0.00  0.00    +0.045 C 
ENDROOT
BRANCH  10   9
ATOM      4  C   UNL     1      45.507  -3.910  83.599  0.00  0.00    +0.077 A 
ATOM      5  C   UNL     1      45.337  -4.389  82.257  0.00  0.00    +0.048 A 
ATOM      6  C   UNL     1      46.234  -3.908  81.278  0.00  0.00    +0.116 A 
ATOM      7  N   UNL     1      47.224  -3.014  81.626  0.00  0.00    -0.223 NA
ATOM      8  C   UNL     1      47.359  -2.571  82.928  0.00  0.00    +0.220 A 
ATOM      9  N   UNL     1      48.352  -1.678  83.302  0.00  0.00    -0.283 N 
ATOM     36  H   UNL     1      48.414  -1.370  84.272  0.00  0.00    +0.155 HD
ATOM     37  N   UNL     1      46.514  -3.015  83.882  0.00  0.00    -0.214 NA
BRANCH   4   3
ATOM      1  C   UNL     1      43.170  -3.834  86.735  0.00  0.00    +0.020 A 
ATOM      2  C   UNL     1      43.998  -3.377  85.642  0.00  0.00    +0.013 A 
ATOM      3  C   UNL     1      44.640  -4.329  84.745  0.00  0.00    +0.019 A 
ATOM     38  C   UNL     1      44.422  -5.749  84.982  0.00  0.00    +0.120 A 
ATOM     39  N   UNL     1      43.621  -6.159  86.043  0.00  0.00    -0.263 NA
ATOM     40  C   UNL     1      42.999  -5.252  86.914  0.00  0.00    +0.111 A 
ENDBRANCH   4   3
ENDBRANCH  10   9
BRANCH  12  13
ATOM     13  N   UNL     1      52.623  -2.243  80.813  0.00  0.00    -0.281 N 
ATOM     14  C   UNL     1      52.786  -3.233  79.858  0.00  0.00    +0.248 C 
ATOM     30  O   UNL     1      51.867  -3.789  79.274  0.00  0.00    -0.270 OA
ATOM     31  H   UNL     1      53.451  -2.005  81.358  0.00  0.00    +0.155 HD
BRANCH  14  15
ATOM     15  C   UNL     1      54.169  -3.680  79.510  0.00  0.00    +0.037 A 
ATOM     16  C   UNL     1      54.871  -3.141  78.343  0.00  0.00    +0.013 A 
ATOM     17  C   UNL     1      56.198  -3.602  78.020  0.00  0.00    +0.005 A 
ATOM     18  C   UNL     1      56.833  -4.608  78.869  0.00  0.00    -0.033 A 
ATOM     28  C   UNL     1      56.115  -5.122  80.024  0.00  0.00    +0.005 A 
ATOM     29  C   UNL     1      54.814  -4.673  80.342  0.00  0.00    +0.013 A 
BRANCH  18  19
ATOM     19  C   UNL     1      58.238  -5.173  78.588  0.00  0.00    +0.119 C 
BRANCH  19  20
ATOM     20  N   UNL     1      59.405  -4.311  78.943  0.00  0.00    -0.302 NA
ATOM     21  C   UNL     1      58.986  -2.866  79.228  0.00  0.00    +0.066 C 
ATOM     22  C   UNL     1      60.216  -1.984  79.619  0.00  0.00    -0.064 C 
ATOM     23  N   UNL     1      61.255  -2.036  78.497  0.00  0.00    +0.379 N 
ATOM     24  C   UNL     1      62.387  -1.162  78.836  0.00  0.00    -0.096 C 
ATOM     25  H   UNL     1      60.778  -1.630  77.576  0.00  0.00    -0.082 HD
ATOM     26  C   UNL     1      61.675  -3.470  78.206  0.00  0.00    -0.064 C 
ATOM     27  C   UNL     1      60.441  -4.345  77.847  0.00  0.00    +0.066 C 
ENDBRANCH  19  20
ENDBRANCH  18  19
ENDBRANCH  14  15
ENDBRANCH  12  13
TORSDOF 6
ENDMDL
