MODEL 1
REMARK VINA RESULT:     -11.6      0.000      0.000
REMARK  Name = C:\Users\Docking\Desktop\test protocol\1iep_ligandH.pdb
REMARK  8 active torsions:
REMARK  status: ('A' for Active; 'I' for Inactive)
REMARK    1  A    between atoms: _5  and  _11
REMARK    2  A    between atoms: _19  and  _21
REMARK    3  A    between atoms: _22  and  _66
REMARK    4  A    between atoms: _27  and  _30
REMARK    5  A    between atoms: _32  and  _33
REMARK    6  A    between atoms: _38  and  _43
REMARK    7  A    between atoms: _43  and  _46
REMARK    8  A    between atoms: _53  and  _55
REMARK                            x       y       z     vdW  Elec       q    Type
REMARK                         _______ _______ _______ _____ _____    ______ ____
ROOT
ATOM     10  C   UNL     1      -6.762 -14.249  -3.920  0.00  0.00    +0.038 A 
ATOM     11  C   UNL     1      -7.584 -13.610  -4.884  0.00  0.00    +0.047 A 
ATOM     12  C   UNL     1      -8.307 -14.379  -5.885  0.00  0.00    +0.035 A 
ATOM     32  C   UNL     1      -8.172 -15.798  -5.874  0.00  0.00    +0.024 A 
ATOM     33  C   UNL     1      -7.340 -16.464  -4.902  0.00  0.00    +0.007 A 
ATOM     34  C   UNL     1      -6.623 -15.710  -3.914  0.00  0.00    -0.029 A 
ATOM     35  C   UNL     1      -5.741 -16.476  -2.901  0.00  0.00    +0.045 C 
ENDROOT
BRANCH  10   9
ATOM      4  C   UNL     1      -3.100 -11.444  -2.594  0.00  0.00    +0.077 A 
ATOM      5  C   UNL     1      -2.457 -11.580  -3.869  0.00  0.00    +0.048 A 
ATOM      6  C   UNL     1      -3.097 -12.387  -4.836  0.00  0.00    +0.116 A 
ATOM      7  N   UNL     1      -4.292 -13.006  -4.540  0.00  0.00    -0.223 NA
ATOM      8  C   UNL     1      -4.885 -12.855  -3.300  0.00  0.00    +0.220 A 
ATOM      9  N   UNL     1      -6.091 -13.461  -2.982  0.00  0.00    -0.283 N 
ATOM     36  H   UNL     1      -6.492 -13.331  -2.054  0.00  0.00    +0.155 HD
ATOM     37  N   UNL     1      -4.293 -12.091  -2.358  0.00  0.00    -0.214 NA
BRANCH   4   3
ATOM      1  C   UNL     1      -0.807 -10.114   0.283  0.00  0.00    +0.020 A 
ATOM      2  C   UNL     1      -1.296 -10.940  -0.797  0.00  0.00    +0.013 A 
ATOM      3  C   UNL     1      -2.549 -10.623  -1.470  0.00  0.00    +0.019 A 
ATOM     38  C   UNL     1      -3.289  -9.452  -1.023  0.00  0.00    +0.120 A 
ATOM     39  N   UNL     1      -2.795  -8.676   0.021  0.00  0.00    -0.263 NA
ATOM     40  C   UNL     1      -1.591  -8.973   0.677  0.00  0.00    +0.111 A 
ENDBRANCH   4   3
ENDBRANCH  10   9
BRANCH  12  13
ATOM     13  N   UNL     1      -9.149 -13.785  -6.893  0.00  0.00    -0.281 N 
ATOM     14  C   UNL     1     -10.516 -13.568  -6.841  0.00  0.00    +0.248 C 
ATOM     30  O   UNL     1     -11.261 -14.048  -5.999  0.00  0.00    -0.270 OA
ATOM     31  H   UNL     1      -8.681 -13.489  -7.750  0.00  0.00    +0.155 HD
BRANCH  14  15
ATOM     15  C   UNL     1     -11.150 -12.703  -7.882  0.00  0.00    +0.037 A 
ATOM     16  C   UNL     1     -12.578 -12.377  -7.833  0.00  0.00    +0.013 A 
ATOM     17  C   UNL     1     -13.168 -11.555  -8.859  0.00  0.00    +0.005 A 
ATOM     18  C   UNL     1     -12.329 -11.051  -9.943  0.00  0.00    -0.033 A 
ATOM     28  C   UNL     1     -10.914 -11.385  -9.965  0.00  0.00    +0.005 A 
ATOM     29  C   UNL     1     -10.333 -12.192  -8.961  0.00  0.00    +0.013 A 
BRANCH  18  19
ATOM     19  C   UNL     1     -12.877 -10.184 -11.092  0.00  0.00    +0.119 C 
BRANCH  19  20
ATOM     20  N   UNL     1     -12.853 -10.772 -12.464  0.00  0.00    -0.302 NA
ATOM     21  C   UNL     1     -13.343 -12.223 -12.476  0.00  0.00    +0.066 C 
ATOM     22  C   UNL     1     -13.332 -12.815 -13.923  0.00  0.00    -0.064 C 
ATOM     23  N   UNL     1     -11.919 -12.716 -14.501  0.00  0.00    +0.379 N 
ATOM     24  C   UNL     1     -11.893 -13.325 -15.839  0.00  0.00    -0.096 C 
ATOM     25  H   UNL     1     -11.243 -13.312 -13.845  0.00  0.00    -0.082 HD
ATOM     26  C   UNL     1     -11.423 -11.277 -14.491  0.00  0.00    -0.064 C 
ATOM     27  C   UNL     1     -11.466 -10.689 -13.053  0.00  0.00    +0.066 C 
ENDBRANCH  19  20
ENDBRANCH  18  19
ENDBRANCH  14  15
ENDBRANCH  12  13
TORSDOF 6
ENDMDL
MODEL 2
REMARK VINA RESULT:     -11.4      1.139      1.684
REMARK  Name = C:\Users\Docking\Desktop\test protocol\1iep_ligandH.pdb
REMARK  8 active torsions:
REMARK  status: ('A' for Active; 'I' for Inactive)
REMARK    1  A    between atoms: _5  and  _11
REMARK    2  A    between atoms: _19  and  _21
REMARK    3  A    between atoms: _22  and  _66
REMARK    4  A    between atoms: _27  and  _30
REMARK    5  A    between atoms: _32  and  _33
REMARK    6  A    between atoms: _38  and  _43
REMARK    7  A    between atoms: _43  and  _46
REMARK    8  A    between atoms: _53  and  _55
REMARK                            x       y       z     vdW  Elec       q    Type
REMARK                         _______ _______ _______ _____ _____    ______ ____
ROOT
ATOM     10  C   UNL     1      -6.722 -14.284  -3.712  0.00  0.00    +0.038 A 
ATOM     11  C   UNL     1      -7.554 -13.684  -4.692  0.00  0.00    +0.047 A 
ATOM     12  C   UNL     1      -8.302 -14.493  -5.642  0.00  0.00    +0.035 A 
ATOM     32  C   UNL     1      -8.180 -15.911  -5.564  0.00  0.00    +0.024 A 
ATOM     33  C   UNL     1      -7.339 -16.537  -4.575  0.00  0.00    +0.007 A 
ATOM     34  C   UNL     1      -6.597 -15.744  -3.637  0.00  0.00    -0.029 A 
ATOM     35  C   UNL     1      -5.705 -16.469  -2.602  0.00  0.00    +0.045 C 
ENDROOT
BRANCH  10   9
ATOM      4  C   UNL     1      -3.069 -11.368  -2.622  0.00  0.00    +0.077 A 
ATOM      5  C   UNL     1      -2.480 -11.523  -3.921  0.00  0.00    +0.048 A 
ATOM      6  C   UNL     1      -3.145 -12.367  -4.838  0.00  0.00    +0.116 A 
ATOM      7  N   UNL     1      -4.311 -13.004  -4.473  0.00  0.00    -0.223 NA
ATOM      8  C   UNL     1      -4.851 -12.834  -3.211  0.00  0.00    +0.220 A 
ATOM      9  N   UNL     1      -6.028 -13.459  -2.825  0.00  0.00    -0.283 N 
ATOM     36  H   UNL     1      -6.389 -13.314  -1.883  0.00  0.00    +0.155 HD
ATOM     37  N   UNL     1      -4.235 -12.035  -2.316  0.00  0.00    -0.214 NA
BRANCH   4   3
ATOM      1  C   UNL     1      -0.863 -10.072   0.337  0.00  0.00    +0.020 A 
ATOM      2  C   UNL     1      -1.389 -10.942  -0.689  0.00  0.00    +0.013 A 
ATOM      3  C   UNL     1      -2.486 -10.507  -1.544  0.00  0.00    +0.019 A 
ATOM     38  C   UNL     1      -3.032  -9.175  -1.334  0.00  0.00    +0.120 A 
ATOM     39  N   UNL     1      -2.506  -8.359  -0.337  0.00  0.00    -0.263 NA
ATOM     40  C   UNL     1      -1.451  -8.768   0.493  0.00  0.00    +0.111 A 
ENDBRANCH   4   3
ENDBRANCH  10   9
BRANCH  12  13
ATOM     13  N   UNL     1      -9.155 -13.940  -6.664  0.00  0.00    -0.281 N 
ATOM     14  C   UNL     1     -10.493 -13.594  -6.561  0.00  0.00    +0.248 C 
ATOM     30  O   UNL     1     -11.218 -13.908  -5.629  0.00  0.00    -0.270 OA
ATOM     31  H   UNL     1      -8.721 -13.785  -7.574  0.00  0.00    +0.155 HD
BRANCH  14  15
ATOM     15  C   UNL     1     -11.119 -12.795  -7.658  0.00  0.00    +0.037 A 
ATOM     16  C   UNL     1     -12.516 -12.360  -7.580  0.00  0.00    +0.013 A 
ATOM     17  C   UNL     1     -13.100 -11.606  -8.660  0.00  0.00    +0.005 A 
ATOM     18  C   UNL     1     -12.285 -11.280  -9.829  0.00  0.00    -0.033 A 
ATOM     28  C   UNL     1     -10.901 -11.720  -9.878  0.00  0.00    +0.005 A 
ATOM     29  C   UNL     1     -10.325 -12.460  -8.821  0.00  0.00    +0.013 A 
BRANCH  18  19
ATOM     19  C   UNL     1     -12.832 -10.497 -11.037  0.00  0.00    +0.119 C 
BRANCH  19  20
ATOM     20  N   UNL     1     -11.834  -9.871 -11.954  0.00  0.00    -0.302 NA
ATOM     21  C   UNL     1     -12.155  -8.400 -12.235  0.00  0.00    +0.066 C 
ATOM     22  C   UNL     1     -11.088  -7.755 -13.178  0.00  0.00    -0.064 C 
ATOM     23  N   UNL     1     -11.015  -8.551 -14.482  0.00  0.00    +0.379 N 
ATOM     24  C   UNL     1     -10.054  -7.913 -15.394  0.00  0.00    -0.096 C 
ATOM     25  H   UNL     1     -12.020  -8.506 -14.962  0.00  0.00    -0.082 HD
ATOM     26  C   UNL     1     -10.699 -10.016 -14.212  0.00  0.00    -0.064 C 
ATOM     27  C   UNL     1     -11.748 -10.639 -13.250  0.00  0.00    +0.066 C 
ENDBRANCH  19  20
ENDBRANCH  18  19
ENDBRANCH  14  15
ENDBRANCH  12  13
TORSDOF 6
ENDMDL
MODEL 3
REMARK VINA RESULT:     -11.2      1.775      2.513
REMARK  Name = C:\Users\Docking\Desktop\test protocol\1iep_ligandH.pdb
REMARK  8 active torsions:
REMARK  status: ('A' for Active; 'I' for Inactive)
REMARK    1  A    between atoms: _5  and  _11
REMARK    2  A    between atoms: _19  and  _21
REMARK    3  A    between atoms: _22  and  _66
REMARK    4  A    between atoms: _27  and  _30
REMARK    5  A    between atoms: _32  and  _33
REMARK    6  A    between atoms: _38  and  _43
REMARK    7  A    between atoms: _43  and  _46
REMARK    8  A    between atoms: _53  and  _55
REMARK                            x       y       z     vdW  Elec       q    Type
REMARK                         _______ _______ _______ _____ _____    ______ ____
ROOT
ATOM     10  C   UNL     1      -5.540 -14.369  -5.008  0.00  0.00    +0.038 A 
ATOM     11  C   UNL     1      -6.532 -13.801  -5.848  0.00  0.00    +0.047 A 
ATOM     12  C   UNL     1      -7.804 -14.470  -6.070  0.00  0.00    +0.035 A 
ATOM     32  C   UNL     1      -8.035 -15.716  -5.417  0.00  0.00    +0.024 A 
ATOM     33  C   UNL     1      -7.038 -16.309  -4.560  0.00  0.00    +0.007 A 
ATOM     34  C   UNL     1      -5.780 -15.654  -4.340  0.00  0.00    -0.029 A 
ATOM     35  C   UNL     1      -4.745 -16.339  -3.417  0.00  0.00    +0.045 C 
ENDROOT
BRANCH  10   9
ATOM      4  C   UNL     1      -2.782 -11.184  -2.709  0.00  0.00    +0.077 A 
ATOM      5  C   UNL     1      -3.837 -10.838  -1.800  0.00  0.00    +0.048 A 
ATOM      6  C   UNL     1      -5.076 -11.497  -1.963  0.00  0.00    +0.116 A 
ATOM      7  N   UNL     1      -5.237 -12.431  -2.963  0.00  0.00    -0.223 NA
ATOM      8  C   UNL     1      -4.200 -12.741  -3.823  0.00  0.00    +0.220 A 
ATOM      9  N   UNL     1      -4.337 -13.683  -4.831  0.00  0.00    -0.283 N 
ATOM     36  H   UNL     1      -3.550 -13.878  -5.449  0.00  0.00    +0.155 HD
ATOM     37  N   UNL     1      -3.007 -12.124  -3.690  0.00  0.00    -0.214 NA
BRANCH   4   3
ATOM      1  C   UNL     1       0.976 -10.387  -3.447  0.00  0.00    +0.020 A 
ATOM      2  C   UNL     1      -0.327 -11.007  -3.532  0.00  0.00    +0.013 A 
ATOM      3  C   UNL     1      -1.414 -10.577  -2.662  0.00  0.00    +0.019 A 
ATOM     38  C   UNL     1      -1.150  -9.508  -1.711  0.00  0.00    +0.120 A 
ATOM     39  N   UNL     1       0.115  -8.931  -1.651  0.00  0.00    -0.263 NA
ATOM     40  C   UNL     1       1.170  -9.338  -2.482  0.00  0.00    +0.111 A 
ENDBRANCH   4   3
ENDBRANCH  10   9
BRANCH  12  13
ATOM     13  N   UNL     1      -8.845 -13.946  -6.919  0.00  0.00    -0.281 N 
ATOM     14  C   UNL     1     -10.147 -13.626  -6.571  0.00  0.00    +0.248 C 
ATOM     30  O   UNL     1     -10.679 -13.945  -5.518  0.00  0.00    -0.270 OA
ATOM     31  H   UNL     1      -8.591 -13.792  -7.894  0.00  0.00    +0.155 HD
BRANCH  14  15
ATOM     15  C   UNL     1     -10.984 -12.852  -7.538  0.00  0.00    +0.037 A 
ATOM     16  C   UNL     1     -12.372 -12.500  -7.229  0.00  0.00    +0.013 A 
ATOM     17  C   UNL     1     -13.162 -11.768  -8.187  0.00  0.00    +0.005 A 
ATOM     18  C   UNL     1     -12.564 -11.381  -9.463  0.00  0.00    -0.033 A 
ATOM     28  C   UNL     1     -11.183 -11.739  -9.741  0.00  0.00    +0.005 A 
ATOM     29  C   UNL     1     -10.406 -12.458  -8.805  0.00  0.00    +0.013 A 
BRANCH  18  19
ATOM     19  C   UNL     1     -13.340 -10.617 -10.553  0.00  0.00    +0.119 C 
BRANCH  19  20
ATOM     20  N   UNL     1     -12.536  -9.901 -11.588  0.00  0.00    -0.302 NA
ATOM     21  C   UNL     1     -12.276  -8.441 -11.205  0.00  0.00    +0.066 C 
ATOM     22  C   UNL     1     -11.416  -7.713 -12.288  0.00  0.00    -0.064 C 
ATOM     23  N   UNL     1     -12.124  -7.800 -13.641  0.00  0.00    +0.379 N 
ATOM     24  C   UNL     1     -11.346  -7.066 -14.650  0.00  0.00    -0.096 C 
ATOM     25  H   UNL     1     -13.111  -7.291 -13.539  0.00  0.00    -0.082 HD
ATOM     26  C   UNL     1     -12.389  -9.248 -14.029  0.00  0.00    -0.064 C 
ATOM     27  C   UNL     1     -13.220  -9.970 -12.931  0.00  0.00    +0.066 C 
ENDBRANCH  19  20
ENDBRANCH  18  19
ENDBRANCH  14  15
ENDBRANCH  12  13
TORSDOF 6
ENDMDL
MODEL 4
REMARK VINA RESULT:     -11.1      3.375     12.456
REMARK  Name = C:\Users\Docking\Desktop\test protocol\1iep_ligandH.pdb
REMARK  8 active torsions:
REMARK  status: ('A' for Active; 'I' for Inactive)
REMARK    1  A    between atoms: _5  and  _11
REMARK    2  A    between atoms: _19  and  _21
REMARK    3  A    between atoms: _22  and  _66
REMARK    4  A    between atoms: _27  and  _30
REMARK    5  A    between atoms: _32  and  _33
REMARK    6  A    between atoms: _38  and  _43
REMARK    7  A    between atoms: _43  and  _46
REMARK    8  A    between atoms: _53  and  _55
REMARK                            x       y       z     vdW  Elec       q    Type
REMARK                         _______ _______ _______ _____ _____    ______ ____
ROOT
ATOM     10  C   UNL     1     -11.378  -8.308 -11.188  0.00  0.00    +0.038 A 
ATOM     11  C   UNL     1     -10.831  -9.397 -10.463  0.00  0.00    +0.047 A 
ATOM     12  C   UNL     1     -11.472  -9.895  -9.256  0.00  0.00    +0.035 A 
ATOM     32  C   UNL     1     -12.671  -9.261  -8.817  0.00  0.00    +0.024 A 
ATOM     33  C   UNL     1     -13.241  -8.153  -9.542  0.00  0.00    +0.007 A 
ATOM     34  C   UNL     1     -12.611  -7.655 -10.732  0.00  0.00    -0.029 A 
ATOM     35  C   UNL     1     -13.263  -6.460 -11.465  0.00  0.00    +0.045 C 
ENDROOT
BRANCH  10   9
ATOM      4  C   UNL     1     -10.823  -8.181 -15.954  0.00  0.00    +0.077 A 
ATOM      5  C   UNL     1     -11.918  -9.084 -16.165  0.00  0.00    +0.048 A 
ATOM      6  C   UNL     1     -12.593  -9.564 -15.020  0.00  0.00    +0.116 A 
ATOM      7  N   UNL     1     -12.195  -9.163 -13.763  0.00  0.00    -0.223 NA
ATOM      8  C   UNL     1     -11.134  -8.293 -13.595  0.00  0.00    +0.220 A 
ATOM      9  N   UNL     1     -10.721  -7.870 -12.340  0.00  0.00    -0.283 N 
ATOM     36  H   UNL     1      -9.929  -7.233 -12.258  0.00  0.00    +0.155 HD
ATOM     37  N   UNL     1     -10.472  -7.822 -14.672  0.00  0.00    -0.214 NA
BRANCH   4   3
ATOM      1  C   UNL     1      -7.921  -6.516 -17.979  0.00  0.00    +0.020 A 
ATOM      2  C   UNL     1      -8.660  -7.081 -16.874  0.00  0.00    +0.013 A 
ATOM      3  C   UNL     1     -10.014  -7.586 -17.064  0.00  0.00    +0.019 A 
ATOM     38  C   UNL     1     -10.595  -7.504 -18.395  0.00  0.00    +0.120 A 
ATOM     39  N   UNL     1      -9.860  -6.954 -19.440  0.00  0.00    -0.263 NA
ATOM     40  C   UNL     1      -8.557  -6.463 -19.269  0.00  0.00    +0.111 A 
ENDBRANCH   4   3
ENDBRANCH  10   9
BRANCH  12  13
ATOM     13  N   UNL     1     -10.958 -10.992  -8.473  0.00  0.00    -0.281 N 
ATOM     14  C   UNL     1     -11.216 -12.344  -8.630  0.00  0.00    +0.248 C 
ATOM     30  O   UNL     1     -12.101 -12.801  -9.338  0.00  0.00    -0.270 OA
ATOM     31  H   UNL     1     -10.328 -10.741  -7.712  0.00  0.00    +0.155 HD
BRANCH  14  15
ATOM     15  C   UNL     1     -10.379 -13.330  -7.881  0.00  0.00    +0.037 A 
ATOM     16  C   UNL     1     -10.572 -13.556  -6.447  0.00  0.00    +0.013 A 
ATOM     17  C   UNL     1      -9.739 -14.501  -5.745  0.00  0.00    +0.005 A 
ATOM     18  C   UNL     1      -8.707 -15.228  -6.479  0.00  0.00    -0.033 A 
ATOM     28  C   UNL     1      -8.541 -14.988  -7.903  0.00  0.00    +0.005 A 
ATOM     29  C   UNL     1      -9.354 -14.062  -8.594  0.00  0.00    +0.013 A 
BRANCH  18  19
ATOM     19  C   UNL     1      -7.759 -16.239  -5.807  0.00  0.00    +0.119 C 
BRANCH  19  20
ATOM     20  N   UNL     1      -6.564 -15.691  -5.099  0.00  0.00    -0.302 NA
ATOM     21  C   UNL     1      -6.809 -15.535  -3.595  0.00  0.00    +0.066 C 
ATOM     22  C   UNL     1      -5.542 -14.981  -2.867  0.00  0.00    -0.064 C 
ATOM     23  N   UNL     1      -5.141 -13.643  -3.492  0.00  0.00    +0.379 N 
ATOM     24  C   UNL     1      -3.985 -13.092  -2.771  0.00  0.00    -0.096 C 
ATOM     25  H   UNL     1      -5.994 -12.938  -3.355  0.00  0.00    -0.082 HD
ATOM     26  C   UNL     1      -4.898 -13.789  -4.987  0.00  0.00    -0.064 C 
ATOM     27  C   UNL     1      -6.154 -14.368  -5.697  0.00  0.00    +0.066 C 
ENDBRANCH  19  20
ENDBRANCH  18  19
ENDBRANCH  14  15
ENDBRANCH  12  13
TORSDOF 6
ENDMDL
MODEL 5
REMARK VINA RESULT:     -11.1      1.734      2.619
REMARK  Name = C:\Users\Docking\Desktop\test protocol\1iep_ligandH.pdb
REMARK  8 active torsions:
REMARK  status: ('A' for Active; 'I' for Inactive)
REMARK    1  A    between atoms: _5  and  _11
REMARK    2  A    between atoms: _19  and  _21
REMARK    3  A    between atoms: _22  and  _66
REMARK    4  A    between atoms: _27  and  _30
REMARK    5  A    between atoms: _32  and  _33
REMARK    6  A    between atoms: _38  and  _43
REMARK    7  A    between atoms: _43  and  _46
REMARK    8  A    between atoms: _53  and  _55
REMARK                            x       y       z     vdW  Elec       q    Type
REMARK                         _______ _______ _______ _____ _____    ______ ____
ROOT
ATOM     10  C   UNL     1      -6.531 -14.319  -3.700  0.00  0.00    +0.038 A 
ATOM     11  C   UNL     1      -7.378 -13.708  -4.659  0.00  0.00    +0.047 A 
ATOM     12  C   UNL     1      -8.139 -14.506  -5.608  0.00  0.00    +0.035 A 
ATOM     32  C   UNL     1      -8.016 -15.924  -5.550  0.00  0.00    +0.024 A 
ATOM     33  C   UNL     1      -7.159 -16.563  -4.581  0.00  0.00    +0.007 A 
ATOM     34  C   UNL     1      -6.404 -15.781  -3.645  0.00  0.00    -0.029 A 
ATOM     35  C   UNL     1      -5.496 -16.518  -2.633  0.00  0.00    +0.045 C 
ENDROOT
BRANCH  10   9
ATOM      4  C   UNL     1      -2.843 -11.446  -2.615  0.00  0.00    +0.077 A 
ATOM      5  C   UNL     1      -2.262 -11.601  -3.918  0.00  0.00    +0.048 A 
ATOM      6  C   UNL     1      -2.940 -12.435  -4.836  0.00  0.00    +0.116 A 
ATOM      7  N   UNL     1      -4.111 -13.061  -4.467  0.00  0.00    -0.223 NA
ATOM      8  C   UNL     1      -4.643 -12.891  -3.202  0.00  0.00    +0.220 A 
ATOM      9  N   UNL     1      -5.823 -13.505  -2.812  0.00  0.00    -0.283 N 
ATOM     36  H   UNL     1      -6.179 -13.361  -1.868  0.00  0.00    +0.155 HD
ATOM     37  N   UNL     1      -4.014 -12.101  -2.307  0.00  0.00    -0.214 NA
BRANCH   4   3
ATOM      1  C   UNL     1      -0.292  -9.722  -0.203  0.00  0.00    +0.020 A 
ATOM      2  C   UNL     1      -0.817 -10.561  -1.255  0.00  0.00    +0.013 A 
ATOM      3  C   UNL     1      -2.246 -10.595  -1.537  0.00  0.00    +0.019 A 
ATOM     38  C   UNL     1      -3.124  -9.761  -0.731  0.00  0.00    +0.120 A 
ATOM     39  N   UNL     1      -2.590  -8.964   0.277  0.00  0.00    -0.263 NA
ATOM     40  C   UNL     1      -1.216  -8.925   0.559  0.00  0.00    +0.111 A 
ENDBRANCH   4   3
ENDBRANCH  10   9
BRANCH  12  13
ATOM     13  N   UNL     1      -9.008 -13.940  -6.610  0.00  0.00    -0.281 N 
ATOM     14  C   UNL     1     -10.375 -13.731  -6.532  0.00  0.00    +0.248 C 
ATOM     30  O   UNL     1     -11.097 -14.197  -5.663  0.00  0.00    -0.270 OA
ATOM     31  H   UNL     1      -8.561 -13.661  -7.484  0.00  0.00    +0.155 HD
BRANCH  14  15
ATOM     15  C   UNL     1     -11.039 -12.894  -7.577  0.00  0.00    +0.037 A 
ATOM     16  C   UNL     1     -10.336 -12.515  -8.806  0.00  0.00    +0.013 A 
ATOM     17  C   UNL     1     -10.994 -11.693  -9.791  0.00  0.00    +0.005 A 
ATOM     18  C   UNL     1     -12.363 -11.245  -9.551  0.00  0.00    -0.033 A 
ATOM     28  C   UNL     1     -13.038 -11.639  -8.325  0.00  0.00    +0.005 A 
ATOM     29  C   UNL     1     -12.397 -12.444  -7.357  0.00  0.00    +0.013 A 
BRANCH  18  19
ATOM     19  C   UNL     1     -13.135 -10.348 -10.537  0.00  0.00    +0.119 C 
BRANCH  19  20
ATOM     20  N   UNL     1     -12.564  -8.998 -10.823  0.00  0.00    -0.302 NA
ATOM     21  C   UNL     1     -13.577  -7.879 -10.565  0.00  0.00    +0.066 C 
ATOM     22  C   UNL     1     -12.956  -6.472 -10.848  0.00  0.00    -0.064 C 
ATOM     23  N   UNL     1     -12.450  -6.422 -12.291  0.00  0.00    +0.379 N 
ATOM     24  C   UNL     1     -11.918  -5.082 -12.578  0.00  0.00    -0.096 C 
ATOM     25  H   UNL     1     -13.325  -6.590 -12.961  0.00  0.00    -0.082 HD
ATOM     26  C   UNL     1     -11.445  -7.533 -12.557  0.00  0.00    -0.064 C 
ATOM     27  C   UNL     1     -12.062  -8.925 -12.245  0.00  0.00    +0.066 C 
ENDBRANCH  19  20
ENDBRANCH  18  19
ENDBRANCH  14  15
ENDBRANCH  12  13
TORSDOF 6
ENDMDL
