MODEL 1
REMARK VINA RESULT:     -11.1      0.000      0.000
REMARK  Name = C:\Users\Docking\Desktop\test protocol\1iep_ligandH.pdb
REMARK  8 active torsions:
REMARK  status: ('A' for Active; 'I' for Inactive)
REMARK    1  A    between atoms: _5  and  _11
REMARK    2  A    between atoms: _19  and  _21
REMARK    3  A    between atoms: _22  and  _66
REMARK    4  A    between atoms: _27  and  _30
REMARK    5  A    between atoms: _32  and  _33
REMARK    6  A    between atoms: _38  and  _43
REMARK    7  A    between atoms: _43  and  _46
REMARK    8  A    between atoms: _53  and  _55
REMARK                            x       y       z     vdW  Elec       q    Type
REMARK                         _______ _______ _______ _____ _____    ______ ____
ROOT
ATOM     10  C   UNL     1      17.817  11.230  24.107  0.00  0.00    +0.038 A 
ATOM     11  C   UNL     1      18.821  12.219  24.269  0.00  0.00    +0.047 A 
ATOM     12  C   UNL     1      18.484  13.634  24.307  0.00  0.00    +0.035 A 
ATOM     32  C   UNL     1      17.114  14.006  24.180  0.00  0.00    +0.024 A 
ATOM     33  C   UNL     1      16.081  13.014  24.013  0.00  0.00    +0.007 A 
ATOM     34  C   UNL     1      16.408  11.617  23.972  0.00  0.00    -0.029 A 
ATOM     35  C   UNL     1      15.260  10.598  23.784  0.00  0.00    +0.045 C 
ENDROOT
BRANCH  10   9
ATOM      4  C   UNL     1      18.313   6.925  26.170  0.00  0.00    +0.077 A 
ATOM      5  C   UNL     1      17.797   7.400  27.422  0.00  0.00    +0.048 A 
ATOM      6  C   UNL     1      17.421   8.760  27.495  0.00  0.00    +0.116 A 
ATOM      7  N   UNL     1      17.557   9.576  26.392  0.00  0.00    -0.223 NA
ATOM      8  C   UNL     1      18.060   9.086  25.201  0.00  0.00    +0.220 A 
ATOM      9  N   UNL     1      18.197   9.887  24.077  0.00  0.00    -0.283 N 
ATOM     36  H   UNL     1      18.579   9.490  23.219  0.00  0.00    +0.155 HD
ATOM     37  N   UNL     1      18.427   7.791  25.106  0.00  0.00    -0.214 NA
BRANCH   4   3
ATOM      1  C   UNL     1      20.166   3.772  24.783  0.00  0.00    +0.020 A 
ATOM      2  C   UNL     1      19.782   5.152  24.971  0.00  0.00    +0.013 A 
ATOM      3  C   UNL     1      18.749   5.513  25.935  0.00  0.00    +0.019 A 
ATOM     38  C   UNL     1      18.121   4.445  26.698  0.00  0.00    +0.120 A 
ATOM     39  N   UNL     1      18.511   3.125  26.494  0.00  0.00    -0.263 NA
ATOM     40  C   UNL     1      19.502   2.766  25.569  0.00  0.00    +0.111 A 
ENDBRANCH   4   3
ENDBRANCH  10   9
BRANCH  12  13
ATOM     13  N   UNL     1      19.461  14.683  24.462  0.00  0.00    -0.281 N 
ATOM     14  C   UNL     1      20.100  15.405  23.467  0.00  0.00    +0.248 C 
ATOM     30  O   UNL     1      20.086  15.110  22.282  0.00  0.00    -0.270 OA
ATOM     31  H   UNL     1      19.711  14.923  25.421  0.00  0.00    +0.155 HD
BRANCH  14  15
ATOM     15  C   UNL     1      20.878  16.624  23.846  0.00  0.00    +0.037 A 
ATOM     16  C   UNL     1      22.073  17.024  23.099  0.00  0.00    +0.013 A 
ATOM     17  C   UNL     1      22.816  18.194  23.496  0.00  0.00    +0.005 A 
ATOM     18  C   UNL     1      22.364  18.973  24.647  0.00  0.00    -0.033 A 
ATOM     28  C   UNL     1      21.172  18.556  25.367  0.00  0.00    +0.005 A 
ATOM     29  C   UNL     1      20.442  17.409  24.981  0.00  0.00    +0.013 A 
BRANCH  18  19
ATOM     19  C   UNL     1      23.106  20.224  25.154  0.00  0.00    +0.119 C 
BRANCH  19  20
ATOM     20  N   UNL     1      23.647  20.180  26.545  0.00  0.00    -0.302 NA
ATOM     21  C   UNL     1      22.986  21.223  27.451  0.00  0.00    +0.066 C 
ATOM     22  C   UNL     1      23.547  21.148  28.909  0.00  0.00    -0.064 C 
ATOM     23  N   UNL     1      25.064  21.341  28.878  0.00  0.00    +0.379 N 
ATOM     24  C   UNL     1      25.588  21.329  30.252  0.00  0.00    -0.096 C 
ATOM     25  H   UNL     1      25.268  22.348  28.447  0.00  0.00    -0.082 HD
ATOM     26  C   UNL     1      25.729  20.310  27.978  0.00  0.00    -0.064 C 
ATOM     27  C   UNL     1      25.143  20.373  26.539  0.00  0.00    +0.066 C 
ENDBRANCH  19  20
ENDBRANCH  18  19
ENDBRANCH  14  15
ENDBRANCH  12  13
TORSDOF 6
ENDMDL
MODEL 2
REMARK VINA RESULT:      -8.5     24.493     28.645
REMARK  Name = C:\Users\Docking\Desktop\test protocol\1iep_ligandH.pdb
REMARK  8 active torsions:
REMARK  status: ('A' for Active; 'I' for Inactive)
REMARK    1  A    between atoms: _5  and  _11
REMARK    2  A    between atoms: _19  and  _21
REMARK    3  A    between atoms: _22  and  _66
REMARK    4  A    between atoms: _27  and  _30
REMARK    5  A    between atoms: _32  and  _33
REMARK    6  A    between atoms: _38  and  _43
REMARK    7  A    between atoms: _43  and  _46
REMARK    8  A    between atoms: _53  and  _55
REMARK                            x       y       z     vdW  Elec       q    Type
REMARK                         _______ _______ _______ _____ _____    ______ ____
ROOT
ATOM     10  C   UNL     1      -1.742  17.356   5.239  0.00  0.00    +0.038 A 
ATOM     11  C   UNL     1      -1.997  17.374   6.634  0.00  0.00    +0.047 A 
ATOM     12  C   UNL     1      -2.729  18.469   7.251  0.00  0.00    +0.035 A 
ATOM     32  C   UNL     1      -3.190  19.528   6.416  0.00  0.00    +0.024 A 
ATOM     33  C   UNL     1      -2.940  19.526   4.996  0.00  0.00    +0.007 A 
ATOM     34  C   UNL     1      -2.216  18.450   4.382  0.00  0.00    -0.029 A 
ATOM     35  C   UNL     1      -1.971  18.503   2.856  0.00  0.00    +0.045 C 
ENDROOT
BRANCH  10   9
ATOM      4  C   UNL     1       2.339  14.986   4.366  0.00  0.00    +0.077 A 
ATOM      5  C   UNL     1       3.131  15.990   5.016  0.00  0.00    +0.048 A 
ATOM      6  C   UNL     1       2.450  17.104   5.556  0.00  0.00    +0.116 A 
ATOM      7  N   UNL     1       1.079  17.196   5.448  0.00  0.00    -0.223 NA
ATOM      8  C   UNL     1       0.346  16.211   4.813  0.00  0.00    +0.220 A 
ATOM      9  N   UNL     1      -1.034  16.279   4.699  0.00  0.00    -0.283 N 
ATOM     36  H   UNL     1      -1.538  15.535   4.217  0.00  0.00    +0.155 HD
ATOM     37  N   UNL     1       0.973  15.138   4.288  0.00  0.00    -0.214 NA
BRANCH   4   3
ATOM      1  C   UNL     1       4.837  12.221   3.175  0.00  0.00    +0.020 A 
ATOM      2  C   UNL     1       4.335  13.430   3.786  0.00  0.00    +0.013 A 
ATOM      3  C   UNL     1       2.913  13.748   3.749  0.00  0.00    +0.019 A 
ATOM     38  C   UNL     1       2.019  12.814   3.081  0.00  0.00    +0.120 A 
ATOM     39  N   UNL     1       2.532  11.658   2.500  0.00  0.00    -0.263 NA
ATOM     40  C   UNL     1       3.898  11.343   2.528  0.00  0.00    +0.111 A 
ENDBRANCH   4   3
ENDBRANCH  10   9
BRANCH  12  13
ATOM     13  N   UNL     1      -3.010  18.546   8.663  0.00  0.00    -0.281 N 
ATOM     14  C   UNL     1      -4.195  18.242   9.313  0.00  0.00    +0.248 C 
ATOM     30  O   UNL     1      -5.265  18.060   8.751  0.00  0.00    -0.270 OA
ATOM     31  H   UNL     1      -2.242  18.863   9.255  0.00  0.00    +0.155 HD
BRANCH  14  15
ATOM     15  C   UNL     1      -4.194  18.139  10.804  0.00  0.00    +0.037 A 
ATOM     16  C   UNL     1      -3.084  18.667  11.602  0.00  0.00    +0.013 A 
ATOM     17  C   UNL     1      -3.101  18.539  13.038  0.00  0.00    +0.005 A 
ATOM     18  C   UNL     1      -4.234  17.882  13.685  0.00  0.00    -0.033 A 
ATOM     28  C   UNL     1      -5.324  17.372  12.870  0.00  0.00    +0.005 A 
ATOM     29  C   UNL     1      -5.311  17.495  11.463  0.00  0.00    +0.013 A 
BRANCH  18  19
ATOM     19  C   UNL     1      -4.325  17.683  15.210  0.00  0.00    +0.119 C 
BRANCH  19  20
ATOM     20  N   UNL     1      -3.728  16.435  15.774  0.00  0.00    -0.302 NA
ATOM     21  C   UNL     1      -4.502  15.929  16.995  0.00  0.00    +0.066 C 
ATOM     22  C   UNL     1      -3.877  14.611  17.558  0.00  0.00    -0.064 C 
ATOM     23  N   UNL     1      -2.409  14.856  17.910  0.00  0.00    +0.379 N 
ATOM     24  C   UNL     1      -1.834  13.636  18.494  0.00  0.00    -0.096 C 
ATOM     25  H   UNL     1      -2.377  15.652  18.690  0.00  0.00    -0.082 HD
ATOM     26  C   UNL     1      -1.633  15.362  16.702  0.00  0.00    -0.064 C 
ATOM     27  C   UNL     1      -2.279  16.656  16.133  0.00  0.00    +0.066 C 
ENDBRANCH  19  20
ENDBRANCH  18  19
ENDBRANCH  14  15
ENDBRANCH  12  13
TORSDOF 6
ENDMDL
MODEL 3
REMARK VINA RESULT:      -8.4     23.755     27.726
REMARK  Name = C:\Users\Docking\Desktop\test protocol\1iep_ligandH.pdb
REMARK  8 active torsions:
REMARK  status: ('A' for Active; 'I' for Inactive)
REMARK    1  A    between atoms: _5  and  _11
REMARK    2  A    between atoms: _19  and  _21
REMARK    3  A    between atoms: _22  and  _66
REMARK    4  A    between atoms: _27  and  _30
REMARK    5  A    between atoms: _32  and  _33
REMARK    6  A    between atoms: _38  and  _43
REMARK    7  A    between atoms: _43  and  _46
REMARK    8  A    between atoms: _53  and  _55
REMARK                            x       y       z     vdW  Elec       q    Type
REMARK                         _______ _______ _______ _____ _____    ______ ____
ROOT
ATOM     10  C   UNL     1      -3.965  16.556  14.947  0.00  0.00    +0.038 A 
ATOM     11  C   UNL     1      -3.684  16.530  13.557  0.00  0.00    +0.047 A 
ATOM     12  C   UNL     1      -3.513  17.760  12.801  0.00  0.00    +0.035 A 
ATOM     32  C   UNL     1      -3.631  19.001  13.493  0.00  0.00    +0.024 A 
ATOM     33  C   UNL     1      -3.918  19.046  14.905  0.00  0.00    +0.007 A 
ATOM     34  C   UNL     1      -4.090  17.836  15.656  0.00  0.00    -0.029 A 
ATOM     35  C   UNL     1      -4.402  17.944  17.167  0.00  0.00    +0.045 C 
ENDROOT
BRANCH  10   9
ATOM      4  C   UNL     1      -2.204  12.806  17.370  0.00  0.00    +0.077 A 
ATOM      5  C   UNL     1      -0.858  13.288  17.254  0.00  0.00    +0.048 A 
ATOM      6  C   UNL     1      -0.660  14.501  16.557  0.00  0.00    +0.116 A 
ATOM      7  N   UNL     1      -1.737  15.174  16.020  0.00  0.00    -0.223 NA
ATOM      8  C   UNL     1      -3.022  14.680  16.149  0.00  0.00    +0.220 A 
ATOM      9  N   UNL     1      -4.120  15.345  15.624  0.00  0.00    -0.283 N 
ATOM     36  H   UNL     1      -5.052  14.944  15.734  0.00  0.00    +0.155 HD
ATOM     37  N   UNL     1      -3.237  13.523  16.809  0.00  0.00    -0.214 NA
BRANCH   4   3
ATOM      1  C   UNL     1      -2.008   9.316  19.126  0.00  0.00    +0.020 A 
ATOM      2  C   UNL     1      -1.598  10.520  18.440  0.00  0.00    +0.013 A 
ATOM      3  C   UNL     1      -2.574  11.541  18.080  0.00  0.00    +0.019 A 
ATOM     38  C   UNL     1      -3.967  11.311  18.432  0.00  0.00    +0.120 A 
ATOM     39  N   UNL     1      -4.333  10.142  19.091  0.00  0.00    -0.263 NA
ATOM     40  C   UNL     1      -3.403   9.151  19.441  0.00  0.00    +0.111 A 
ENDBRANCH   4   3
ENDBRANCH  10   9
BRANCH  12  13
ATOM     13  N   UNL     1      -3.234  17.796  11.386  0.00  0.00    -0.281 N 
ATOM     14  C   UNL     1      -4.082  18.183  10.361  0.00  0.00    +0.248 C 
ATOM     30  O   UNL     1      -5.285  18.355  10.487  0.00  0.00    -0.270 OA
ATOM     31  H   UNL     1      -2.299  17.500  11.107  0.00  0.00    +0.155 HD
BRANCH  14  15
ATOM     15  C   UNL     1      -3.512  18.395   8.995  0.00  0.00    +0.037 A 
ATOM     16  C   UNL     1      -3.244  19.742   8.485  0.00  0.00    +0.013 A 
ATOM     17  C   UNL     1      -2.710  19.919   7.157  0.00  0.00    +0.005 A 
ATOM     18  C   UNL     1      -2.441  18.744   6.331  0.00  0.00    -0.033 A 
ATOM     28  C   UNL     1      -2.712  17.420   6.865  0.00  0.00    +0.005 A 
ATOM     29  C   UNL     1      -3.236  17.242   8.165  0.00  0.00    +0.013 A 
BRANCH  18  19
ATOM     19  C   UNL     1      -1.892  18.840   4.895  0.00  0.00    +0.119 C 
BRANCH  19  20
ATOM     20  N   UNL     1      -1.309  17.600   4.302  0.00  0.00    -0.302 NA
ATOM     21  C   UNL     1       0.035  17.236   4.939  0.00  0.00    +0.066 C 
ATOM     22  C   UNL     1       0.620  15.923   4.322  0.00  0.00    -0.064 C 
ATOM     23  N   UNL     1       0.766  16.095   2.809  0.00  0.00    +0.379 N 
ATOM     24  C   UNL     1       1.370  14.884   2.234  0.00  0.00    -0.096 C 
ATOM     25  H   UNL     1       1.470  16.941   2.631  0.00  0.00    -0.082 HD
ATOM     26  C   UNL     1      -0.566  16.460   2.169  0.00  0.00    -0.064 C 
ATOM     27  C   UNL     1      -1.152  17.749   2.809  0.00  0.00    +0.066 C 
ENDBRANCH  19  20
ENDBRANCH  18  19
ENDBRANCH  14  15
ENDBRANCH  12  13
TORSDOF 6
ENDMDL
MODEL 4
REMARK VINA RESULT:      -8.4     22.695     26.805
REMARK  Name = C:\Users\Docking\Desktop\test protocol\1iep_ligandH.pdb
REMARK  8 active torsions:
REMARK  status: ('A' for Active; 'I' for Inactive)
REMARK    1  A    between atoms: _5  and  _11
REMARK    2  A    between atoms: _19  and  _21
REMARK    3  A    between atoms: _22  and  _66
REMARK    4  A    between atoms: _27  and  _30
REMARK    5  A    between atoms: _32  and  _33
REMARK    6  A    between atoms: _38  and  _43
REMARK    7  A    between atoms: _43  and  _46
REMARK    8  A    between atoms: _53  and  _55
REMARK                            x       y       z     vdW  Elec       q    Type
REMARK                         _______ _______ _______ _____ _____    ______ ____
ROOT
ATOM     10  C   UNL     1      -5.240  12.898  18.312  0.00  0.00    +0.038 A 
ATOM     11  C   UNL     1      -4.527  11.683  18.145  0.00  0.00    +0.047 A 
ATOM     12  C   UNL     1      -4.696  10.578  19.076  0.00  0.00    +0.035 A 
ATOM     32  C   UNL     1      -5.601  10.744  20.165  0.00  0.00    +0.024 A 
ATOM     33  C   UNL     1      -6.332  11.973  20.350  0.00  0.00    +0.007 A 
ATOM     34  C   UNL     1      -6.168  13.067  19.436  0.00  0.00    -0.029 A 
ATOM     35  C   UNL     1      -6.974  14.363  19.687  0.00  0.00    +0.045 C 
ENDROOT
BRANCH  10   9
ATOM      4  C   UNL     1      -2.407  15.940  15.912  0.00  0.00    +0.077 A 
ATOM      5  C   UNL     1      -1.230  15.459  16.574  0.00  0.00    +0.048 A 
ATOM      6  C   UNL     1      -1.397  14.433  17.531  0.00  0.00    +0.116 A 
ATOM      7  N   UNL     1      -2.653  13.933  17.797  0.00  0.00    -0.223 NA
ATOM      8  C   UNL     1      -3.768  14.420  17.141  0.00  0.00    +0.220 A 
ATOM      9  N   UNL     1      -5.040  13.926  17.388  0.00  0.00    -0.283 N 
ATOM     36  H   UNL     1      -5.838  14.318  16.888  0.00  0.00    +0.155 HD
ATOM     37  N   UNL     1      -3.635  15.401  16.224  0.00  0.00    -0.214 NA
BRANCH   4   3
ATOM      1  C   UNL     1      -2.041  19.405  14.133  0.00  0.00    +0.020 A 
ATOM      2  C   UNL     1      -2.040  18.401  15.172  0.00  0.00    +0.013 A 
ATOM      3  C   UNL     1      -2.393  17.019  14.874  0.00  0.00    +0.019 A 
ATOM     38  C   UNL     1      -2.746  16.683  13.502  0.00  0.00    +0.120 A 
ATOM     39  N   UNL     1      -2.740  17.671  12.523  0.00  0.00    -0.263 NA
ATOM     40  C   UNL     1      -2.403  19.004  12.798  0.00  0.00    +0.111 A 
ENDBRANCH   4   3
ENDBRANCH  10   9
BRANCH  12  13
ATOM     13  N   UNL     1      -3.993   9.324  18.962  0.00  0.00    -0.281 N 
ATOM     14  C   UNL     1      -2.644   9.083  19.161  0.00  0.00    +0.248 C 
ATOM     30  O   UNL     1      -1.793   9.955  19.259  0.00  0.00    -0.270 OA
ATOM     31  H   UNL     1      -4.560   8.516  18.704  0.00  0.00    +0.155 HD
BRANCH  14  15
ATOM     15  C   UNL     1      -2.168   7.669  19.249  0.00  0.00    +0.037 A 
ATOM     16  C   UNL     1      -2.633   6.651  18.303  0.00  0.00    +0.013 A 
ATOM     17  C   UNL     1      -2.171   5.290  18.421  0.00  0.00    +0.005 A 
ATOM     18  C   UNL     1      -1.238   4.940  19.490  0.00  0.00    -0.033 A 
ATOM     28  C   UNL     1      -0.790   5.971  20.411  0.00  0.00    +0.005 A 
ATOM     29  C   UNL     1      -1.241   7.306  20.299  0.00  0.00    +0.013 A 
BRANCH  18  19
ATOM     19  C   UNL     1      -0.710   3.509  19.704  0.00  0.00    +0.119 C 
BRANCH  19  20
ATOM     20  N   UNL     1      -0.568   3.037  21.113  0.00  0.00    -0.302 NA
ATOM     21  C   UNL     1       0.685   2.178  21.307  0.00  0.00    +0.066 C 
ATOM     22  C   UNL     1       0.831   1.711  22.792  0.00  0.00    -0.064 C 
ATOM     23  N   UNL     1      -0.424   0.940  23.207  0.00  0.00    +0.379 N 
ATOM     24  C   UNL     1      -0.265   0.450  24.584  0.00  0.00    -0.096 C 
ATOM     25  H   UNL     1      -0.511   0.052  22.539  0.00  0.00    -0.082 HD
ATOM     26  C   UNL     1      -1.674   1.786  23.015  0.00  0.00    -0.064 C 
ATOM     27  C   UNL     1      -1.794   2.270  21.542  0.00  0.00    +0.066 C 
ENDBRANCH  19  20
ENDBRANCH  18  19
ENDBRANCH  14  15
ENDBRANCH  12  13
TORSDOF 6
ENDMDL
MODEL 5
REMARK VINA RESULT:      -8.4     10.345     14.851
REMARK  Name = C:\Users\Docking\Desktop\test protocol\1iep_ligandH.pdb
REMARK  8 active torsions:
REMARK  status: ('A' for Active; 'I' for Inactive)
REMARK    1  A    between atoms: _5  and  _11
REMARK    2  A    between atoms: _19  and  _21
REMARK    3  A    between atoms: _22  and  _66
REMARK    4  A    between atoms: _27  and  _30
REMARK    5  A    between atoms: _32  and  _33
REMARK    6  A    between atoms: _38  and  _43
REMARK    7  A    between atoms: _43  and  _46
REMARK    8  A    between atoms: _53  and  _55
REMARK                            x       y       z     vdW  Elec       q    Type
REMARK                         _______ _______ _______ _____ _____    ______ ____
ROOT
ATOM     10  C   UNL     1      26.975  16.158  14.008  0.00  0.00    +0.038 A 
ATOM     11  C   UNL     1      26.495  16.714  15.221  0.00  0.00    +0.047 A 
ATOM     12  C   UNL     1      27.233  16.555  16.465  0.00  0.00    +0.035 A 
ATOM     32  C   UNL     1      28.458  15.827  16.435  0.00  0.00    +0.024 A 
ATOM     33  C   UNL     1      28.959  15.254  15.211  0.00  0.00    +0.007 A 
ATOM     34  C   UNL     1      28.235  15.405  13.982  0.00  0.00    -0.029 A 
ATOM     35  C   UNL     1      28.816  14.764  12.700  0.00  0.00    +0.045 C 
ENDROOT
BRANCH  10   9
ATOM      4  C   UNL     1      26.061  18.422   9.875  0.00  0.00    +0.077 A 
ATOM      5  C   UNL     1      27.151  19.335  10.066  0.00  0.00    +0.048 A 
ATOM      6  C   UNL     1      27.918  19.193  11.244  0.00  0.00    +0.116 A 
ATOM      7  N   UNL     1      27.609  18.207  12.156  0.00  0.00    -0.223 NA
ATOM      8  C   UNL     1      26.550  17.345  11.943  0.00  0.00    +0.220 A 
ATOM      9  N   UNL     1      26.226  16.341  12.843  0.00  0.00    -0.283 N 
ATOM     36  H   UNL     1      25.432  15.730  12.653  0.00  0.00    +0.155 HD
ATOM     37  N   UNL     1      25.801  17.461  10.826  0.00  0.00    -0.214 NA
BRANCH   4   3
ATOM      1  C   UNL     1      24.383  17.556   6.450  0.00  0.00    +0.020 A 
ATOM      2  C   UNL     1      25.278  17.492   7.582  0.00  0.00    +0.013 A 
ATOM      3  C   UNL     1      25.160  18.444   8.679  0.00  0.00    +0.019 A 
ATOM     38  C   UNL     1      24.116  19.454   8.601  0.00  0.00    +0.120 A 
ATOM     39  N   UNL     1      23.269  19.492   7.498  0.00  0.00    -0.263 NA
ATOM     40  C   UNL     1      23.375  18.583   6.435  0.00  0.00    +0.111 A 
ENDBRANCH   4   3
ENDBRANCH  10   9
BRANCH  12  13
ATOM     13  N   UNL     1      26.792  17.090  17.729  0.00  0.00    -0.281 N 
ATOM     14  C   UNL     1      25.579  16.883  18.365  0.00  0.00    +0.248 C 
ATOM     30  O   UNL     1      24.601  16.373  17.838  0.00  0.00    -0.270 OA
ATOM     31  H   UNL     1      27.454  17.696  18.214  0.00  0.00    +0.155 HD
BRANCH  14  15
ATOM     15  C   UNL     1      25.425  17.316  19.787  0.00  0.00    +0.037 A 
ATOM     16  C   UNL     1      25.749  18.683  20.203  0.00  0.00    +0.013 A 
ATOM     17  C   UNL     1      25.608  19.071  21.585  0.00  0.00    +0.005 A 
ATOM     18  C   UNL     1      25.139  18.089  22.560  0.00  0.00    -0.033 A 
ATOM     28  C   UNL     1      24.820  16.741  22.118  0.00  0.00    +0.005 A 
ATOM     29  C   UNL     1      24.958  16.358  20.765  0.00  0.00    +0.013 A 
BRANCH  18  19
ATOM     19  C   UNL     1      24.979  18.409  24.058  0.00  0.00    +0.119 C 
BRANCH  19  20
ATOM     20  N   UNL     1      24.164  19.607  24.418  0.00  0.00    -0.302 NA
ATOM     21  C   UNL     1      24.674  20.287  25.691  0.00  0.00    +0.066 C 
ATOM     22  C   UNL     1      23.823  21.552  26.041  0.00  0.00    -0.064 C 
ATOM     23  N   UNL     1      22.355  21.149  26.193  0.00  0.00    +0.379 N 
ATOM     24  C   UNL     1      21.562  22.325  26.579  0.00  0.00    -0.096 C 
ATOM     25  H   UNL     1      22.292  20.410  27.025  0.00  0.00    -0.082 HD
ATOM     26  C   UNL     1      21.841  20.469  24.932  0.00  0.00    -0.064 C 
ATOM     27  C   UNL     1      22.711  19.231  24.577  0.00  0.00    +0.066 C 
ENDBRANCH  19  20
ENDBRANCH  18  19
ENDBRANCH  14  15
ENDBRANCH  12  13
TORSDOF 6
ENDMDL
