MODEL 1
REMARK VINA RESULT:     -10.4      0.000      0.000
REMARK  Name = C:\Users\Docking\Desktop\test protocol\1iep_ligandH.pdb
REMARK  8 active torsions:
REMARK  status: ('A' for Active; 'I' for Inactive)
REMARK    1  A    between atoms: _5  and  _11
REMARK    2  A    between atoms: _19  and  _21
REMARK    3  A    between atoms: _22  and  _66
REMARK    4  A    between atoms: _27  and  _30
REMARK    5  A    between atoms: _32  and  _33
REMARK    6  A    between atoms: _38  and  _43
REMARK    7  A    between atoms: _43  and  _46
REMARK    8  A    between atoms: _53  and  _55
REMARK                            x       y       z     vdW  Elec       q    Type
REMARK                         _______ _______ _______ _____ _____    ______ ____
ROOT
ATOM     10  C   UNL     1      -0.177   5.197  19.674  0.00  0.00    +0.038 A 
ATOM     11  C   UNL     1       0.429   3.998  20.130  0.00  0.00    +0.047 A 
ATOM     12  C   UNL     1      -0.184   2.703  19.878  0.00  0.00    +0.035 A 
ATOM     32  C   UNL     1      -1.412   2.665  19.156  0.00  0.00    +0.024 A 
ATOM     33  C   UNL     1      -2.042   3.874  18.686  0.00  0.00    +0.007 A 
ATOM     34  C   UNL     1      -1.444   5.155  18.933  0.00  0.00    -0.029 A 
ATOM     35  C   UNL     1      -2.167   6.418  18.411  0.00  0.00    +0.045 C 
ENDROOT
BRANCH  10   9
ATOM      4  C   UNL     1       2.990   8.647  18.621  0.00  0.00    +0.077 A 
ATOM      5  C   UNL     1       3.444   7.954  17.449  0.00  0.00    +0.048 A 
ATOM      6  C   UNL     1       2.842   6.710  17.157  0.00  0.00    +0.116 A 
ATOM      7  N   UNL     1       1.860   6.206  17.981  0.00  0.00    -0.223 NA
ATOM      8  C   UNL     1       1.446   6.898  19.104  0.00  0.00    +0.220 A 
ATOM      9  N   UNL     1       0.454   6.413  19.943  0.00  0.00    -0.283 N 
ATOM     36  H   UNL     1       0.183   6.951  20.766  0.00  0.00    +0.155 HD
ATOM     37  N   UNL     1       2.007   8.088  19.406  0.00  0.00    -0.214 NA
BRANCH   4   3
ATOM      1  C   UNL     1       4.090  11.682  20.829  0.00  0.00    +0.020 A 
ATOM      2  C   UNL     1       3.561  10.391  20.457  0.00  0.00    +0.013 A 
ATOM      3  C   UNL     1       3.527   9.973  19.061  0.00  0.00    +0.019 A 
ATOM     38  C   UNL     1       4.041  10.893  18.058  0.00  0.00    +0.120 A 
ATOM     39  N   UNL     1       4.544  12.132  18.445  0.00  0.00    -0.263 NA
ATOM     40  C   UNL     1       4.580  12.545  19.785  0.00  0.00    +0.111 A 
ENDBRANCH   4   3
ENDBRANCH  10   9
BRANCH  12  13
ATOM     13  N   UNL     1       0.381   1.453  20.324  0.00  0.00    -0.281 N 
ATOM     14  C   UNL     1      -0.069   0.632  21.346  0.00  0.00    +0.248 C 
ATOM     30  O   UNL     1      -0.904   0.957  22.176  0.00  0.00    -0.270 OA
ATOM     31  H   UNL     1       1.212   1.135  19.826  0.00  0.00    +0.155 HD
BRANCH  14  15
ATOM     15  C   UNL     1       0.504  -0.743  21.472  0.00  0.00    +0.037 A 
ATOM     16  C   UNL     1       1.011  -1.465  20.302  0.00  0.00    +0.013 A 
ATOM     17  C   UNL     1       1.543  -2.797  20.449  0.00  0.00    +0.005 A 
ATOM     18  C   UNL     1       1.571  -3.415  21.773  0.00  0.00    -0.033 A 
ATOM     28  C   UNL     1       1.066  -2.674  22.917  0.00  0.00    +0.005 A 
ATOM     29  C   UNL     1       0.543  -1.368  22.776  0.00  0.00    +0.013 A 
BRANCH  18  19
ATOM     19  C   UNL     1       2.100  -4.840  22.019  0.00  0.00    +0.119 C 
BRANCH  19  20
ATOM     20  N   UNL     1       3.055  -5.028  23.152  0.00  0.00    -0.302 NA
ATOM     21  C   UNL     1       4.454  -4.502  22.817  0.00  0.00    +0.066 C 
ATOM     22  C   UNL     1       5.435  -4.686  24.021  0.00  0.00    -0.064 C 
ATOM     23  N   UNL     1       5.490  -6.165  24.408  0.00  0.00    +0.379 N 
ATOM     24  C   UNL     1       6.455  -6.350  25.502  0.00  0.00    -0.096 C 
ATOM     25  H   UNL     1       5.867  -6.732  23.525  0.00  0.00    -0.082 HD
ATOM     26  C   UNL     1       4.103  -6.697  24.740  0.00  0.00    -0.064 C 
ATOM     27  C   UNL     1       3.129  -6.482  23.548  0.00  0.00    +0.066 C 
ENDBRANCH  19  20
ENDBRANCH  18  19
ENDBRANCH  14  15
ENDBRANCH  12  13
TORSDOF 6
ENDMDL
MODEL 2
REMARK VINA RESULT:      -9.9      6.015     10.811
REMARK  Name = C:\Users\Docking\Desktop\test protocol\1iep_ligandH.pdb
REMARK  8 active torsions:
REMARK  status: ('A' for Active; 'I' for Inactive)
REMARK    1  A    between atoms: _5  and  _11
REMARK    2  A    between atoms: _19  and  _21
REMARK    3  A    between atoms: _22  and  _66
REMARK    4  A    between atoms: _27  and  _30
REMARK    5  A    between atoms: _32  and  _33
REMARK    6  A    between atoms: _38  and  _43
REMARK    7  A    between atoms: _43  and  _46
REMARK    8  A    between atoms: _53  and  _55
REMARK                            x       y       z     vdW  Elec       q    Type
REMARK                         _______ _______ _______ _____ _____    ______ ____
ROOT
ATOM     10  C   UNL     1       7.845  11.323  16.860  0.00  0.00    +0.038 A 
ATOM     11  C   UNL     1       6.929  10.244  16.943  0.00  0.00    +0.047 A 
ATOM     12  C   UNL     1       5.626  10.409  17.570  0.00  0.00    +0.035 A 
ATOM     32  C   UNL     1       5.289  11.689  18.099  0.00  0.00    +0.024 A 
ATOM     33  C   UNL     1       6.209  12.797  18.023  0.00  0.00    +0.007 A 
ATOM     34  C   UNL     1       7.496  12.639  17.409  0.00  0.00    -0.029 A 
ATOM     35  C   UNL     1       8.445  13.859  17.362  0.00  0.00    +0.045 C 
ENDROOT
BRANCH  10   9
ATOM      4  C   UNL     1      12.586  10.590  17.038  0.00  0.00    +0.077 A 
ATOM      5  C   UNL     1      12.604  10.669  18.471  0.00  0.00    +0.048 A 
ATOM      6  C   UNL     1      11.373  10.907  19.123  0.00  0.00    +0.116 A 
ATOM      7  N   UNL     1      10.217  11.053  18.388  0.00  0.00    -0.223 NA
ATOM      8  C   UNL     1      10.234  10.972  17.007  0.00  0.00    +0.220 A 
ATOM      9  N   UNL     1       9.082  11.108  16.248  0.00  0.00    -0.283 N 
ATOM     36  H   UNL     1       9.138  11.049  15.232  0.00  0.00    +0.155 HD
ATOM     37  N   UNL     1      11.397  10.747  16.361  0.00  0.00    -0.214 NA
BRANCH   4   3
ATOM      1  C   UNL     1      15.557  11.054  14.537  0.00  0.00    +0.020 A 
ATOM      2  C   UNL     1      14.378  11.346  15.319  0.00  0.00    +0.013 A 
ATOM      3  C   UNL     1      13.805  10.341  16.206  0.00  0.00    +0.019 A 
ATOM     38  C   UNL     1      14.454   9.041  16.279  0.00  0.00    +0.120 A 
ATOM     39  N   UNL     1      15.588   8.788  15.512  0.00  0.00    -0.263 NA
ATOM     40  C   UNL     1      16.147   9.747  14.654  0.00  0.00    +0.111 A 
ENDBRANCH   4   3
ENDBRANCH  10   9
BRANCH  12  13
ATOM     13  N   UNL     1       4.658   9.348  17.691  0.00  0.00    -0.281 N 
ATOM     14  C   UNL     1       3.957   8.959  18.821  0.00  0.00    +0.248 C 
ATOM     30  O   UNL     1       4.217   9.329  19.956  0.00  0.00    -0.270 OA
ATOM     31  H   UNL     1       4.465   8.820  16.840  0.00  0.00    +0.155 HD
BRANCH  14  15
ATOM     15  C   UNL     1       2.812   8.011  18.670  0.00  0.00    +0.037 A 
ATOM     16  C   UNL     1       1.582   8.175  19.448  0.00  0.00    +0.013 A 
ATOM     17  C   UNL     1       0.499   7.236  19.295  0.00  0.00    +0.005 A 
ATOM     18  C   UNL     1       0.641   6.124  18.358  0.00  0.00    -0.033 A 
ATOM     28  C   UNL     1       1.871   5.988  17.595  0.00  0.00    +0.005 A 
ATOM     29  C   UNL     1       2.935   6.906  17.743  0.00  0.00    +0.013 A 
BRANCH  18  19
ATOM     19  C   UNL     1      -0.455   5.063  18.147  0.00  0.00    +0.119 C 
BRANCH  19  20
ATOM     20  N   UNL     1      -0.872   4.264  19.338  0.00  0.00    -0.302 NA
ATOM     21  C   UNL     1      -0.106   2.942  19.440  0.00  0.00    +0.066 C 
ATOM     22  C   UNL     1      -0.539   2.130  20.704  0.00  0.00    -0.064 C 
ATOM     23  N   UNL     1      -2.047   1.879  20.653  0.00  0.00    +0.379 N 
ATOM     24  C   UNL     1      -2.448   1.066  21.811  0.00  0.00    -0.096 C 
ATOM     25  H   UNL     1      -2.261   1.287  19.733  0.00  0.00    -0.082 HD
ATOM     26  C   UNL     1      -2.816   3.189  20.549  0.00  0.00    -0.064 C 
ATOM     27  C   UNL     1      -2.358   4.002  19.306  0.00  0.00    +0.066 C 
ENDBRANCH  19  20
ENDBRANCH  18  19
ENDBRANCH  14  15
ENDBRANCH  12  13
TORSDOF 6
ENDMDL
MODEL 3
REMARK VINA RESULT:      -9.7      6.970     11.484
REMARK  Name = C:\Users\Docking\Desktop\test protocol\1iep_ligandH.pdb
REMARK  8 active torsions:
REMARK  status: ('A' for Active; 'I' for Inactive)
REMARK    1  A    between atoms: _5  and  _11
REMARK    2  A    between atoms: _19  and  _21
REMARK    3  A    between atoms: _22  and  _66
REMARK    4  A    between atoms: _27  and  _30
REMARK    5  A    between atoms: _32  and  _33
REMARK    6  A    between atoms: _38  and  _43
REMARK    7  A    between atoms: _43  and  _46
REMARK    8  A    between atoms: _53  and  _55
REMARK                            x       y       z     vdW  Elec       q    Type
REMARK                         _______ _______ _______ _____ _____    ______ ____
ROOT
ATOM     10  C   UNL     1       9.624  11.335  16.339  0.00  0.00    +0.038 A 
ATOM     11  C   UNL     1       8.925  10.435  17.183  0.00  0.00    +0.047 A 
ATOM     12  C   UNL     1       7.895   9.554  16.656  0.00  0.00    +0.035 A 
ATOM     32  C   UNL     1       7.604   9.613  15.262  0.00  0.00    +0.024 A 
ATOM     33  C   UNL     1       8.304  10.522  14.389  0.00  0.00    +0.007 A 
ATOM     34  C   UNL     1       9.319  11.396  14.904  0.00  0.00    -0.029 A 
ATOM     35  C   UNL     1      10.033  12.355  13.923  0.00  0.00    +0.045 C 
ENDROOT
BRANCH  10   9
ATOM      4  C   UNL     1      14.124  12.185  17.775  0.00  0.00    +0.077 A 
ATOM      5  C   UNL     1      14.554  10.868  17.403  0.00  0.00    +0.048 A 
ATOM      6  C   UNL     1      13.585  10.000  16.853  0.00  0.00    +0.116 A 
ATOM      7  N   UNL     1      12.285  10.428  16.690  0.00  0.00    -0.223 NA
ATOM      8  C   UNL     1      11.903  11.704  17.060  0.00  0.00    +0.220 A 
ATOM      9  N   UNL     1      10.603  12.158  16.898  0.00  0.00    -0.283 N 
ATOM     36  H   UNL     1      10.359  13.104  17.191  0.00  0.00    +0.155 HD
ATOM     37  N   UNL     1      12.810  12.552  17.590  0.00  0.00    -0.214 NA
BRANCH   4   3
ATOM      1  C   UNL     1      15.592  15.588  19.027  0.00  0.00    +0.020 A 
ATOM      2  C   UNL     1      14.680  14.631  18.445  0.00  0.00    +0.013 A 
ATOM      3  C   UNL     1      15.032  13.219  18.367  0.00  0.00    +0.019 A 
ATOM     38  C   UNL     1      16.324  12.804  18.890  0.00  0.00    +0.120 A 
ATOM     39  N   UNL     1      17.183  13.749  19.443  0.00  0.00    -0.263 NA
ATOM     40  C   UNL     1      16.856  15.111  19.523  0.00  0.00    +0.111 A 
ENDBRANCH   4   3
ENDBRANCH  10   9
BRANCH  12  13
ATOM     13  N   UNL     1       7.147   8.625  17.466  0.00  0.00    -0.281 N 
ATOM     14  C   UNL     1       5.894   8.804  18.030  0.00  0.00    +0.248 C 
ATOM     30  O   UNL     1       5.315   9.878  18.100  0.00  0.00    -0.270 OA
ATOM     31  H   UNL     1       7.595   7.727  17.646  0.00  0.00    +0.155 HD
BRANCH  14  15
ATOM     15  C   UNL     1       5.189   7.622  18.613  0.00  0.00    +0.037 A 
ATOM     16  C   UNL     1       4.576   7.683  19.942  0.00  0.00    +0.013 A 
ATOM     17  C   UNL     1       3.917   6.523  20.488  0.00  0.00    +0.005 A 
ATOM     18  C   UNL     1       3.866   5.292  19.702  0.00  0.00    -0.033 A 
ATOM     28  C   UNL     1       4.477   5.262  18.384  0.00  0.00    +0.005 A 
ATOM     29  C   UNL     1       5.125   6.396  17.846  0.00  0.00    +0.013 A 
BRANCH  18  19
ATOM     19  C   UNL     1       3.201   4.000  20.214  0.00  0.00    +0.119 C 
BRANCH  19  20
ATOM     20  N   UNL     1       1.769   3.778  19.853  0.00  0.00    -0.302 NA
ATOM     21  C   UNL     1       0.933   5.051  20.012  0.00  0.00    +0.066 C 
ATOM     22  C   UNL     1      -0.558   4.807  19.609  0.00  0.00    -0.064 C 
ATOM     23  N   UNL     1      -1.133   3.672  20.457  0.00  0.00    +0.379 N 
ATOM     24  C   UNL     1      -2.551   3.479  20.121  0.00  0.00    -0.096 C 
ATOM     25  H   UNL     1      -1.078   3.987  21.525  0.00  0.00    -0.082 HD
ATOM     26  C   UNL     1      -0.306   2.403  20.307  0.00  0.00    -0.064 C 
ATOM     27  C   UNL     1       1.180   2.664  20.682  0.00  0.00    +0.066 C 
ENDBRANCH  19  20
ENDBRANCH  18  19
ENDBRANCH  14  15
ENDBRANCH  12  13
TORSDOF 6
ENDMDL
MODEL 4
REMARK VINA RESULT:      -9.5      6.510     10.826
REMARK  Name = C:\Users\Docking\Desktop\test protocol\1iep_ligandH.pdb
REMARK  8 active torsions:
REMARK  status: ('A' for Active; 'I' for Inactive)
REMARK    1  A    between atoms: _5  and  _11
REMARK    2  A    between atoms: _19  and  _21
REMARK    3  A    between atoms: _22  and  _66
REMARK    4  A    between atoms: _27  and  _30
REMARK    5  A    between atoms: _32  and  _33
REMARK    6  A    between atoms: _38  and  _43
REMARK    7  A    between atoms: _43  and  _46
REMARK    8  A    between atoms: _53  and  _55
REMARK                            x       y       z     vdW  Elec       q    Type
REMARK                         _______ _______ _______ _____ _____    ______ ____
ROOT
ATOM     10  C   UNL     1       8.487  11.108  16.686  0.00  0.00    +0.038 A 
ATOM     11  C   UNL     1       7.727  10.014  17.174  0.00  0.00    +0.047 A 
ATOM     12  C   UNL     1       6.388  10.206  17.707  0.00  0.00    +0.035 A 
ATOM     32  C   UNL     1       5.851  11.526  17.727  0.00  0.00    +0.024 A 
ATOM     33  C   UNL     1       6.610  12.650  17.236  0.00  0.00    +0.007 A 
ATOM     34  C   UNL     1       7.933  12.467  16.710  0.00  0.00    -0.029 A 
ATOM     35  C   UNL     1       8.702  13.709  16.204  0.00  0.00    +0.045 C 
ENDROOT
BRANCH  10   9
ATOM      4  C   UNL     1      13.207  10.461  17.266  0.00  0.00    +0.077 A 
ATOM      5  C   UNL     1      13.118  10.648  18.686  0.00  0.00    +0.048 A 
ATOM      6  C   UNL     1      11.840  10.915  19.226  0.00  0.00    +0.116 A 
ATOM      7  N   UNL     1      10.740  10.988  18.399  0.00  0.00    -0.223 NA
ATOM      8  C   UNL     1      10.861  10.805  17.034  0.00  0.00    +0.220 A 
ATOM      9  N   UNL     1       9.768  10.866  16.184  0.00  0.00    -0.283 N 
ATOM     36  H   UNL     1       9.900  10.732  15.182  0.00  0.00    +0.155 HD
ATOM     37  N   UNL     1      12.071  10.550  16.493  0.00  0.00    -0.214 NA
BRANCH   4   3
ATOM      1  C   UNL     1      16.816  10.773  15.792  0.00  0.00    +0.020 A 
ATOM      2  C   UNL     1      15.602  11.105  16.500  0.00  0.00    +0.013 A 
ATOM      3  C   UNL     1      14.487  10.168  16.547  0.00  0.00    +0.019 A 
ATOM     38  C   UNL     1      14.634   8.893  15.862  0.00  0.00    +0.120 A 
ATOM     39  N   UNL     1      15.815   8.601  15.186  0.00  0.00    -0.263 NA
ATOM     40  C   UNL     1      16.894   9.496  15.133  0.00  0.00    +0.111 A 
ENDBRANCH   4   3
ENDBRANCH  10   9
BRANCH  12  13
ATOM     13  N   UNL     1       5.573   9.135  18.224  0.00  0.00    -0.281 N 
ATOM     14  C   UNL     1       5.181   7.974  17.577  0.00  0.00    +0.248 C 
ATOM     30  O   UNL     1       5.296   7.781  16.375  0.00  0.00    -0.270 OA
ATOM     31  H   UNL     1       5.245   9.245  19.184  0.00  0.00    +0.155 HD
BRANCH  14  15
ATOM     15  C   UNL     1       4.558   6.876  18.377  0.00  0.00    +0.037 A 
ATOM     16  C   UNL     1       4.697   6.825  19.834  0.00  0.00    +0.013 A 
ATOM     17  C   UNL     1       4.101   5.745  20.580  0.00  0.00    +0.005 A 
ATOM     18  C   UNL     1       3.357   4.708  19.869  0.00  0.00    -0.033 A 
ATOM     28  C   UNL     1       3.230   4.786  18.423  0.00  0.00    +0.005 A 
ATOM     29  C   UNL     1       3.815   5.843  17.688  0.00  0.00    +0.013 A 
BRANCH  18  19
ATOM     19  C   UNL     1       2.706   3.508  20.581  0.00  0.00    +0.119 C 
BRANCH  19  20
ATOM     20  N   UNL     1       1.301   3.169  20.204  0.00  0.00    -0.302 NA
ATOM     21  C   UNL     1       0.371   4.382  20.303  0.00  0.00    +0.066 C 
ATOM     22  C   UNL     1      -1.089   4.015  19.883  0.00  0.00    -0.064 C 
ATOM     23  N   UNL     1      -1.597   2.871  20.762  0.00  0.00    +0.379 N 
ATOM     24  C   UNL     1      -2.991   2.562  20.409  0.00  0.00    -0.096 C 
ATOM     25  H   UNL     1      -1.586   3.226  21.819  0.00  0.00    -0.082 HD
ATOM     26  C   UNL     1      -0.677   1.662  20.672  0.00  0.00    -0.064 C 
ATOM     27  C   UNL     1       0.778   2.044  21.062  0.00  0.00    +0.066 C 
ENDBRANCH  19  20
ENDBRANCH  18  19
ENDBRANCH  14  15
ENDBRANCH  12  13
TORSDOF 6
ENDMDL
MODEL 5
REMARK VINA RESULT:      -9.4      6.647     10.919
REMARK  Name = C:\Users\Docking\Desktop\test protocol\1iep_ligandH.pdb
REMARK  8 active torsions:
REMARK  status: ('A' for Active; 'I' for Inactive)
REMARK    1  A    between atoms: _5  and  _11
REMARK    2  A    between atoms: _19  and  _21
REMARK    3  A    between atoms: _22  and  _66
REMARK    4  A    between atoms: _27  and  _30
REMARK    5  A    between atoms: _32  and  _33
REMARK    6  A    between atoms: _38  and  _43
REMARK    7  A    between atoms: _43  and  _46
REMARK    8  A    between atoms: _53  and  _55
REMARK                            x       y       z     vdW  Elec       q    Type
REMARK                         _______ _______ _______ _____ _____    ______ ____
ROOT
ATOM     10  C   UNL     1       8.607  10.628  15.805  0.00  0.00    +0.038 A 
ATOM     11  C   UNL     1       7.829   9.621  16.431  0.00  0.00    +0.047 A 
ATOM     12  C   UNL     1       6.693   9.961  17.272  0.00  0.00    +0.035 A 
ATOM     32  C   UNL     1       6.374  11.339  17.452  0.00  0.00    +0.024 A 
ATOM     33  C   UNL     1       7.155  12.376  16.824  0.00  0.00    +0.007 A 
ATOM     34  C   UNL     1       8.278  12.046  15.995  0.00  0.00    -0.029 A 
ATOM     35  C   UNL     1       9.083  13.200  15.352  0.00  0.00    +0.045 C 
ENDROOT
BRANCH  10   9
ATOM      4  C   UNL     1      10.472   9.104  11.653  0.00  0.00    +0.077 A 
ATOM      5  C   UNL     1       9.182   9.041  11.029  0.00  0.00    +0.048 A 
ATOM      6  C   UNL     1       8.064   9.403  11.812  0.00  0.00    +0.116 A 
ATOM      7  N   UNL     1       8.234   9.796  13.122  0.00  0.00    -0.223 NA
ATOM      8  C   UNL     1       9.492   9.844  13.694  0.00  0.00    +0.220 A 
ATOM      9  N   UNL     1       9.687  10.244  15.007  0.00  0.00    -0.283 N 
ATOM     36  H   UNL     1      10.630  10.259  15.395  0.00  0.00    +0.155 HD
ATOM     37  N   UNL     1      10.576   9.502  12.967  0.00  0.00    -0.214 NA
BRANCH   4   3
ATOM      1  C   UNL     1      13.842   9.368   9.684  0.00  0.00    +0.020 A 
ATOM      2  C   UNL     1      12.618   9.757  10.347  0.00  0.00    +0.013 A 
ATOM      3  C   UNL     1      11.750   8.756  10.955  0.00  0.00    +0.019 A 
ATOM     38  C   UNL     1      12.153   7.360  10.876  0.00  0.00    +0.120 A 
ATOM     39  N   UNL     1      13.337   7.016  10.231  0.00  0.00    -0.263 NA
ATOM     40  C   UNL     1      14.179   7.970   9.640  0.00  0.00    +0.111 A 
ENDBRANCH   4   3
ENDBRANCH  10   9
BRANCH  12  13
ATOM     13  N   UNL     1       5.872   8.982  17.940  0.00  0.00    -0.281 N 
ATOM     14  C   UNL     1       4.935   8.130  17.378  0.00  0.00    +0.248 C 
ATOM     30  O   UNL     1       4.505   8.231  16.239  0.00  0.00    -0.270 OA
ATOM     31  H   UNL     1       5.996   8.908  18.950  0.00  0.00    +0.155 HD
BRANCH  14  15
ATOM     15  C   UNL     1       4.385   7.014  18.207  0.00  0.00    +0.037 A 
ATOM     16  C   UNL     1       4.723   6.883  19.626  0.00  0.00    +0.013 A 
ATOM     17  C   UNL     1       4.193   5.788  20.398  0.00  0.00    +0.005 A 
ATOM     18  C   UNL     1       3.316   4.814  19.751  0.00  0.00    -0.033 A 
ATOM     28  C   UNL     1       2.993   4.971  18.343  0.00  0.00    +0.005 A 
ATOM     29  C   UNL     1       3.511   6.043  17.583  0.00  0.00    +0.013 A 
BRANCH  18  19
ATOM     19  C   UNL     1       2.722   3.602  20.492  0.00  0.00    +0.119 C 
BRANCH  19  20
ATOM     20  N   UNL     1       1.315   3.223  20.164  0.00  0.00    -0.302 NA
ATOM     21  C   UNL     1       0.356   4.410  20.288  0.00  0.00    +0.066 C 
ATOM     22  C   UNL     1      -1.107   4.000  19.919  0.00  0.00    -0.064 C 
ATOM     23  N   UNL     1      -1.554   2.847  20.819  0.00  0.00    +0.379 N 
ATOM     24  C   UNL     1      -2.949   2.498  20.515  0.00  0.00    -0.096 C 
ATOM     25  H   UNL     1      -1.518   3.209  21.873  0.00  0.00    -0.082 HD
ATOM     26  C   UNL     1      -0.604   1.664  20.705  0.00  0.00    -0.064 C 
ATOM     27  C   UNL     1       0.852   2.088  21.045  0.00  0.00    +0.066 C 
ENDBRANCH  19  20
ENDBRANCH  18  19
ENDBRANCH  14  15
ENDBRANCH  12  13
TORSDOF 6
ENDMDL
