MODEL 1
REMARK VINA RESULT:      -8.0      0.000      0.000
REMARK  Name = C:\Users\Docking\Desktop\test protocol\1iep_ligandH.pdb
REMARK  8 active torsions:
REMARK  status: ('A' for Active; 'I' for Inactive)
REMARK    1  A    between atoms: _5  and  _11
REMARK    2  A    between atoms: _19  and  _21
REMARK    3  A    between atoms: _22  and  _66
REMARK    4  A    between atoms: _27  and  _30
REMARK    5  A    between atoms: _32  and  _33
REMARK    6  A    between atoms: _38  and  _43
REMARK    7  A    between atoms: _43  and  _46
REMARK    8  A    between atoms: _53  and  _55
REMARK                            x       y       z     vdW  Elec       q    Type
REMARK                         _______ _______ _______ _____ _____    ______ ____
ROOT
ATOM     10  C   UNL     1     120.210  51.537  84.387  0.00  0.00    +0.038 A 
ATOM     11  C   UNL     1     120.386  50.141  84.564  0.00  0.00    +0.047 A 
ATOM     12  C   UNL     1     121.597  49.605  85.167  0.00  0.00    +0.035 A 
ATOM     32  C   UNL     1     122.608  50.522  85.581  0.00  0.00    +0.024 A 
ATOM     33  C   UNL     1     122.445  51.944  85.407  0.00  0.00    +0.007 A 
ATOM     34  C   UNL     1     121.254  52.477  84.811  0.00  0.00    -0.029 A 
ATOM     35  C   UNL     1     121.137  54.010  84.644  0.00  0.00    +0.045 C 
ENDROOT
BRANCH  10   9
ATOM      4  C   UNL     1     115.809  53.433  84.665  0.00  0.00    +0.077 A 
ATOM      5  C   UNL     1     115.860  53.489  86.098  0.00  0.00    +0.048 A 
ATOM      6  C   UNL     1     117.034  53.014  86.725  0.00  0.00    +0.116 A 
ATOM      7  N   UNL     1     118.073  52.521  85.966  0.00  0.00    -0.223 NA
ATOM      8  C   UNL     1     117.991  52.479  84.586  0.00  0.00    +0.220 A 
ATOM      9  N   UNL     1     119.027  51.995  83.803  0.00  0.00    -0.283 N 
ATOM     36  H   UNL     1     118.925  51.975  82.788  0.00  0.00    +0.155 HD
ATOM     37  N   UNL     1     116.880  52.926  83.964  0.00  0.00    -0.214 NA
BRANCH   4   3
ATOM      1  C   UNL     1     112.593  55.335  83.508  0.00  0.00    +0.020 A 
ATOM      2  C   UNL     1     113.708  54.918  84.328  0.00  0.00    +0.013 A 
ATOM      3  C   UNL     1     114.639  53.900  83.858  0.00  0.00    +0.019 A 
ATOM     38  C   UNL     1     114.413  53.320  82.542  0.00  0.00    +0.120 A 
ATOM     39  N   UNL     1     113.330  53.740  81.776  0.00  0.00    -0.263 NA
ATOM     40  C   UNL     1     112.427  54.718  82.219  0.00  0.00    +0.111 A 
ENDBRANCH   4   3
ENDBRANCH  10   9
BRANCH  12  13
ATOM     13  N   UNL     1     121.836  48.197  85.365  0.00  0.00    -0.281 N 
ATOM     14  C   UNL     1     121.054  47.291  86.062  0.00  0.00    +0.248 C 
ATOM     30  O   UNL     1     120.135  47.600  86.806  0.00  0.00    -0.270 OA
ATOM     31  H   UNL     1     122.684  47.823  84.939  0.00  0.00    +0.155 HD
BRANCH  14  15
ATOM     15  C   UNL     1     121.344  45.831  85.924  0.00  0.00    +0.037 A 
ATOM     16  C   UNL     1     122.028  45.301  84.742  0.00  0.00    +0.013 A 
ATOM     17  C   UNL     1     122.281  43.886  84.627  0.00  0.00    +0.005 A 
ATOM     18  C   UNL     1     121.849  42.992  85.698  0.00  0.00    -0.033 A 
ATOM     28  C   UNL     1     121.178  43.546  86.862  0.00  0.00    +0.005 A 
ATOM     29  C   UNL     1     120.928  44.931  86.979  0.00  0.00    +0.013 A 
BRANCH  18  19
ATOM     19  C   UNL     1     122.058  41.467  85.650  0.00  0.00    +0.119 C 
BRANCH  19  20
ATOM     20  N   UNL     1     123.437  40.974  85.356  0.00  0.00    -0.302 NA
ATOM     21  C   UNL     1     123.561  40.432  83.929  0.00  0.00    +0.066 C 
ATOM     22  C   UNL     1     125.016  39.942  83.631  0.00  0.00    -0.064 C 
ATOM     23  N   UNL     1     125.411  38.874  84.653  0.00  0.00    +0.379 N 
ATOM     24  C   UNL     1     126.756  38.370  84.340  0.00  0.00    -0.096 C 
ATOM     25  H   UNL     1     124.697  38.024  84.546  0.00  0.00    -0.082 HD
ATOM     26  C   UNL     1     125.287  39.404  86.074  0.00  0.00    -0.064 C 
ATOM     27  C   UNL     1     123.846  39.916  86.350  0.00  0.00    +0.066 C 
ENDBRANCH  19  20
ENDBRANCH  18  19
ENDBRANCH  14  15
ENDBRANCH  12  13
TORSDOF 6
ENDMDL
MODEL 2
REMARK VINA RESULT:      -7.9     19.071     21.296
REMARK  Name = C:\Users\Docking\Desktop\test protocol\1iep_ligandH.pdb
REMARK  8 active torsions:
REMARK  status: ('A' for Active; 'I' for Inactive)
REMARK    1  A    between atoms: _5  and  _11
REMARK    2  A    between atoms: _19  and  _21
REMARK    3  A    between atoms: _22  and  _66
REMARK    4  A    between atoms: _27  and  _30
REMARK    5  A    between atoms: _32  and  _33
REMARK    6  A    between atoms: _38  and  _43
REMARK    7  A    between atoms: _43  and  _46
REMARK    8  A    between atoms: _53  and  _55
REMARK                            x       y       z     vdW  Elec       q    Type
REMARK                         _______ _______ _______ _____ _____    ______ ____
ROOT
ATOM     10  C   UNL     1     130.479  31.956  83.234  0.00  0.00    +0.038 A 
ATOM     11  C   UNL     1     129.248  31.253  83.204  0.00  0.00    +0.047 A 
ATOM     12  C   UNL     1     128.956  30.205  84.169  0.00  0.00    +0.035 A 
ATOM     32  C   UNL     1     129.941  29.899  85.153  0.00  0.00    +0.024 A 
ATOM     33  C   UNL     1     131.199  30.602  85.197  0.00  0.00    +0.007 A 
ATOM     34  C   UNL     1     131.493  31.636  84.246  0.00  0.00    -0.029 A 
ATOM     35  C   UNL     1     132.861  32.352  84.337  0.00  0.00    +0.045 C 
ENDROOT
BRANCH  10   9
ATOM      4  C   UNL     1     131.802  33.406  78.854  0.00  0.00    +0.077 A 
ATOM      5  C   UNL     1     132.090  32.065  78.432  0.00  0.00    +0.048 A 
ATOM      6  C   UNL     1     131.891  31.032  79.375  0.00  0.00    +0.116 A 
ATOM      7  N   UNL     1     131.438  31.329  80.642  0.00  0.00    -0.223 NA
ATOM      8  C   UNL     1     131.171  32.633  81.017  0.00  0.00    +0.220 A 
ATOM      9  N   UNL     1     130.707  32.953  82.283  0.00  0.00    -0.283 N 
ATOM     36  H   UNL     1     130.529  33.928  82.523  0.00  0.00    +0.155 HD
ATOM     37  N   UNL     1     131.354  33.638  80.135  0.00  0.00    -0.214 NA
BRANCH   4   3
ATOM      1  C   UNL     1     132.892  35.783  75.945  0.00  0.00    +0.020 A 
ATOM      2  C   UNL     1     132.774  34.598  76.763  0.00  0.00    +0.013 A 
ATOM      3  C   UNL     1     131.959  34.605  77.971  0.00  0.00    +0.019 A 
ATOM     38  C   UNL     1     131.270  35.837  78.326  0.00  0.00    +0.120 A 
ATOM     39  N   UNL     1     131.404  36.963  77.520  0.00  0.00    -0.263 NA
ATOM     40  C   UNL     1     132.186  36.969  76.356  0.00  0.00    +0.111 A 
ENDBRANCH   4   3
ENDBRANCH  10   9
BRANCH  12  13
ATOM     13  N   UNL     1     127.726  29.452  84.183  0.00  0.00    -0.281 N 
ATOM     14  C   UNL     1     126.563  29.734  84.881  0.00  0.00    +0.248 C 
ATOM     30  O   UNL     1     126.476  30.566  85.772  0.00  0.00    -0.270 OA
ATOM     31  H   UNL     1     127.711  28.609  83.609  0.00  0.00    +0.155 HD
BRANCH  14  15
ATOM     15  C   UNL     1     125.321  28.971  84.552  0.00  0.00    +0.037 A 
ATOM     16  C   UNL     1     124.164  29.629  83.939  0.00  0.00    +0.013 A 
ATOM     17  C   UNL     1     122.972  28.873  83.648  0.00  0.00    +0.005 A 
ATOM     18  C   UNL     1     122.931  27.448  83.968  0.00  0.00    -0.033 A 
ATOM     28  C   UNL     1     124.095  26.819  84.571  0.00  0.00    +0.005 A 
ATOM     29  C   UNL     1     125.265  27.557  84.859  0.00  0.00    +0.013 A 
BRANCH  18  19
ATOM     19  C   UNL     1     121.693  26.569  83.711  0.00  0.00    +0.119 C 
BRANCH  19  20
ATOM     20  N   UNL     1     120.454  27.254  83.237  0.00  0.00    -0.302 NA
ATOM     21  C   UNL     1     119.556  27.686  84.399  0.00  0.00    +0.066 C 
ATOM     22  C   UNL     1     118.275  28.421  83.886  0.00  0.00    -0.064 C 
ATOM     23  N   UNL     1     117.515  27.504  82.926  0.00  0.00    +0.379 N 
ATOM     24  C   UNL     1     116.280  28.170  82.487  0.00  0.00    -0.096 C 
ATOM     25  H   UNL     1     117.223  26.589  83.492  0.00  0.00    -0.082 HD
ATOM     26  C   UNL     1     118.401  27.068  81.768  0.00  0.00    -0.064 C 
ATOM     27  C   UNL     1     119.685  26.365  82.290  0.00  0.00    +0.066 C 
ENDBRANCH  19  20
ENDBRANCH  18  19
ENDBRANCH  14  15
ENDBRANCH  12  13
TORSDOF 6
ENDMDL
MODEL 3
REMARK VINA RESULT:      -7.1     19.992     24.002
REMARK  Name = C:\Users\Docking\Desktop\test protocol\1iep_ligandH.pdb
REMARK  8 active torsions:
REMARK  status: ('A' for Active; 'I' for Inactive)
REMARK    1  A    between atoms: _5  and  _11
REMARK    2  A    between atoms: _19  and  _21
REMARK    3  A    between atoms: _22  and  _66
REMARK    4  A    between atoms: _27  and  _30
REMARK    5  A    between atoms: _32  and  _33
REMARK    6  A    between atoms: _38  and  _43
REMARK    7  A    between atoms: _43  and  _46
REMARK    8  A    between atoms: _53  and  _55
REMARK                            x       y       z     vdW  Elec       q    Type
REMARK                         _______ _______ _______ _____ _____    ______ ____
ROOT
ATOM     10  C   UNL     1     133.866  47.289  65.745  0.00  0.00    +0.038 A 
ATOM     11  C   UNL     1     133.720  47.935  66.999  0.00  0.00    +0.047 A 
ATOM     12  C   UNL     1     134.120  49.321  67.183  0.00  0.00    +0.035 A 
ATOM     32  C   UNL     1     134.665  50.021  66.067  0.00  0.00    +0.024 A 
ATOM     33  C   UNL     1     134.822  49.379  64.785  0.00  0.00    +0.007 A 
ATOM     34  C   UNL     1     134.431  48.011  64.599  0.00  0.00    -0.029 A 
ATOM     35  C   UNL     1     134.628  47.372  63.204  0.00  0.00    +0.045 C 
ENDROOT
BRANCH  10   9
ATOM      4  C   UNL     1     130.502  43.920  65.138  0.00  0.00    +0.077 A 
ATOM      5  C   UNL     1     129.452  44.895  65.082  0.00  0.00    +0.048 A 
ATOM      6  C   UNL     1     129.818  46.252  65.221  0.00  0.00    +0.116 A 
ATOM      7  N   UNL     1     131.140  46.597  65.401  0.00  0.00    -0.223 NA
ATOM      8  C   UNL     1     132.129  45.632  65.452  0.00  0.00    +0.220 A 
ATOM      9  N   UNL     1     133.465  45.956  65.625  0.00  0.00    -0.283 N 
ATOM     36  H   UNL     1     134.163  45.214  65.665  0.00  0.00    +0.155 HD
ATOM     37  N   UNL     1     131.804  44.328  65.324  0.00  0.00    -0.214 NA
BRANCH   4   3
ATOM      1  C   UNL     1     128.787  40.433  64.685  0.00  0.00    +0.020 A 
ATOM      2  C   UNL     1     128.953  41.863  64.809  0.00  0.00    +0.013 A 
ATOM      3  C   UNL     1     130.274  42.446  65.004  0.00  0.00    +0.019 A 
ATOM     38  C   UNL     1     131.417  41.547  65.070  0.00  0.00    +0.120 A 
ATOM     39  N   UNL     1     131.227  40.174  64.949  0.00  0.00    -0.263 NA
ATOM     40  C   UNL     1     129.959  39.602  64.762  0.00  0.00    +0.111 A 
ENDBRANCH   4   3
ENDBRANCH  10   9
BRANCH  12  13
ATOM     13  N   UNL     1     134.003  50.027  68.435  0.00  0.00    -0.281 N 
ATOM     14  C   UNL     1     134.935  50.113  69.455  0.00  0.00    +0.248 C 
ATOM     30  O   UNL     1     135.935  49.414  69.538  0.00  0.00    -0.270 OA
ATOM     31  H   UNL     1     133.125  50.525  68.587  0.00  0.00    +0.155 HD
BRANCH  14  15
ATOM     15  C   UNL     1     134.719  51.108  70.549  0.00  0.00    +0.037 A 
ATOM     16  C   UNL     1     134.962  52.537  70.336  0.00  0.00    +0.013 A 
ATOM     17  C   UNL     1     134.763  53.473  71.413  0.00  0.00    +0.005 A 
ATOM     18  C   UNL     1     134.315  52.983  72.715  0.00  0.00    -0.033 A 
ATOM     28  C   UNL     1     134.077  51.561  72.897  0.00  0.00    +0.005 A 
ATOM     29  C   UNL     1     134.272  50.640  71.844  0.00  0.00    +0.013 A 
BRANCH  18  19
ATOM     19  C   UNL     1     134.097  53.907  73.927  0.00  0.00    +0.119 C 
BRANCH  19  20
ATOM     20  N   UNL     1     134.892  55.171  73.975  0.00  0.00    -0.302 NA
ATOM     21  C   UNL     1     135.401  55.475  75.387  0.00  0.00    +0.066 C 
ATOM     22  C   UNL     1     136.250  56.788  75.415  0.00  0.00    -0.064 C 
ATOM     23  N   UNL     1     135.407  57.948  74.882  0.00  0.00    +0.379 N 
ATOM     24  C   UNL     1     136.183  59.194  74.962  0.00  0.00    -0.096 C 
ATOM     25  H   UNL     1     134.522  58.057  75.550  0.00  0.00    -0.082 HD
ATOM     26  C   UNL     1     134.894  57.652  73.480  0.00  0.00    -0.064 C 
ATOM     27  C   UNL     1     134.077  56.330  73.457  0.00  0.00    +0.066 C 
ENDBRANCH  19  20
ENDBRANCH  18  19
ENDBRANCH  14  15
ENDBRANCH  12  13
TORSDOF 6
ENDMDL
MODEL 4
REMARK VINA RESULT:      -7.1     12.053     16.069
REMARK  Name = C:\Users\Docking\Desktop\test protocol\1iep_ligandH.pdb
REMARK  8 active torsions:
REMARK  status: ('A' for Active; 'I' for Inactive)
REMARK    1  A    between atoms: _5  and  _11
REMARK    2  A    between atoms: _19  and  _21
REMARK    3  A    between atoms: _22  and  _66
REMARK    4  A    between atoms: _27  and  _30
REMARK    5  A    between atoms: _32  and  _33
REMARK    6  A    between atoms: _38  and  _43
REMARK    7  A    between atoms: _43  and  _46
REMARK    8  A    between atoms: _53  and  _55
REMARK                            x       y       z     vdW  Elec       q    Type
REMARK                         _______ _______ _______ _____ _____    ______ ____
ROOT
ATOM     10  C   UNL     1     108.995  39.962  90.206  0.00  0.00    +0.038 A 
ATOM     11  C   UNL     1     110.263  40.454  89.803  0.00  0.00    +0.047 A 
ATOM     12  C   UNL     1     110.441  41.844  89.413  0.00  0.00    +0.035 A 
ATOM     32  C   UNL     1     109.306  42.705  89.446  0.00  0.00    +0.024 A 
ATOM     33  C   UNL     1     108.010  42.222  89.852  0.00  0.00    +0.007 A 
ATOM     34  C   UNL     1     107.828  40.851  90.236  0.00  0.00    -0.029 A 
ATOM     35  C   UNL     1     106.414  40.385  90.656  0.00  0.00    +0.045 C 
ENDROOT
BRANCH  10   9
ATOM      4  C   UNL     1     109.286  36.410  93.422  0.00  0.00    +0.077 A 
ATOM      5  C   UNL     1     109.727  37.302  94.455  0.00  0.00    +0.048 A 
ATOM      6  C   UNL     1     109.874  38.666  94.116  0.00  0.00    +0.116 A 
ATOM      7  N   UNL     1     109.596  39.095  92.836  0.00  0.00    -0.223 NA
ATOM      8  C   UNL     1     109.174  38.208  91.863  0.00  0.00    +0.220 A 
ATOM      9  N   UNL     1     108.882  38.618  90.571  0.00  0.00    -0.283 N 
ATOM     36  H   UNL     1     108.580  37.932  89.880  0.00  0.00    +0.155 HD
ATOM     37  N   UNL     1     109.028  36.900  92.161  0.00  0.00    -0.214 NA
BRANCH   4   3
ATOM      1  C   UNL     1     109.663  32.728  94.687  0.00  0.00    +0.020 A 
ATOM      2  C   UNL     1     109.904  34.143  94.525  0.00  0.00    +0.013 A 
ATOM      3  C   UNL     1     109.080  34.941  93.626  0.00  0.00    +0.019 A 
ATOM     38  C   UNL     1     108.012  34.272  92.900  0.00  0.00    +0.120 A 
ATOM     39  N   UNL     1     107.804  32.907  93.074  0.00  0.00    -0.263 NA
ATOM     40  C   UNL     1     108.592  32.128  93.936  0.00  0.00    +0.111 A 
ENDBRANCH   4   3
ENDBRANCH  10   9
BRANCH  12  13
ATOM     13  N   UNL     1     111.702  42.398  88.987  0.00  0.00    -0.281 N 
ATOM     14  C   UNL     1     111.966  43.134  87.843  0.00  0.00    +0.248 C 
ATOM     30  O   UNL     1     111.197  43.245  86.900  0.00  0.00    -0.270 OA
ATOM     31  H   UNL     1     112.496  42.228  89.604  0.00  0.00    +0.155 HD
BRANCH  14  15
ATOM     15  C   UNL     1     113.281  43.835  87.723  0.00  0.00    +0.037 A 
ATOM     16  C   UNL     1     114.424  43.199  87.064  0.00  0.00    +0.013 A 
ATOM     17  C   UNL     1     115.686  43.891  86.977  0.00  0.00    +0.005 A 
ATOM     18  C   UNL     1     115.810  45.229  87.551  0.00  0.00    -0.033 A 
ATOM     28  C   UNL     1     114.658  45.838  88.195  0.00  0.00    +0.005 A 
ATOM     29  C   UNL     1     113.420  45.163  88.283  0.00  0.00    +0.013 A 
BRANCH  18  19
ATOM     19  C   UNL     1     117.123  46.033  87.523  0.00  0.00    +0.119 C 
BRANCH  19  20
ATOM     20  N   UNL     1     117.241  47.115  86.501  0.00  0.00    -0.302 NA
ATOM     21  C   UNL     1     117.704  46.576  85.144  0.00  0.00    +0.066 C 
ATOM     22  C   UNL     1     117.801  47.718  84.081  0.00  0.00    -0.064 C 
ATOM     23  N   UNL     1     118.753  48.803  84.586  0.00  0.00    +0.379 N 
ATOM     24  C   UNL     1     118.891  49.850  83.563  0.00  0.00    -0.096 C 
ATOM     25  H   UNL     1     119.755  48.334  84.728  0.00  0.00    -0.082 HD
ATOM     26  C   UNL     1     118.301  49.342  85.936  0.00  0.00    -0.064 C 
ATOM     27  C   UNL     1     118.181  48.195  86.977  0.00  0.00    +0.066 C 
ENDBRANCH  19  20
ENDBRANCH  18  19
ENDBRANCH  14  15
ENDBRANCH  12  13
TORSDOF 6
ENDMDL
MODEL 5
REMARK VINA RESULT:      -7.0     11.681     15.022
REMARK  Name = C:\Users\Docking\Desktop\test protocol\1iep_ligandH.pdb
REMARK  8 active torsions:
REMARK  status: ('A' for Active; 'I' for Inactive)
REMARK    1  A    between atoms: _5  and  _11
REMARK    2  A    between atoms: _19  and  _21
REMARK    3  A    between atoms: _22  and  _66
REMARK    4  A    between atoms: _27  and  _30
REMARK    5  A    between atoms: _32  and  _33
REMARK    6  A    between atoms: _38  and  _43
REMARK    7  A    between atoms: _43  and  _46
REMARK    8  A    between atoms: _53  and  _55
REMARK                            x       y       z     vdW  Elec       q    Type
REMARK                         _______ _______ _______ _____ _____    ______ ____
ROOT
ATOM     10  C   UNL     1     108.897  41.285  90.132  0.00  0.00    +0.038 A 
ATOM     11  C   UNL     1     110.200  41.706  89.764  0.00  0.00    +0.047 A 
ATOM     12  C   UNL     1     110.548  43.118  89.713  0.00  0.00    +0.035 A 
ATOM     32  C   UNL     1     109.545  44.073  90.047  0.00  0.00    +0.024 A 
ATOM     33  C   UNL     1     108.215  43.662  90.423  0.00  0.00    +0.007 A 
ATOM     34  C   UNL     1     107.865  42.272  90.472  0.00  0.00    -0.029 A 
ATOM     35  C   UNL     1     106.422  41.889  90.876  0.00  0.00    +0.045 C 
ENDROOT
BRANCH  10   9
ATOM      4  C   UNL     1     108.983  36.997  92.288  0.00  0.00    +0.077 A 
ATOM      5  C   UNL     1     109.666  37.521  93.435  0.00  0.00    +0.048 A 
ATOM      6  C   UNL     1     109.984  38.898  93.428  0.00  0.00    +0.116 A 
ATOM      7  N   UNL     1     109.639  39.683  92.349  0.00  0.00    -0.223 NA
ATOM      8  C   UNL     1     108.982  39.145  91.257  0.00  0.00    +0.220 A 
ATOM      9  N   UNL     1     108.618  39.917  90.165  0.00  0.00    -0.283 N 
ATOM     36  H   UNL     1     108.141  39.481  89.376  0.00  0.00    +0.155 HD
ATOM     37  N   UNL     1     108.669  37.832  91.239  0.00  0.00    -0.214 NA
BRANCH   4   3
ATOM      1  C   UNL     1     108.697  33.130  92.806  0.00  0.00    +0.020 A 
ATOM      2  C   UNL     1     109.124  34.499  92.981  0.00  0.00    +0.013 A 
ATOM      3  C   UNL     1     108.577  35.563  92.148  0.00  0.00    +0.019 A 
ATOM     38  C   UNL     1     107.592  35.204  91.139  0.00  0.00    +0.120 A 
ATOM     39  N   UNL     1     107.201  33.877  90.991  0.00  0.00    -0.263 NA
ATOM     40  C   UNL     1     107.722  32.845  91.786  0.00  0.00    +0.111 A 
ENDBRANCH   4   3
ENDBRANCH  10   9
BRANCH  12  13
ATOM     13  N   UNL     1     111.852  43.606  89.338  0.00  0.00    -0.281 N 
ATOM     14  C   UNL     1     112.310  43.925  88.070  0.00  0.00    +0.248 C 
ATOM     30  O   UNL     1     111.731  43.635  87.033  0.00  0.00    -0.270 OA
ATOM     31  H   UNL     1     112.519  43.731  90.099  0.00  0.00    +0.155 HD
BRANCH  14  15
ATOM     15  C   UNL     1     113.604  44.660  87.933  0.00  0.00    +0.037 A 
ATOM     16  C   UNL     1     113.709  46.082  88.268  0.00  0.00    +0.013 A 
ATOM     17  C   UNL     1     114.965  46.772  88.110  0.00  0.00    +0.005 A 
ATOM     18  C   UNL     1     116.128  46.038  87.616  0.00  0.00    -0.033 A 
ATOM     28  C   UNL     1     115.997  44.626  87.296  0.00  0.00    +0.005 A 
ATOM     29  C   UNL     1     114.767  43.947  87.448  0.00  0.00    +0.013 A 
BRANCH  18  19
ATOM     19  C   UNL     1     117.502  46.697  87.397  0.00  0.00    +0.119 C 
BRANCH  19  20
ATOM     20  N   UNL     1     118.622  45.814  86.953  0.00  0.00    -0.302 NA
ATOM     21  C   UNL     1     119.827  45.897  87.894  0.00  0.00    +0.066 C 
ATOM     22  C   UNL     1     120.980  44.950  87.428  0.00  0.00    -0.064 C 
ATOM     23  N   UNL     1     121.384  45.310  85.997  0.00  0.00    +0.379 N 
ATOM     24  C   UNL     1     122.507  44.460  85.576  0.00  0.00    -0.096 C 
ATOM     25  H   UNL     1     121.742  46.366  86.002  0.00  0.00    -0.082 HD
ATOM     26  C   UNL     1     120.191  45.232  85.055  0.00  0.00    -0.064 C 
ATOM     27  C   UNL     1     119.040  46.155  85.544  0.00  0.00    +0.066 C 
ENDBRANCH  19  20
ENDBRANCH  18  19
ENDBRANCH  14  15
ENDBRANCH  12  13
TORSDOF 6
ENDMDL
