MODEL 1
REMARK VINA RESULT:      -8.0      0.000      0.000
REMARK  Name = C:\Users\Docking\Desktop\test protocol\1iep_ligandH.pdb
REMARK  8 active torsions:
REMARK  status: ('A' for Active; 'I' for Inactive)
REMARK    1  A    between atoms: _5  and  _11
REMARK    2  A    between atoms: _19  and  _21
REMARK    3  A    between atoms: _22  and  _66
REMARK    4  A    between atoms: _27  and  _30
REMARK    5  A    between atoms: _32  and  _33
REMARK    6  A    between atoms: _38  and  _43
REMARK    7  A    between atoms: _43  and  _46
REMARK    8  A    between atoms: _53  and  _55
REMARK                            x       y       z     vdW  Elec       q    Type
REMARK                         _______ _______ _______ _____ _____    ______ ____
ROOT
ATOM     10  C   UNL     1      28.577   4.627   4.534  0.00  0.00    +0.038 A 
ATOM     11  C   UNL     1      27.787   3.945   3.573  0.00  0.00    +0.047 A 
ATOM     12  C   UNL     1      27.309   2.592   3.815  0.00  0.00    +0.035 A 
ATOM     32  C   UNL     1      27.652   1.965   5.048  0.00  0.00    +0.024 A 
ATOM     33  C   UNL     1      28.454   2.644   6.036  0.00  0.00    +0.007 A 
ATOM     34  C   UNL     1      28.930   3.977   5.802  0.00  0.00    -0.029 A 
ATOM     35  C   UNL     1      29.792   4.654   6.893  0.00  0.00    +0.045 C 
ENDROOT
BRANCH  10   9
ATOM      4  C   UNL     1      31.232   7.752   2.040  0.00  0.00    +0.077 A 
ATOM      5  C   UNL     1      31.829   6.710   1.256  0.00  0.00    +0.048 A 
ATOM      6  C   UNL     1      31.431   5.382   1.531  0.00  0.00    +0.116 A 
ATOM      7  N   UNL     1      30.504   5.128   2.518  0.00  0.00    -0.223 NA
ATOM      8  C   UNL     1      29.949   6.156   3.257  0.00  0.00    +0.220 A 
ATOM      9  N   UNL     1      29.009   5.924   4.249  0.00  0.00    -0.283 N 
ATOM     36  H   UNL     1      28.628   6.709   4.777  0.00  0.00    +0.155 HD
ATOM     37  N   UNL     1      30.313   7.433   3.015  0.00  0.00    -0.214 NA
BRANCH   4   3
ATOM      1  C   UNL     1      32.514  11.145   0.575  0.00  0.00    +0.020 A 
ATOM      2  C   UNL     1      32.234   9.733   0.694  0.00  0.00    +0.013 A 
ATOM      3  C   UNL     1      31.548   9.205   1.867  0.00  0.00    +0.019 A 
ATOM     38  C   UNL     1      31.155  10.142   2.910  0.00  0.00    +0.120 A 
ATOM     39  N   UNL     1      31.440  11.496   2.768  0.00  0.00    -0.263 NA
ATOM     40  C   UNL     1      32.101  12.015   1.645  0.00  0.00    +0.111 A 
ENDBRANCH   4   3
ENDBRANCH  10   9
BRANCH  12  13
ATOM     13  N   UNL     1      26.512   1.847   2.873  0.00  0.00    -0.281 N 
ATOM     14  C   UNL     1      26.922   1.256   1.689  0.00  0.00    +0.248 C 
ATOM     30  O   UNL     1      28.000   1.462   1.151  0.00  0.00    -0.270 OA
ATOM     31  H   UNL     1      25.525   1.742   3.108  0.00  0.00    +0.155 HD
BRANCH  14  15
ATOM     15  C   UNL     1      25.996   0.310   0.995  0.00  0.00    +0.037 A 
ATOM     16  C   UNL     1      25.608   0.515  -0.403  0.00  0.00    +0.013 A 
ATOM     17  C   UNL     1      24.699  -0.403  -1.043  0.00  0.00    +0.005 A 
ATOM     18  C   UNL     1      24.174  -1.536  -0.285  0.00  0.00    -0.033 A 
ATOM     28  C   UNL     1      24.580  -1.718   1.098  0.00  0.00    +0.005 A 
ATOM     29  C   UNL     1      25.469  -0.820   1.730  0.00  0.00    +0.013 A 
BRANCH  18  19
ATOM     19  C   UNL     1      23.183  -2.553  -0.882  0.00  0.00    +0.119 C 
BRANCH  19  20
ATOM     20  N   UNL     1      23.327  -3.977  -0.456  0.00  0.00    -0.302 NA
ATOM     21  C   UNL     1      23.902  -4.855  -1.571  0.00  0.00    +0.066 C 
ATOM     22  C   UNL     1      24.067  -6.337  -1.101  0.00  0.00    -0.064 C 
ATOM     23  N   UNL     1      22.713  -6.874  -0.633  0.00  0.00    +0.379 N 
ATOM     24  C   UNL     1      22.852  -8.285  -0.245  0.00  0.00    -0.096 C 
ATOM     25  H   UNL     1      22.013  -6.829  -1.500  0.00  0.00    -0.082 HD
ATOM     26  C   UNL     1      22.132  -6.006   0.474  0.00  0.00    -0.064 C 
ATOM     27  C   UNL     1      22.000  -4.529   0.006  0.00  0.00    +0.066 C 
ENDBRANCH  19  20
ENDBRANCH  18  19
ENDBRANCH  14  15
ENDBRANCH  12  13
TORSDOF 6
ENDMDL
MODEL 2
REMARK VINA RESULT:      -7.8      3.248      5.840
REMARK  Name = C:\Users\Docking\Desktop\test protocol\1iep_ligandH.pdb
REMARK  8 active torsions:
REMARK  status: ('A' for Active; 'I' for Inactive)
REMARK    1  A    between atoms: _5  and  _11
REMARK    2  A    between atoms: _19  and  _21
REMARK    3  A    between atoms: _22  and  _66
REMARK    4  A    between atoms: _27  and  _30
REMARK    5  A    between atoms: _32  and  _33
REMARK    6  A    between atoms: _38  and  _43
REMARK    7  A    between atoms: _43  and  _46
REMARK    8  A    between atoms: _53  and  _55
REMARK                            x       y       z     vdW  Elec       q    Type
REMARK                         _______ _______ _______ _____ _____    ______ ____
ROOT
ATOM     10  C   UNL     1      29.258   2.883   1.799  0.00  0.00    +0.038 A 
ATOM     11  C   UNL     1      28.302   1.874   1.521  0.00  0.00    +0.047 A 
ATOM     12  C   UNL     1      27.948   1.530   0.153  0.00  0.00    +0.035 A 
ATOM     32  C   UNL     1      28.589   2.233  -0.908  0.00  0.00    +0.024 A 
ATOM     33  C   UNL     1      29.562   3.263  -0.643  0.00  0.00    +0.007 A 
ATOM     34  C   UNL     1      29.914   3.608   0.704  0.00  0.00    -0.029 A 
ATOM     35  C   UNL     1      30.959   4.725   0.930  0.00  0.00    +0.045 C 
ENDROOT
BRANCH  10   9
ATOM      4  C   UNL     1      28.144   2.984   6.467  0.00  0.00    +0.077 A 
ATOM      5  C   UNL     1      26.839   2.438   6.228  0.00  0.00    +0.048 A 
ATOM      6  C   UNL     1      26.491   2.152   4.889  0.00  0.00    +0.116 A 
ATOM      7  N   UNL     1      27.389   2.397   3.873  0.00  0.00    -0.223 NA
ATOM      8  C   UNL     1      28.639   2.926   4.138  0.00  0.00    +0.220 A 
ATOM      9  N   UNL     1      29.560   3.173   3.132  0.00  0.00    -0.283 N 
ATOM     36  H   UNL     1      30.469   3.571   3.368  0.00  0.00    +0.155 HD
ATOM     37  N   UNL     1      28.995   3.209   5.408  0.00  0.00    -0.214 NA
BRANCH   4   3
ATOM      1  C   UNL     1      29.418   2.730  10.157  0.00  0.00    +0.020 A 
ATOM      2  C   UNL     1      28.920   2.338   8.859  0.00  0.00    +0.013 A 
ATOM      3  C   UNL     1      28.660   3.335   7.828  0.00  0.00    +0.019 A 
ATOM     38  C   UNL     1      28.918   4.732   8.145  0.00  0.00    +0.120 A 
ATOM     39  N   UNL     1      29.396   5.080   9.405  0.00  0.00    -0.263 NA
ATOM     40  C   UNL     1      29.648   4.129  10.405  0.00  0.00    +0.111 A 
ENDBRANCH   4   3
ENDBRANCH  10   9
BRANCH  12  13
ATOM     13  N   UNL     1      26.978   0.519  -0.191  0.00  0.00    -0.281 N 
ATOM     14  C   UNL     1      25.709   0.342   0.335  0.00  0.00    +0.248 C 
ATOM     30  O   UNL     1      25.293   0.901   1.340  0.00  0.00    -0.270 OA
ATOM     31  H   UNL     1      27.262  -0.147  -0.910  0.00  0.00    +0.155 HD
BRANCH  14  15
ATOM     15  C   UNL     1      24.771  -0.602  -0.344  0.00  0.00    +0.037 A 
ATOM     16  C   UNL     1      24.012  -1.598   0.417  0.00  0.00    +0.013 A 
ATOM     17  C   UNL     1      23.126  -2.508  -0.265  0.00  0.00    +0.005 A 
ATOM     18  C   UNL     1      22.994  -2.425  -1.718  0.00  0.00    -0.033 A 
ATOM     28  C   UNL     1      23.755  -1.424  -2.447  0.00  0.00    +0.005 A 
ATOM     29  C   UNL     1      24.625  -0.531  -1.782  0.00  0.00    +0.013 A 
BRANCH  18  19
ATOM     19  C   UNL     1      22.089  -3.370  -2.531  0.00  0.00    +0.119 C 
BRANCH  19  20
ATOM     20  N   UNL     1      21.059  -4.146  -1.777  0.00  0.00    -0.302 NA
ATOM     21  C   UNL     1      21.561  -5.540  -1.389  0.00  0.00    +0.066 C 
ATOM     22  C   UNL     1      20.479  -6.330  -0.582  0.00  0.00    -0.064 C 
ATOM     23  N   UNL     1      19.198  -6.427  -1.412  0.00  0.00    +0.379 N 
ATOM     24  C   UNL     1      18.198  -7.219  -0.680  0.00  0.00    -0.096 C 
ATOM     25  H   UNL     1      19.444  -6.976  -2.351  0.00  0.00    -0.082 HD
ATOM     26  C   UNL     1      18.694  -5.045  -1.805  0.00  0.00    -0.064 C 
ATOM     27  C   UNL     1      19.787  -4.258  -2.580  0.00  0.00    +0.066 C 
ENDBRANCH  19  20
ENDBRANCH  18  19
ENDBRANCH  14  15
ENDBRANCH  12  13
TORSDOF 6
ENDMDL
MODEL 3
REMARK VINA RESULT:      -7.8      6.126     11.703
REMARK  Name = C:\Users\Docking\Desktop\test protocol\1iep_ligandH.pdb
REMARK  8 active torsions:
REMARK  status: ('A' for Active; 'I' for Inactive)
REMARK    1  A    between atoms: _5  and  _11
REMARK    2  A    between atoms: _19  and  _21
REMARK    3  A    between atoms: _22  and  _66
REMARK    4  A    between atoms: _27  and  _30
REMARK    5  A    between atoms: _32  and  _33
REMARK    6  A    between atoms: _38  and  _43
REMARK    7  A    between atoms: _43  and  _46
REMARK    8  A    between atoms: _53  and  _55
REMARK                            x       y       z     vdW  Elec       q    Type
REMARK                         _______ _______ _______ _____ _____    ______ ____
ROOT
ATOM     10  C   UNL     1      32.362   2.227  -3.812  0.00  0.00    +0.038 A 
ATOM     11  C   UNL     1      31.722   2.191  -2.547  0.00  0.00    +0.047 A 
ATOM     12  C   UNL     1      31.728   3.349  -1.667  0.00  0.00    +0.035 A 
ATOM     32  C   UNL     1      32.393   4.529  -2.109  0.00  0.00    +0.024 A 
ATOM     33  C   UNL     1      33.050   4.584  -3.391  0.00  0.00    +0.007 A 
ATOM     34  C   UNL     1      33.049   3.444  -4.263  0.00  0.00    -0.029 A 
ATOM     35  C   UNL     1      33.775   3.556  -5.624  0.00  0.00    +0.045 C 
ENDROOT
BRANCH  10   9
ATOM      4  C   UNL     1      30.099  -0.779  -6.793  0.00  0.00    +0.077 A 
ATOM      5  C   UNL     1      28.880  -0.027  -6.720  0.00  0.00    +0.048 A 
ATOM      6  C   UNL     1      28.874   1.122  -5.898  0.00  0.00    +0.116 A 
ATOM      7  N   UNL     1      30.009   1.484  -5.207  0.00  0.00    -0.223 NA
ATOM      8  C   UNL     1      31.169   0.736  -5.298  0.00  0.00    +0.220 A 
ATOM      9  N   UNL     1      32.325   1.086  -4.617  0.00  0.00    -0.283 N 
ATOM     36  H   UNL     1      33.157   0.504  -4.705  0.00  0.00    +0.155 HD
ATOM     37  N   UNL     1      31.199  -0.367  -6.075  0.00  0.00    -0.214 NA
BRANCH   4   3
ATOM      1  C   UNL     1      31.270  -4.283  -8.077  0.00  0.00    +0.020 A 
ATOM      2  C   UNL     1      31.148  -3.110  -7.242  0.00  0.00    +0.013 A 
ATOM      3  C   UNL     1      30.264  -2.015  -7.621  0.00  0.00    +0.019 A 
ATOM     38  C   UNL     1      29.510  -2.140  -8.859  0.00  0.00    +0.120 A 
ATOM     39  N   UNL     1      29.649  -3.281  -9.644  0.00  0.00    -0.263 NA
ATOM     40  C   UNL     1      30.498  -4.340  -9.291  0.00  0.00    +0.111 A 
ENDBRANCH   4   3
ENDBRANCH  10   9
BRANCH  12  13
ATOM     13  N   UNL     1      31.102   3.368  -0.368  0.00  0.00    -0.281 N 
ATOM     14  C   UNL     1      29.756   3.514  -0.074  0.00  0.00    +0.248 C 
ATOM     30  O   UNL     1      28.907   3.866  -0.878  0.00  0.00    -0.270 OA
ATOM     31  H   UNL     1      31.727   3.261   0.431  0.00  0.00    +0.155 HD
BRANCH  14  15
ATOM     15  C   UNL     1      29.289   3.243   1.320  0.00  0.00    +0.037 A 
ATOM     16  C   UNL     1      30.074   3.671   2.481  0.00  0.00    +0.013 A 
ATOM     17  C   UNL     1      29.608   3.383   3.815  0.00  0.00    +0.005 A 
ATOM     18  C   UNL     1      28.350   2.663   3.994  0.00  0.00    -0.033 A 
ATOM     28  C   UNL     1      27.589   2.255   2.825  0.00  0.00    +0.005 A 
ATOM     29  C   UNL     1      28.042   2.535   1.516  0.00  0.00    +0.013 A 
BRANCH  18  19
ATOM     19  C   UNL     1      27.787   2.294   5.380  0.00  0.00    +0.119 C 
BRANCH  19  20
ATOM     20  N   UNL     1      28.594   2.690   6.572  0.00  0.00    -0.302 NA
ATOM     21  C   UNL     1      28.353   1.758   7.764  0.00  0.00    +0.066 C 
ATOM     22  C   UNL     1      29.221   2.173   8.996  0.00  0.00    -0.064 C 
ATOM     23  N   UNL     1      28.910   3.623   9.370  0.00  0.00    +0.379 N 
ATOM     24  C   UNL     1      29.683   3.998  10.564  0.00  0.00    -0.096 C 
ATOM     25  H   UNL     1      27.829   3.680   9.635  0.00  0.00    -0.082 HD
ATOM     26  C   UNL     1      29.145   4.556   8.190  0.00  0.00    -0.064 C 
ATOM     27  C   UNL     1      28.300   4.117   6.962  0.00  0.00    +0.066 C 
ENDBRANCH  19  20
ENDBRANCH  18  19
ENDBRANCH  14  15
ENDBRANCH  12  13
TORSDOF 6
ENDMDL
MODEL 4
REMARK VINA RESULT:      -7.7      3.696      4.588
REMARK  Name = C:\Users\Docking\Desktop\test protocol\1iep_ligandH.pdb
REMARK  8 active torsions:
REMARK  status: ('A' for Active; 'I' for Inactive)
REMARK    1  A    between atoms: _5  and  _11
REMARK    2  A    between atoms: _19  and  _21
REMARK    3  A    between atoms: _22  and  _66
REMARK    4  A    between atoms: _27  and  _30
REMARK    5  A    between atoms: _32  and  _33
REMARK    6  A    between atoms: _38  and  _43
REMARK    7  A    between atoms: _43  and  _46
REMARK    8  A    between atoms: _53  and  _55
REMARK                            x       y       z     vdW  Elec       q    Type
REMARK                         _______ _______ _______ _____ _____    ______ ____
ROOT
ATOM     10  C   UNL     1      29.631   3.787   0.271  0.00  0.00    +0.038 A 
ATOM     11  C   UNL     1      28.747   2.750  -0.121  0.00  0.00    +0.047 A 
ATOM     12  C   UNL     1      28.177   1.837   0.857  0.00  0.00    +0.035 A 
ATOM     32  C   UNL     1      28.528   2.010   2.228  0.00  0.00    +0.024 A 
ATOM     33  C   UNL     1      29.426   3.058   2.644  0.00  0.00    +0.007 A 
ATOM     34  C   UNL     1      29.993   3.961   1.683  0.00  0.00    -0.029 A 
ATOM     35  C   UNL     1      30.955   5.062   2.186  0.00  0.00    +0.045 C 
ENDROOT
BRANCH  10   9
ATOM      4  C   UNL     1      32.759   4.804  -3.224  0.00  0.00    +0.077 A 
ATOM      5  C   UNL     1      33.436   3.549  -3.064  0.00  0.00    +0.048 A 
ATOM      6  C   UNL     1      32.953   2.674  -2.066  0.00  0.00    +0.116 A 
ATOM      7  N   UNL     1      31.872   3.036  -1.292  0.00  0.00    -0.223 NA
ATOM      8  C   UNL     1      31.242   4.254  -1.472  0.00  0.00    +0.220 A 
ATOM      9  N   UNL     1      30.149   4.636  -0.710  0.00  0.00    -0.283 N 
ATOM     36  H   UNL     1      29.717   5.546  -0.868  0.00  0.00    +0.155 HD
ATOM     37  N   UNL     1      31.686   5.109  -2.417  0.00  0.00    -0.214 NA
BRANCH   4   3
ATOM      1  C   UNL     1      33.893   8.153  -4.898  0.00  0.00    +0.020 A 
ATOM      2  C   UNL     1      33.523   7.196  -3.880  0.00  0.00    +0.013 A 
ATOM      3  C   UNL     1      33.150   5.834  -4.238  0.00  0.00    +0.019 A 
ATOM     38  C   UNL     1      33.161   5.468  -5.646  0.00  0.00    +0.120 A 
ATOM     39  N   UNL     1      33.520   6.411  -6.605  0.00  0.00    -0.263 NA
ATOM     40  C   UNL     1      33.880   7.725  -6.272  0.00  0.00    +0.111 A 
ENDBRANCH   4   3
ENDBRANCH  10   9
BRANCH  12  13
ATOM     13  N   UNL     1      27.280   0.760   0.517  0.00  0.00    -0.281 N 
ATOM     14  C   UNL     1      25.910   0.699   0.714  0.00  0.00    +0.248 C 
ATOM     30  O   UNL     1      25.276   1.477   1.411  0.00  0.00    -0.270 OA
ATOM     31  H   UNL     1      27.707  -0.055   0.077  0.00  0.00    +0.155 HD
BRANCH  14  15
ATOM     15  C   UNL     1      25.134  -0.394   0.053  0.00  0.00    +0.037 A 
ATOM     16  C   UNL     1      24.660  -0.262  -1.327  0.00  0.00    +0.013 A 
ATOM     17  C   UNL     1      23.899  -1.324  -1.936  0.00  0.00    +0.005 A 
ATOM     18  C   UNL     1      23.608  -2.529  -1.164  0.00  0.00    -0.033 A 
ATOM     28  C   UNL     1      24.095  -2.637   0.202  0.00  0.00    +0.005 A 
ATOM     29  C   UNL     1      24.840  -1.597   0.802  0.00  0.00    +0.013 A 
BRANCH  18  19
ATOM     19  C   UNL     1      22.785  -3.704  -1.725  0.00  0.00    +0.119 C 
BRANCH  19  20
ATOM     20  N   UNL     1      22.851  -5.000  -0.986  0.00  0.00    -0.302 NA
ATOM     21  C   UNL     1      23.885  -5.954  -1.591  0.00  0.00    +0.066 C 
ATOM     22  C   UNL     1      23.957  -7.296  -0.792  0.00  0.00    -0.064 C 
ATOM     23  N   UNL     1      22.572  -7.945  -0.766  0.00  0.00    +0.379 N 
ATOM     24  C   UNL     1      22.649  -9.236  -0.065  0.00  0.00    -0.096 C 
ATOM     25  H   UNL     1      22.275  -8.150  -1.820  0.00  0.00    -0.082 HD
ATOM     26  C   UNL     1      21.537  -7.003  -0.168  0.00  0.00    -0.064 C 
ATOM     27  C   UNL     1      21.494  -5.661  -0.951  0.00  0.00    +0.066 C 
ENDBRANCH  19  20
ENDBRANCH  18  19
ENDBRANCH  14  15
ENDBRANCH  12  13
TORSDOF 6
ENDMDL
MODEL 5
REMARK VINA RESULT:      -7.6      5.678      7.799
REMARK  Name = C:\Users\Docking\Desktop\test protocol\1iep_ligandH.pdb
REMARK  8 active torsions:
REMARK  status: ('A' for Active; 'I' for Inactive)
REMARK    1  A    between atoms: _5  and  _11
REMARK    2  A    between atoms: _19  and  _21
REMARK    3  A    between atoms: _22  and  _66
REMARK    4  A    between atoms: _27  and  _30
REMARK    5  A    between atoms: _32  and  _33
REMARK    6  A    between atoms: _38  and  _43
REMARK    7  A    between atoms: _43  and  _46
REMARK    8  A    between atoms: _53  and  _55
REMARK                            x       y       z     vdW  Elec       q    Type
REMARK                         _______ _______ _______ _____ _____    ______ ____
ROOT
ATOM     10  C   UNL     1      28.829   4.910   8.425  0.00  0.00    +0.038 A 
ATOM     11  C   UNL     1      28.894   4.639   7.034  0.00  0.00    +0.047 A 
ATOM     12  C   UNL     1      29.069   3.282   6.540  0.00  0.00    +0.035 A 
ATOM     32  C   UNL     1      29.170   2.224   7.490  0.00  0.00    +0.024 A 
ATOM     33  C   UNL     1      29.106   2.482   8.907  0.00  0.00    +0.007 A 
ATOM     34  C   UNL     1      28.937   3.819   9.401  0.00  0.00    -0.029 A 
ATOM     35  C   UNL     1      28.881   4.038  10.931  0.00  0.00    +0.045 C 
ENDROOT
BRANCH  10   9
ATOM      4  C   UNL     1      30.327   9.454   8.804  0.00  0.00    +0.077 A 
ATOM      5  C   UNL     1      31.562   9.165   8.135  0.00  0.00    +0.048 A 
ATOM      6  C   UNL     1      31.776   7.833   7.714  0.00  0.00    +0.116 A 
ATOM      7  N   UNL     1      30.819   6.870   7.952  0.00  0.00    -0.223 NA
ATOM      8  C   UNL     1      29.640   7.182   8.602  0.00  0.00    +0.220 A 
ATOM      9  N   UNL     1      28.660   6.232   8.844  0.00  0.00    -0.283 N 
ATOM     36  H   UNL     1      27.807   6.500   9.333  0.00  0.00    +0.155 HD
ATOM     37  N   UNL     1      29.412   8.447   9.014  0.00  0.00    -0.214 NA
BRANCH   4   3
ATOM      1  C   UNL     1      30.179  13.327   9.332  0.00  0.00    +0.020 A 
ATOM      2  C   UNL     1      30.577  12.038   8.816  0.00  0.00    +0.013 A 
ATOM      3  C   UNL     1      29.954  10.815   9.305  0.00  0.00    +0.019 A 
ATOM     38  C   UNL     1      28.923  10.932  10.325  0.00  0.00    +0.120 A 
ATOM     39  N   UNL     1      28.561  12.187  10.805  0.00  0.00    -0.263 NA
ATOM     40  C   UNL     1      29.155  13.371  10.343  0.00  0.00    +0.111 A 
ENDBRANCH   4   3
ENDBRANCH  10   9
BRANCH  12  13
ATOM     13  N   UNL     1      29.151   2.947   5.140  0.00  0.00    -0.281 N 
ATOM     14  C   UNL     1      28.135   2.503   4.309  0.00  0.00    +0.248 C 
ATOM     30  O   UNL     1      27.041   2.122   4.698  0.00  0.00    -0.270 OA
ATOM     31  H   UNL     1      30.070   3.049   4.708  0.00  0.00    +0.155 HD
BRANCH  14  15
ATOM     15  C   UNL     1      28.373   2.465   2.834  0.00  0.00    +0.037 A 
ATOM     16  C   UNL     1      29.433   3.264   2.214  0.00  0.00    +0.013 A 
ATOM     17  C   UNL     1      29.630   3.221   0.787  0.00  0.00    +0.005 A 
ATOM     18  C   UNL     1      28.765   2.374  -0.031  0.00  0.00    -0.033 A 
ATOM     28  C   UNL     1      27.724   1.588   0.611  0.00  0.00    +0.005 A 
ATOM     29  C   UNL     1      27.527   1.628   2.010  0.00  0.00    +0.013 A 
BRANCH  18  19
ATOM     19  C   UNL     1      28.889   2.283  -1.563  0.00  0.00    +0.119 C 
BRANCH  19  20
ATOM     20  N   UNL     1      30.231   2.562  -2.158  0.00  0.00    -0.302 NA
ATOM     21  C   UNL     1      30.633   4.031  -2.004  0.00  0.00    +0.066 C 
ATOM     22  C   UNL     1      32.048   4.300  -2.612  0.00  0.00    -0.064 C 
ATOM     23  N   UNL     1      32.055   3.888  -4.085  0.00  0.00    +0.379 N 
ATOM     24  C   UNL     1      33.367   4.193  -4.674  0.00  0.00    -0.096 C 
ATOM     25  H   UNL     1      31.294   4.508  -4.613  0.00  0.00    -0.082 HD
ATOM     26  C   UNL     1      31.653   2.428  -4.246  0.00  0.00    -0.064 C 
ATOM     27  C   UNL     1      30.258   2.166  -3.613  0.00  0.00    +0.066 C 
ENDBRANCH  19  20
ENDBRANCH  18  19
ENDBRANCH  14  15
ENDBRANCH  12  13
TORSDOF 6
ENDMDL
