MODEL 1
REMARK VINA RESULT:     -10.9      0.000      0.000
REMARK  Name = C:\Users\Docking\Desktop\test protocol\1iep_ligandH.pdb
REMARK  8 active torsions:
REMARK  status: ('A' for Active; 'I' for Inactive)
REMARK    1  A    between atoms: _5  and  _11
REMARK    2  A    between atoms: _19  and  _21
REMARK    3  A    between atoms: _22  and  _66
REMARK    4  A    between atoms: _27  and  _30
REMARK    5  A    between atoms: _32  and  _33
REMARK    6  A    between atoms: _38  and  _43
REMARK    7  A    between atoms: _43  and  _46
REMARK    8  A    between atoms: _53  and  _55
REMARK                            x       y       z     vdW  Elec       q    Type
REMARK                         _______ _______ _______ _____ _____    ______ ____
ROOT
ATOM     10  C   UNL     1      -0.414   5.352  19.507  0.00  0.00    +0.038 A 
ATOM     11  C   UNL     1       0.158   4.123  19.925  0.00  0.00    +0.047 A 
ATOM     12  C   UNL     1      -0.470   2.852  19.603  0.00  0.00    +0.035 A 
ATOM     32  C   UNL     1      -1.680   2.868  18.849  0.00  0.00    +0.024 A 
ATOM     33  C   UNL     1      -2.276   4.107  18.416  0.00  0.00    +0.007 A 
ATOM     34  C   UNL     1      -1.662   5.365  18.734  0.00  0.00    -0.029 A 
ATOM     35  C   UNL     1      -2.349   6.662  18.249  0.00  0.00    +0.045 C 
ENDROOT
BRANCH  10   9
ATOM      4  C   UNL     1       2.769   8.836  18.633  0.00  0.00    +0.077 A 
ATOM      5  C   UNL     1       3.202   8.216  17.414  0.00  0.00    +0.048 A 
ATOM      6  C   UNL     1       2.585   6.997  17.051  0.00  0.00    +0.116 A 
ATOM      7  N   UNL     1       1.609   6.449  17.855  0.00  0.00    -0.223 NA
ATOM      8  C   UNL     1       1.216   7.072  19.025  0.00  0.00    +0.220 A 
ATOM      9  N   UNL     1       0.231   6.543  19.844  0.00  0.00    -0.283 N 
ATOM     36  H   UNL     1      -0.025   7.030  20.703  0.00  0.00    +0.155 HD
ATOM     37  N   UNL     1       1.791   8.236  19.394  0.00  0.00    -0.214 NA
BRANCH   4   3
ATOM      1  C   UNL     1       3.657  11.853  20.959  0.00  0.00    +0.020 A 
ATOM      2  C   UNL     1       3.099  10.598  20.510  0.00  0.00    +0.013 A 
ATOM      3  C   UNL     1       3.323  10.127  19.149  0.00  0.00    +0.019 A 
ATOM     38  C   UNL     1       4.123  10.957  18.260  0.00  0.00    +0.120 A 
ATOM     39  N   UNL     1       4.646  12.161  18.720  0.00  0.00    -0.263 NA
ATOM     40  C   UNL     1       4.436  12.625  20.027  0.00  0.00    +0.111 A 
ENDBRANCH   4   3
ENDBRANCH  10   9
BRANCH  12  13
ATOM     13  N   UNL     1       0.061   1.574  20.008  0.00  0.00    -0.281 N 
ATOM     14  C   UNL     1      -0.152   0.903  21.201  0.00  0.00    +0.248 C 
ATOM     30  O   UNL     1      -0.663   1.401  22.192  0.00  0.00    -0.270 OA
ATOM     31  H   UNL     1       0.667   1.107  19.333  0.00  0.00    +0.155 HD
BRANCH  14  15
ATOM     15  C   UNL     1       0.278  -0.525  21.313  0.00  0.00    +0.037 A 
ATOM     16  C   UNL     1       0.752  -1.270  20.144  0.00  0.00    +0.013 A 
ATOM     17  C   UNL     1       1.144  -2.650  20.277  0.00  0.00    +0.005 A 
ATOM     18  C   UNL     1       1.066  -3.295  21.586  0.00  0.00    -0.033 A 
ATOM     28  C   UNL     1       0.597  -2.530  22.730  0.00  0.00    +0.005 A 
ATOM     29  C   UNL     1       0.210  -1.177  22.603  0.00  0.00    +0.013 A 
BRANCH  18  19
ATOM     19  C   UNL     1       1.444  -4.770  21.816  0.00  0.00    +0.119 C 
BRANCH  19  20
ATOM     20  N   UNL     1       0.340  -5.775  21.765  0.00  0.00    -0.302 NA
ATOM     21  C   UNL     1      -0.912  -5.219  21.080  0.00  0.00    +0.066 C 
ATOM     22  C   UNL     1      -2.048  -6.290  21.015  0.00  0.00    -0.064 C 
ATOM     23  N   UNL     1      -2.374  -6.771  22.430  0.00  0.00    +0.379 N 
ATOM     24  C   UNL     1      -3.482  -7.736  22.378  0.00  0.00    -0.096 C 
ATOM     25  H   UNL     1      -2.721  -5.888  23.016  0.00  0.00    -0.082 HD
ATOM     26  C   UNL     1      -1.134  -7.323  23.120  0.00  0.00    -0.064 C 
ATOM     27  C   UNL     1      -0.000  -6.260  23.153  0.00  0.00    +0.066 C 
ENDBRANCH  19  20
ENDBRANCH  18  19
ENDBRANCH  14  15
ENDBRANCH  12  13
TORSDOF 6
ENDMDL
MODEL 2
REMARK VINA RESULT:     -10.7      1.886      2.853
REMARK  Name = C:\Users\Docking\Desktop\test protocol\1iep_ligandH.pdb
REMARK  8 active torsions:
REMARK  status: ('A' for Active; 'I' for Inactive)
REMARK    1  A    between atoms: _5  and  _11
REMARK    2  A    between atoms: _19  and  _21
REMARK    3  A    between atoms: _22  and  _66
REMARK    4  A    between atoms: _27  and  _30
REMARK    5  A    between atoms: _32  and  _33
REMARK    6  A    between atoms: _38  and  _43
REMARK    7  A    between atoms: _43  and  _46
REMARK    8  A    between atoms: _53  and  _55
REMARK                            x       y       z     vdW  Elec       q    Type
REMARK                         _______ _______ _______ _____ _____    ______ ____
ROOT
ATOM     10  C   UNL     1      -0.413   5.411  19.512  0.00  0.00    +0.038 A 
ATOM     11  C   UNL     1       0.176   4.221  20.010  0.00  0.00    +0.047 A 
ATOM     12  C   UNL     1      -0.417   2.920  19.744  0.00  0.00    +0.035 A 
ATOM     32  C   UNL     1      -1.608   2.867  18.964  0.00  0.00    +0.024 A 
ATOM     33  C   UNL     1      -2.221   4.067  18.451  0.00  0.00    +0.007 A 
ATOM     34  C   UNL     1      -1.643   5.354  18.712  0.00  0.00    -0.029 A 
ATOM     35  C   UNL     1      -2.346   6.607  18.143  0.00  0.00    +0.045 C 
ENDROOT
BRANCH  10   9
ATOM      4  C   UNL     1       2.778   8.871  18.571  0.00  0.00    +0.077 A 
ATOM      5  C   UNL     1       3.289   8.170  17.428  0.00  0.00    +0.048 A 
ATOM      6  C   UNL     1       2.708   6.920  17.121  0.00  0.00    +0.116 A 
ATOM      7  N   UNL     1       1.692   6.417  17.904  0.00  0.00    -0.223 NA
ATOM      8  C   UNL     1       1.224   7.117  19.001  0.00  0.00    +0.220 A 
ATOM      9  N   UNL     1       0.198   6.634  19.799  0.00  0.00    -0.283 N 
ATOM     36  H   UNL     1      -0.114   7.177  20.603  0.00  0.00    +0.155 HD
ATOM     37  N   UNL     1       1.763   8.313  19.317  0.00  0.00    -0.214 NA
BRANCH   4   3
ATOM      1  C   UNL     1       3.675  11.972  20.781  0.00  0.00    +0.020 A 
ATOM      2  C   UNL     1       3.166  10.675  20.397  0.00  0.00    +0.013 A 
ATOM      3  C   UNL     1       3.287  10.205  19.023  0.00  0.00    +0.019 A 
ATOM     38  C   UNL     1       3.933  11.077  18.054  0.00  0.00    +0.120 A 
ATOM     39  N   UNL     1       4.411  12.321  18.452  0.00  0.00    -0.263 NA
ATOM     40  C   UNL     1       4.300  12.785  19.771  0.00  0.00    +0.111 A 
ENDBRANCH   4   3
ENDBRANCH  10   9
BRANCH  12  13
ATOM     13  N   UNL     1       0.132   1.678  20.230  0.00  0.00    -0.281 N 
ATOM     14  C   UNL     1      -0.389   0.838  21.201  0.00  0.00    +0.248 C 
ATOM     30  O   UNL     1      -1.304   1.138  21.954  0.00  0.00    -0.270 OA
ATOM     31  H   UNL     1       1.012   1.382  19.807  0.00  0.00    +0.155 HD
BRANCH  14  15
ATOM     15  C   UNL     1       0.199  -0.525  21.368  0.00  0.00    +0.037 A 
ATOM     16  C   UNL     1       0.773  -1.250  20.231  0.00  0.00    +0.013 A 
ATOM     17  C   UNL     1       1.319  -2.571  20.417  0.00  0.00    +0.005 A 
ATOM     18  C   UNL     1       1.294  -3.176  21.747  0.00  0.00    -0.033 A 
ATOM     28  C   UNL     1       0.723  -2.432  22.858  0.00  0.00    +0.005 A 
ATOM     29  C   UNL     1       0.187  -1.138  22.679  0.00  0.00    +0.013 A 
BRANCH  18  19
ATOM     19  C   UNL     1       1.835  -4.589  22.033  0.00  0.00    +0.119 C 
BRANCH  19  20
ATOM     20  N   UNL     1       2.793  -4.738  23.169  0.00  0.00    -0.302 NA
ATOM     21  C   UNL     1       4.249  -4.605  22.713  0.00  0.00    +0.066 C 
ATOM     22  C   UNL     1       5.237  -4.741  23.916  0.00  0.00    -0.064 C 
ATOM     23  N   UNL     1       5.008  -6.083  24.613  0.00  0.00    +0.379 N 
ATOM     24  C   UNL     1       5.974  -6.239  25.709  0.00  0.00    -0.096 C 
ATOM     25  H   UNL     1       5.208  -6.888  23.868  0.00  0.00    -0.082 HD
ATOM     26  C   UNL     1       3.562  -6.224  25.067  0.00  0.00    -0.064 C 
ATOM     27  C   UNL     1       2.587  -6.059  23.868  0.00  0.00    +0.066 C 
ENDBRANCH  19  20
ENDBRANCH  18  19
ENDBRANCH  14  15
ENDBRANCH  12  13
TORSDOF 6
ENDMDL
MODEL 3
REMARK VINA RESULT:     -10.1      5.689     10.508
REMARK  Name = C:\Users\Docking\Desktop\test protocol\1iep_ligandH.pdb
REMARK  8 active torsions:
REMARK  status: ('A' for Active; 'I' for Inactive)
REMARK    1  A    between atoms: _5  and  _11
REMARK    2  A    between atoms: _19  and  _21
REMARK    3  A    between atoms: _22  and  _66
REMARK    4  A    between atoms: _27  and  _30
REMARK    5  A    between atoms: _32  and  _33
REMARK    6  A    between atoms: _38  and  _43
REMARK    7  A    between atoms: _43  and  _46
REMARK    8  A    between atoms: _53  and  _55
REMARK                            x       y       z     vdW  Elec       q    Type
REMARK                         _______ _______ _______ _____ _____    ______ ____
ROOT
ATOM     10  C   UNL     1       8.224  11.280  17.056  0.00  0.00    +0.038 A 
ATOM     11  C   UNL     1       6.934  10.689  17.061  0.00  0.00    +0.047 A 
ATOM     12  C   UNL     1       6.214  10.465  18.304  0.00  0.00    +0.035 A 
ATOM     32  C   UNL     1       6.835  10.858  19.525  0.00  0.00    +0.024 A 
ATOM     33  C   UNL     1       8.146  11.459  19.539  0.00  0.00    +0.007 A 
ATOM     34  C   UNL     1       8.863  11.679  18.315  0.00  0.00    -0.029 A 
ATOM     35  C   UNL     1      10.268  12.321  18.390  0.00  0.00    +0.045 C 
ENDROOT
BRANCH  10   9
ATOM      4  C   UNL     1       9.026  10.126  12.466  0.00  0.00    +0.077 A 
ATOM      5  C   UNL     1       8.099   9.032  12.517  0.00  0.00    +0.048 A 
ATOM      6  C   UNL     1       7.441   8.796  13.746  0.00  0.00    +0.116 A 
ATOM      7  N   UNL     1       7.700   9.600  14.835  0.00  0.00    -0.223 NA
ATOM      8  C   UNL     1       8.601  10.645  14.752  0.00  0.00    +0.220 A 
ATOM      9  N   UNL     1       8.870  11.471  15.832  0.00  0.00    -0.283 N 
ATOM     36  H   UNL     1       9.547  12.227  15.733  0.00  0.00    +0.155 HD
ATOM     37  N   UNL     1       9.243  10.891  13.591  0.00  0.00    -0.214 NA
BRANCH   4   3
ATOM      1  C   UNL     1      10.575  10.097   8.875  0.00  0.00    +0.020 A 
ATOM      2  C   UNL     1       9.816   9.686  10.033  0.00  0.00    +0.013 A 
ATOM      3  C   UNL     1       9.796  10.504  11.239  0.00  0.00    +0.019 A 
ATOM     38  C   UNL     1      10.561  11.742  11.241  0.00  0.00    +0.120 A 
ATOM     39  N   UNL     1      11.285  12.111  10.111  0.00  0.00    -0.263 NA
ATOM     40  C   UNL     1      11.312  11.332   8.945  0.00  0.00    +0.111 A 
ENDBRANCH   4   3
ENDBRANCH  10   9
BRANCH  12  13
ATOM     13  N   UNL     1       4.905   9.863  18.372  0.00  0.00    -0.281 N 
ATOM     14  C   UNL     1       4.327   8.979  17.476  0.00  0.00    +0.248 C 
ATOM     30  O   UNL     1       4.769   8.737  16.362  0.00  0.00    -0.270 OA
ATOM     31  H   UNL     1       4.336  10.119  19.179  0.00  0.00    +0.155 HD
BRANCH  14  15
ATOM     15  C   UNL     1       3.070   8.273  17.867  0.00  0.00    +0.037 A 
ATOM     16  C   UNL     1       2.204   8.794  18.927  0.00  0.00    +0.013 A 
ATOM     17  C   UNL     1       1.005   8.085  19.297  0.00  0.00    +0.005 A 
ATOM     18  C   UNL     1       0.664   6.845  18.603  0.00  0.00    -0.033 A 
ATOM     28  C   UNL     1       1.538   6.352  17.552  0.00  0.00    +0.005 A 
ATOM     29  C   UNL     1       2.715   7.045  17.187  0.00  0.00    +0.013 A 
BRANCH  18  19
ATOM     19  C   UNL     1      -0.584   6.010  18.946  0.00  0.00    +0.119 C 
BRANCH  19  20
ATOM     20  N   UNL     1      -0.378   4.561  19.244  0.00  0.00    -0.302 NA
ATOM     21  C   UNL     1      -1.607   3.929  19.902  0.00  0.00    +0.066 C 
ATOM     22  C   UNL     1      -1.382   2.408  20.186  0.00  0.00    -0.064 C 
ATOM     23  N   UNL     1      -0.145   2.234  21.068  0.00  0.00    +0.379 N 
ATOM     24  C   UNL     1       0.036   0.810  21.384  0.00  0.00    -0.096 C 
ATOM     25  H   UNL     1      -0.335   2.772  22.026  0.00  0.00    -0.082 HD
ATOM     26  C   UNL     1       1.082   2.862  20.422  0.00  0.00    -0.064 C 
ATOM     27  C   UNL     1       0.837   4.367  20.118  0.00  0.00    +0.066 C 
ENDBRANCH  19  20
ENDBRANCH  18  19
ENDBRANCH  14  15
ENDBRANCH  12  13
TORSDOF 6
ENDMDL
MODEL 4
REMARK VINA RESULT:     -10.0      6.625     14.033
REMARK  Name = C:\Users\Docking\Desktop\test protocol\1iep_ligandH.pdb
REMARK  8 active torsions:
REMARK  status: ('A' for Active; 'I' for Inactive)
REMARK    1  A    between atoms: _5  and  _11
REMARK    2  A    between atoms: _19  and  _21
REMARK    3  A    between atoms: _22  and  _66
REMARK    4  A    between atoms: _27  and  _30
REMARK    5  A    between atoms: _32  and  _33
REMARK    6  A    between atoms: _38  and  _43
REMARK    7  A    between atoms: _43  and  _46
REMARK    8  A    between atoms: _53  and  _55
REMARK                            x       y       z     vdW  Elec       q    Type
REMARK                         _______ _______ _______ _____ _____    ______ ____
ROOT
ATOM     10  C   UNL     1       3.619   9.879  18.684  0.00  0.00    +0.038 A 
ATOM     11  C   UNL     1       4.465   9.742  17.553  0.00  0.00    +0.047 A 
ATOM     12  C   UNL     1       5.754  10.413  17.492  0.00  0.00    +0.035 A 
ATOM     32  C   UNL     1       6.151  11.215  18.602  0.00  0.00    +0.024 A 
ATOM     33  C   UNL     1       5.303  11.366  19.758  0.00  0.00    +0.007 A 
ATOM     34  C   UNL     1       4.030  10.708  19.823  0.00  0.00    -0.029 A 
ATOM     35  C   UNL     1       3.160  10.911  21.085  0.00  0.00    +0.045 C 
ENDROOT
BRANCH  10   9
ATOM      4  C   UNL     1       0.970   5.888  18.376  0.00  0.00    +0.077 A 
ATOM      5  C   UNL     1       2.126   5.067  18.159  0.00  0.00    +0.048 A 
ATOM      6  C   UNL     1       3.383   5.711  18.127  0.00  0.00    +0.116 A 
ATOM      7  N   UNL     1       3.466   7.076  18.300  0.00  0.00    -0.223 NA
ATOM      8  C   UNL     1       2.331   7.839  18.505  0.00  0.00    +0.220 A 
ATOM      9  N   UNL     1       2.392   9.211  18.689  0.00  0.00    -0.283 N 
ATOM     36  H   UNL     1       1.532   9.740  18.831  0.00  0.00    +0.155 HD
ATOM     37  N   UNL     1       1.119   7.247  18.539  0.00  0.00    -0.214 NA
BRANCH   4   3
ATOM      1  C   UNL     1      -2.321   4.182  19.625  0.00  0.00    +0.020 A 
ATOM      2  C   UNL     1      -0.964   4.679  19.615  0.00  0.00    +0.013 A 
ATOM      3  C   UNL     1      -0.427   5.354  18.440  0.00  0.00    +0.019 A 
ATOM     38  C   UNL     1      -1.296   5.512  17.283  0.00  0.00    +0.120 A 
ATOM     39  N   UNL     1      -2.597   5.022  17.322  0.00  0.00    -0.263 NA
ATOM     40  C   UNL     1      -3.125   4.369  18.446  0.00  0.00    +0.111 A 
ENDBRANCH   4   3
ENDBRANCH  10   9
BRANCH  12  13
ATOM     13  N   UNL     1       6.651  10.318  16.367  0.00  0.00    -0.281 N 
ATOM     14  C   UNL     1       6.912   9.210  15.578  0.00  0.00    +0.248 C 
ATOM     30  O   UNL     1       6.571   8.070  15.853  0.00  0.00    -0.270 OA
ATOM     31  H   UNL     1       7.155  11.171  16.124  0.00  0.00    +0.155 HD
BRANCH  14  15
ATOM     15  C   UNL     1       7.674   9.394  14.305  0.00  0.00    +0.037 A 
ATOM     16  C   UNL     1       8.754  10.380  14.202  0.00  0.00    +0.013 A 
ATOM     17  C   UNL     1       9.462  10.549  12.958  0.00  0.00    +0.005 A 
ATOM     18  C   UNL     1       9.093   9.728  11.807  0.00  0.00    -0.033 A 
ATOM     28  C   UNL     1       8.022   8.754  11.939  0.00  0.00    +0.005 A 
ATOM     29  C   UNL     1       7.325   8.586  13.156  0.00  0.00    +0.013 A 
BRANCH  18  19
ATOM     19  C   UNL     1       9.780   9.855  10.434  0.00  0.00    +0.119 C 
BRANCH  19  20
ATOM     20  N   UNL     1       9.647   8.703   9.493  0.00  0.00    -0.302 NA
ATOM     21  C   UNL     1      10.978   7.976   9.283  0.00  0.00    +0.066 C 
ATOM     22  C   UNL     1      10.816   6.760   8.314  0.00  0.00    -0.064 C 
ATOM     23  N   UNL     1      10.249   7.248   6.980  0.00  0.00    +0.379 N 
ATOM     24  C   UNL     1      10.149   6.116   6.046  0.00  0.00    -0.096 C 
ATOM     25  H   UNL     1      10.974   7.977   6.551  0.00  0.00    -0.082 HD
ATOM     26  C   UNL     1       8.926   7.974   7.179  0.00  0.00    -0.064 C 
ATOM     27  C   UNL     1       9.093   9.163   8.167  0.00  0.00    +0.066 C 
ENDBRANCH  19  20
ENDBRANCH  18  19
ENDBRANCH  14  15
ENDBRANCH  12  13
TORSDOF 6
ENDMDL
MODEL 5
REMARK VINA RESULT:      -9.8      6.969     11.963
REMARK  Name = C:\Users\Docking\Desktop\test protocol\1iep_ligandH.pdb
REMARK  8 active torsions:
REMARK  status: ('A' for Active; 'I' for Inactive)
REMARK    1  A    between atoms: _5  and  _11
REMARK    2  A    between atoms: _19  and  _21
REMARK    3  A    between atoms: _22  and  _66
REMARK    4  A    between atoms: _27  and  _30
REMARK    5  A    between atoms: _32  and  _33
REMARK    6  A    between atoms: _38  and  _43
REMARK    7  A    between atoms: _43  and  _46
REMARK    8  A    between atoms: _53  and  _55
REMARK                            x       y       z     vdW  Elec       q    Type
REMARK                         _______ _______ _______ _____ _____    ______ ____
ROOT
ATOM     10  C   UNL     1       9.144  12.141  15.648  0.00  0.00    +0.038 A 
ATOM     11  C   UNL     1       7.866  11.531  15.728  0.00  0.00    +0.047 A 
ATOM     12  C   UNL     1       7.333  11.064  16.998  0.00  0.00    +0.035 A 
ATOM     32  C   UNL     1       8.128  11.236  18.168  0.00  0.00    +0.024 A 
ATOM     33  C   UNL     1       9.430  11.853  18.105  0.00  0.00    +0.007 A 
ATOM     34  C   UNL     1       9.962  12.313  16.855  0.00  0.00    -0.029 A 
ATOM     35  C   UNL     1      11.366  12.961  16.845  0.00  0.00    +0.045 C 
ENDROOT
BRANCH  10   9
ATOM      4  C   UNL     1      10.965  11.298  11.287  0.00  0.00    +0.077 A 
ATOM      5  C   UNL     1      11.025   9.884  11.521  0.00  0.00    +0.048 A 
ATOM      6  C   UNL     1      10.584   9.415  12.779  0.00  0.00    +0.116 A 
ATOM      7  N   UNL     1      10.120  10.303  13.725  0.00  0.00    -0.223 NA
ATOM      8  C   UNL     1      10.077  11.661  13.468  0.00  0.00    +0.220 A 
ATOM      9  N   UNL     1       9.607  12.571  14.402  0.00  0.00    -0.283 N 
ATOM     36  H   UNL     1       9.598  13.565  14.177  0.00  0.00    +0.155 HD
ATOM     37  N   UNL     1      10.493  12.134  12.275  0.00  0.00    -0.214 NA
BRANCH   4   3
ATOM      1  C   UNL     1      12.323  13.881   8.682  0.00  0.00    +0.020 A 
ATOM      2  C   UNL     1      11.925  13.302   9.945  0.00  0.00    +0.013 A 
ATOM      3  C   UNL     1      11.391  11.947  10.007  0.00  0.00    +0.019 A 
ATOM     38  C   UNL     1      11.272  11.199   8.764  0.00  0.00    +0.120 A 
ATOM     39  N   UNL     1      11.662  11.784   7.563  0.00  0.00    -0.263 NA
ATOM     40  C   UNL     1      12.176  13.087   7.491  0.00  0.00    +0.111 A 
ENDBRANCH   4   3
ENDBRANCH  10   9
BRANCH  12  13
ATOM     13  N   UNL     1       6.046  10.430  17.139  0.00  0.00    -0.281 N 
ATOM     14  C   UNL     1       5.734   9.090  16.977  0.00  0.00    +0.248 C 
ATOM     30  O   UNL     1       6.479   8.263  16.474  0.00  0.00    -0.270 OA
ATOM     31  H   UNL     1       5.270  11.044  17.389  0.00  0.00    +0.155 HD
BRANCH  14  15
ATOM     15  C   UNL     1       4.394   8.601  17.425  0.00  0.00    +0.037 A 
ATOM     16  C   UNL     1       3.856   7.321  16.957  0.00  0.00    +0.013 A 
ATOM     17  C   UNL     1       2.554   6.881  17.391  0.00  0.00    +0.005 A 
ATOM     18  C   UNL     1       1.781   7.723  18.301  0.00  0.00    -0.033 A 
ATOM     28  C   UNL     1       2.341   8.985  18.755  0.00  0.00    +0.005 A 
ATOM     29  C   UNL     1       3.616   9.420  18.330  0.00  0.00    +0.013 A 
BRANCH  18  19
ATOM     19  C   UNL     1       0.374   7.342  18.800  0.00  0.00    +0.119 C 
BRANCH  19  20
ATOM     20  N   UNL     1       0.066   5.887  18.933  0.00  0.00    -0.302 NA
ATOM     21  C   UNL     1      -1.436   5.607  18.841  0.00  0.00    +0.066 C 
ATOM     22  C   UNL     1      -1.739   4.078  18.959  0.00  0.00    -0.064 C 
ATOM     23  N   UNL     1      -1.169   3.549  20.277  0.00  0.00    +0.379 N 
ATOM     24  C   UNL     1      -1.503   2.124  20.418  0.00  0.00    -0.096 C 
ATOM     25  H   UNL     1      -1.672   4.098  21.107  0.00  0.00    -0.082 HD
ATOM     26  C   UNL     1       0.324   3.825  20.378  0.00  0.00    -0.064 C 
ATOM     27  C   UNL     1       0.616   5.345  20.229  0.00  0.00    +0.066 C 
ENDBRANCH  19  20
ENDBRANCH  18  19
ENDBRANCH  14  15
ENDBRANCH  12  13
TORSDOF 6
ENDMDL
