MODEL 1
REMARK VINA RESULT:      -7.1      0.000      0.000
REMARK  Name = C:\Users\Docking\Desktop\test protocol\1iep_ligandH.pdb
REMARK  8 active torsions:
REMARK  status: ('A' for Active; 'I' for Inactive)
REMARK    1  A    between atoms: _5  and  _11
REMARK    2  A    between atoms: _19  and  _21
REMARK    3  A    between atoms: _22  and  _66
REMARK    4  A    between atoms: _27  and  _30
REMARK    5  A    between atoms: _32  and  _33
REMARK    6  A    between atoms: _38  and  _43
REMARK    7  A    between atoms: _43  and  _46
REMARK    8  A    between atoms: _53  and  _55
REMARK                            x       y       z     vdW  Elec       q    Type
REMARK                         _______ _______ _______ _____ _____    ______ ____
ROOT
ATOM     10  C   UNL     1     -25.336  29.922 -49.145  0.00  0.00    +0.038 A 
ATOM     11  C   UNL     1     -25.851  29.165 -50.228  0.00  0.00    +0.047 A 
ATOM     12  C   UNL     1     -24.978  28.352 -51.060  0.00  0.00    +0.035 A 
ATOM     32  C   UNL     1     -23.585  28.330 -50.758  0.00  0.00    +0.024 A 
ATOM     33  C   UNL     1     -23.044  29.094 -49.662  0.00  0.00    +0.007 A 
ATOM     34  C   UNL     1     -23.901  29.900 -48.839  0.00  0.00    -0.029 A 
ATOM     35  C   UNL     1     -23.265  30.704 -47.681  0.00  0.00    +0.045 C 
ENDROOT
BRANCH  10   9
ATOM      4  C   UNL     1     -28.354  33.612 -48.588  0.00  0.00    +0.077 A 
ATOM      5  C   UNL     1     -28.131  34.074 -49.928  0.00  0.00    +0.048 A 
ATOM      6  C   UNL     1     -27.226  33.337 -50.726  0.00  0.00    +0.116 A 
ATOM      7  N   UNL     1     -26.598  32.224 -50.211  0.00  0.00    -0.223 NA
ATOM      8  C   UNL     1     -26.835  31.807 -48.914  0.00  0.00    +0.220 A 
ATOM      9  N   UNL     1     -26.220  30.685 -48.379  0.00  0.00    -0.283 N 
ATOM     36  H   UNL     1     -26.415  30.415 -47.416  0.00  0.00    +0.155 HD
ATOM     37  N   UNL     1     -27.693  32.494 -48.132  0.00  0.00    -0.214 NA
BRANCH   4   3
ATOM      1  C   UNL     1     -30.429  34.467 -45.384  0.00  0.00    +0.020 A 
ATOM      2  C   UNL     1     -29.521  33.782 -46.276  0.00  0.00    +0.013 A 
ATOM      3  C   UNL     1     -29.284  34.282 -47.624  0.00  0.00    +0.019 A 
ATOM     38  C   UNL     1     -29.985  35.487 -48.042  0.00  0.00    +0.120 A 
ATOM     39  N   UNL     1     -30.854  36.124 -47.162  0.00  0.00    -0.263 NA
ATOM     40  C   UNL     1     -31.092  35.651 -45.862  0.00  0.00    +0.111 A 
ENDBRANCH   4   3
ENDBRANCH  10   9
BRANCH  12  13
ATOM     13  N   UNL     1     -25.442  27.569 -52.179  0.00  0.00    -0.281 N 
ATOM     14  C   UNL     1     -25.672  27.992 -53.477  0.00  0.00    +0.248 C 
ATOM     30  O   UNL     1     -25.717  29.162 -53.825  0.00  0.00    -0.270 OA
ATOM     31  H   UNL     1     -25.623  26.583 -51.990  0.00  0.00    +0.155 HD
BRANCH  14  15
ATOM     15  C   UNL     1     -25.899  26.967 -54.541  0.00  0.00    +0.037 A 
ATOM     16  C   UNL     1     -24.989  26.841 -55.682  0.00  0.00    +0.013 A 
ATOM     17  C   UNL     1     -25.240  25.855 -56.703  0.00  0.00    +0.005 A 
ATOM     18  C   UNL     1     -26.408  24.985 -56.586  0.00  0.00    -0.033 A 
ATOM     28  C   UNL     1     -27.292  25.128 -55.441  0.00  0.00    +0.005 A 
ATOM     29  C   UNL     1     -27.049  26.094 -54.439  0.00  0.00    +0.013 A 
BRANCH  18  19
ATOM     19  C   UNL     1     -26.766  23.920 -57.639  0.00  0.00    +0.119 C 
BRANCH  19  20
ATOM     20  N   UNL     1     -25.762  22.843 -57.890  0.00  0.00    -0.302 NA
ATOM     21  C   UNL     1     -26.352  21.686 -58.703  0.00  0.00    +0.066 C 
ATOM     22  C   UNL     1     -25.282  20.579 -58.975  0.00  0.00    -0.064 C 
ATOM     23  N   UNL     1     -24.722  20.075 -57.644  0.00  0.00    +0.379 N 
ATOM     24  C   UNL     1     -23.759  18.994 -57.894  0.00  0.00    -0.096 C 
ATOM     25  H   UNL     1     -25.570  19.645 -57.062  0.00  0.00    -0.082 HD
ATOM     26  C   UNL     1     -24.137  21.220 -56.829  0.00  0.00    -0.064 C 
ATOM     27  C   UNL     1     -25.199  22.328 -56.588  0.00  0.00    +0.066 C 
ENDBRANCH  19  20
ENDBRANCH  18  19
ENDBRANCH  14  15
ENDBRANCH  12  13
TORSDOF 6
ENDMDL
MODEL 2
REMARK VINA RESULT:      -7.1      2.594     13.199
REMARK  Name = C:\Users\Docking\Desktop\test protocol\1iep_ligandH.pdb
REMARK  8 active torsions:
REMARK  status: ('A' for Active; 'I' for Inactive)
REMARK    1  A    between atoms: _5  and  _11
REMARK    2  A    between atoms: _19  and  _21
REMARK    3  A    between atoms: _22  and  _66
REMARK    4  A    between atoms: _27  and  _30
REMARK    5  A    between atoms: _32  and  _33
REMARK    6  A    between atoms: _38  and  _43
REMARK    7  A    between atoms: _43  and  _46
REMARK    8  A    between atoms: _53  and  _55
REMARK                            x       y       z     vdW  Elec       q    Type
REMARK                         _______ _______ _______ _____ _____    ______ ____
ROOT
ATOM     10  C   UNL     1     -25.564  28.409 -50.818  0.00  0.00    +0.038 A 
ATOM     11  C   UNL     1     -26.377  29.322 -50.098  0.00  0.00    +0.047 A 
ATOM     12  C   UNL     1     -25.788  30.345 -49.249  0.00  0.00    +0.035 A 
ATOM     32  C   UNL     1     -24.367  30.412 -49.157  0.00  0.00    +0.024 A 
ATOM     33  C   UNL     1     -23.526  29.492 -49.881  0.00  0.00    +0.007 A 
ATOM     34  C   UNL     1     -24.101  28.478 -50.718  0.00  0.00    -0.029 A 
ATOM     35  C   UNL     1     -23.151  27.514 -51.466  0.00  0.00    +0.045 C 
ENDROOT
BRANCH  10   9
ATOM      4  C   UNL     1     -27.334  26.899 -55.016  0.00  0.00    +0.077 A 
ATOM      5  C   UNL     1     -27.025  28.142 -55.661  0.00  0.00    +0.048 A 
ATOM      6  C   UNL     1     -26.418  29.147 -54.875  0.00  0.00    +0.116 A 
ATOM      7  N   UNL     1     -26.144  28.915 -53.545  0.00  0.00    -0.223 NA
ATOM      8  C   UNL     1     -26.456  27.705 -52.953  0.00  0.00    +0.220 A 
ATOM      9  N   UNL     1     -26.183  27.446 -51.619  0.00  0.00    -0.283 N 
ATOM     36  H   UNL     1     -26.435  26.544 -51.218  0.00  0.00    +0.155 HD
ATOM     37  N   UNL     1     -27.038  26.729 -53.682  0.00  0.00    -0.214 NA
BRANCH   4   3
ATOM      1  C   UNL     1     -29.654  23.862 -55.850  0.00  0.00    +0.020 A 
ATOM      2  C   UNL     1     -29.071  24.973 -55.134  0.00  0.00    +0.013 A 
ATOM      3  C   UNL     1     -27.974  25.739 -55.713  0.00  0.00    +0.019 A 
ATOM     38  C   UNL     1     -27.488  25.352 -57.029  0.00  0.00    +0.120 A 
ATOM     39  N   UNL     1     -28.068  24.276 -57.694  0.00  0.00    -0.263 NA
ATOM     40  C   UNL     1     -29.123  23.531 -57.146  0.00  0.00    +0.111 A 
ENDBRANCH   4   3
ENDBRANCH  10   9
BRANCH  12  13
ATOM     13  N   UNL     1     -26.563  31.294 -48.488  0.00  0.00    -0.281 N 
ATOM     14  C   UNL     1     -27.319  32.353 -48.964  0.00  0.00    +0.248 C 
ATOM     30  O   UNL     1     -27.273  32.775 -50.110  0.00  0.00    -0.270 OA
ATOM     31  H   UNL     1     -26.552  31.171 -47.476  0.00  0.00    +0.155 HD
BRANCH  14  15
ATOM     15  C   UNL     1     -28.252  33.052 -48.029  0.00  0.00    +0.037 A 
ATOM     16  C   UNL     1     -29.043  34.205 -48.466  0.00  0.00    +0.013 A 
ATOM     17  C   UNL     1     -29.923  34.872 -47.539  0.00  0.00    +0.005 A 
ATOM     18  C   UNL     1     -30.017  34.385 -46.165  0.00  0.00    -0.033 A 
ATOM     28  C   UNL     1     -29.225  33.236 -45.760  0.00  0.00    +0.005 A 
ATOM     29  C   UNL     1     -28.361  32.580 -46.665  0.00  0.00    +0.013 A 
BRANCH  18  19
ATOM     19  C   UNL     1     -30.914  35.048 -45.102  0.00  0.00    +0.119 C 
BRANCH  19  20
ATOM     20  N   UNL     1     -31.675  36.265 -45.513  0.00  0.00    -0.302 NA
ATOM     21  C   UNL     1     -30.886  37.552 -45.250  0.00  0.00    +0.066 C 
ATOM     22  C   UNL     1     -31.688  38.814 -45.707  0.00  0.00    -0.064 C 
ATOM     23  N   UNL     1     -33.036  38.848 -44.984  0.00  0.00    +0.379 N 
ATOM     24  C   UNL     1     -33.768  40.064 -45.367  0.00  0.00    -0.096 C 
ATOM     25  H   UNL     1     -32.831  38.906 -43.889  0.00  0.00    -0.082 HD
ATOM     26  C   UNL     1     -33.825  37.571 -45.237  0.00  0.00    -0.064 C 
ATOM     27  C   UNL     1     -33.007  36.321 -44.807  0.00  0.00    +0.066 C 
ENDBRANCH  19  20
ENDBRANCH  18  19
ENDBRANCH  14  15
ENDBRANCH  12  13
TORSDOF 6
ENDMDL
MODEL 3
REMARK VINA RESULT:      -6.6     18.214     20.652
REMARK  Name = C:\Users\Docking\Desktop\test protocol\1iep_ligandH.pdb
REMARK  8 active torsions:
REMARK  status: ('A' for Active; 'I' for Inactive)
REMARK    1  A    between atoms: _5  and  _11
REMARK    2  A    between atoms: _19  and  _21
REMARK    3  A    between atoms: _22  and  _66
REMARK    4  A    between atoms: _27  and  _30
REMARK    5  A    between atoms: _32  and  _33
REMARK    6  A    between atoms: _38  and  _43
REMARK    7  A    between atoms: _43  and  _46
REMARK    8  A    between atoms: _53  and  _55
REMARK                            x       y       z     vdW  Elec       q    Type
REMARK                         _______ _______ _______ _____ _____    ______ ____
ROOT
ATOM     10  C   UNL     1     -34.119  24.049 -37.802  0.00  0.00    +0.038 A 
ATOM     11  C   UNL     1     -34.225  22.658 -37.551  0.00  0.00    +0.047 A 
ATOM     12  C   UNL     1     -35.474  22.069 -37.093  0.00  0.00    +0.035 A 
ATOM     32  C   UNL     1     -36.596  22.927 -36.903  0.00  0.00    +0.024 A 
ATOM     33  C   UNL     1     -36.505  24.344 -37.153  0.00  0.00    +0.007 A 
ATOM     34  C   UNL     1     -35.275  24.931 -37.603  0.00  0.00    -0.029 A 
ATOM     35  C   UNL     1     -35.234  26.457 -37.849  0.00  0.00    +0.045 C 
ENDROOT
BRANCH  10   9
ATOM      4  C   UNL     1     -29.741  25.840 -36.983  0.00  0.00    +0.077 A 
ATOM      5  C   UNL     1     -29.916  25.775 -35.561  0.00  0.00    +0.048 A 
ATOM      6  C   UNL     1     -31.150  25.282 -35.081  0.00  0.00    +0.116 A 
ATOM      7  N   UNL     1     -32.129  24.885 -35.966  0.00  0.00    -0.223 NA
ATOM      8  C   UNL     1     -31.928  24.962 -37.332  0.00  0.00    +0.220 A 
ATOM      9  N   UNL     1     -32.895  24.561 -38.241  0.00  0.00    -0.283 N 
ATOM     36  H   UNL     1     -32.711  24.641 -39.241  0.00  0.00    +0.155 HD
ATOM     37  N   UNL     1     -30.759  25.431 -37.816  0.00  0.00    -0.214 NA
BRANCH   4   3
ATOM      1  C   UNL     1     -27.270  27.696 -39.381  0.00  0.00    +0.020 A 
ATOM      2  C   UNL     1     -28.505  27.247 -38.780  0.00  0.00    +0.013 A 
ATOM      3  C   UNL     1     -28.492  26.335 -37.644  0.00  0.00    +0.019 A 
ATOM     38  C   UNL     1     -27.203  25.892 -37.135  0.00  0.00    +0.120 A 
ATOM     39  N   UNL     1     -26.030  26.340 -37.735  0.00  0.00    -0.263 NA
ATOM     40  C   UNL     1     -26.030  27.217 -38.830  0.00  0.00    +0.111 A 
ENDBRANCH   4   3
ENDBRANCH  10   9
BRANCH  12  13
ATOM     13  N   UNL     1     -35.639  20.664 -36.813  0.00  0.00    -0.281 N 
ATOM     14  C   UNL     1     -35.252  19.970 -35.679  0.00  0.00    +0.248 C 
ATOM     30  O   UNL     1     -34.508  20.415 -34.817  0.00  0.00    -0.270 OA
ATOM     31  H   UNL     1     -36.097  20.115 -37.540  0.00  0.00    +0.155 HD
BRANCH  14  15
ATOM     15  C   UNL     1     -35.751  18.575 -35.480  0.00  0.00    +0.037 A 
ATOM     16  C   UNL     1     -37.138  18.313 -35.089  0.00  0.00    +0.013 A 
ATOM     17  C   UNL     1     -37.590  16.959 -34.888  0.00  0.00    +0.005 A 
ATOM     18  C   UNL     1     -36.651  15.856 -35.078  0.00  0.00    -0.033 A 
ATOM     28  C   UNL     1     -35.282  16.144 -35.471  0.00  0.00    +0.005 A 
ATOM     29  C   UNL     1     -34.836  17.470 -35.668  0.00  0.00    +0.013 A 
BRANCH  18  19
ATOM     19  C   UNL     1     -37.040  14.381 -34.864  0.00  0.00    +0.119 C 
BRANCH  19  20
ATOM     20  N   UNL     1     -35.949  13.435 -34.481  0.00  0.00    -0.302 NA
ATOM     21  C   UNL     1     -36.237  12.006 -34.951  0.00  0.00    +0.066 C 
ATOM     22  C   UNL     1     -35.075  11.034 -34.562  0.00  0.00    -0.064 C 
ATOM     23  N   UNL     1     -34.867  11.075 -33.047  0.00  0.00    +0.379 N 
ATOM     24  C   UNL     1     -33.814  10.119 -32.672  0.00  0.00    -0.096 C 
ATOM     25  H   UNL     1     -35.815  10.740 -32.566  0.00  0.00    -0.082 HD
ATOM     26  C   UNL     1     -34.583  12.492 -32.571  0.00  0.00    -0.064 C 
ATOM     27  C   UNL     1     -35.729  13.455 -32.989  0.00  0.00    +0.066 C 
ENDBRANCH  19  20
ENDBRANCH  18  19
ENDBRANCH  14  15
ENDBRANCH  12  13
TORSDOF 6
ENDMDL
MODEL 4
REMARK VINA RESULT:      -6.6      5.496     13.837
REMARK  Name = C:\Users\Docking\Desktop\test protocol\1iep_ligandH.pdb
REMARK  8 active torsions:
REMARK  status: ('A' for Active; 'I' for Inactive)
REMARK    1  A    between atoms: _5  and  _11
REMARK    2  A    between atoms: _19  and  _21
REMARK    3  A    between atoms: _22  and  _66
REMARK    4  A    between atoms: _27  and  _30
REMARK    5  A    between atoms: _32  and  _33
REMARK    6  A    between atoms: _38  and  _43
REMARK    7  A    between atoms: _43  and  _46
REMARK    8  A    between atoms: _53  and  _55
REMARK                            x       y       z     vdW  Elec       q    Type
REMARK                         _______ _______ _______ _____ _____    ______ ____
ROOT
ATOM     10  C   UNL     1     -25.734  31.664 -46.949  0.00  0.00    +0.038 A 
ATOM     11  C   UNL     1     -26.435  32.752 -47.528  0.00  0.00    +0.047 A 
ATOM     12  C   UNL     1     -27.612  33.317 -46.886  0.00  0.00    +0.035 A 
ATOM     32  C   UNL     1     -28.045  32.750 -45.652  0.00  0.00    +0.024 A 
ATOM     33  C   UNL     1     -27.345  31.643 -45.050  0.00  0.00    +0.007 A 
ATOM     34  C   UNL     1     -26.185  31.080 -45.680  0.00  0.00    -0.029 A 
ATOM     35  C   UNL     1     -25.478  29.889 -44.992  0.00  0.00    +0.045 C 
ENDROOT
BRANCH  10   9
ATOM      4  C   UNL     1     -23.674  29.102 -50.446  0.00  0.00    +0.077 A 
ATOM      5  C   UNL     1     -24.943  28.710 -50.988  0.00  0.00    +0.048 A 
ATOM      6  C   UNL     1     -26.102  29.184 -50.333  0.00  0.00    +0.116 A 
ATOM      7  N   UNL     1     -25.988  29.988 -49.220  0.00  0.00    -0.223 NA
ATOM      8  C   UNL     1     -24.749  30.346 -48.722  0.00  0.00    +0.220 A 
ATOM      9  N   UNL     1     -24.611  31.161 -47.609  0.00  0.00    -0.283 N 
ATOM     36  H   UNL     1     -23.679  31.396 -47.269  0.00  0.00    +0.155 HD
ATOM     37  N   UNL     1     -23.627  29.905 -49.329  0.00  0.00    -0.214 NA
BRANCH   4   3
ATOM      1  C   UNL     1     -20.158  27.455 -50.928  0.00  0.00    +0.020 A 
ATOM      2  C   UNL     1     -21.415  27.829 -50.320  0.00  0.00    +0.013 A 
ATOM      3  C   UNL     1     -22.359  28.685 -51.028  0.00  0.00    +0.019 A 
ATOM     38  C   UNL     1     -21.999  29.148 -52.360  0.00  0.00    +0.120 A 
ATOM     39  N   UNL     1     -20.781  28.773 -52.919  0.00  0.00    -0.263 NA
ATOM     40  C   UNL     1     -19.864  27.951 -52.246  0.00  0.00    +0.111 A 
ENDBRANCH   4   3
ENDBRANCH  10   9
BRANCH  12  13
ATOM     13  N   UNL     1     -28.368  34.417 -47.431  0.00  0.00    -0.281 N 
ATOM     14  C   UNL     1     -29.145  34.431 -48.578  0.00  0.00    +0.248 C 
ATOM     30  O   UNL     1     -29.135  33.555 -49.430  0.00  0.00    -0.270 OA
ATOM     31  H   UNL     1     -28.327  35.291 -46.907  0.00  0.00    +0.155 HD
BRANCH  14  15
ATOM     15  C   UNL     1     -30.053  35.592 -48.821  0.00  0.00    +0.037 A 
ATOM     16  C   UNL     1     -30.338  36.064 -50.179  0.00  0.00    +0.013 A 
ATOM     17  C   UNL     1     -31.204  37.197 -50.384  0.00  0.00    +0.005 A 
ATOM     18  C   UNL     1     -31.794  37.867 -49.227  0.00  0.00    -0.033 A 
ATOM     28  C   UNL     1     -31.500  37.375 -47.892  0.00  0.00    +0.005 A 
ATOM     29  C   UNL     1     -30.650  36.265 -47.686  0.00  0.00    +0.013 A 
BRANCH  18  19
ATOM     19  C   UNL     1     -32.713  39.096 -49.351  0.00  0.00    +0.119 C 
BRANCH  19  20
ATOM     20  N   UNL     1     -32.117  40.430 -49.043  0.00  0.00    -0.302 NA
ATOM     21  C   UNL     1     -32.644  41.004 -47.724  0.00  0.00    +0.066 C 
ATOM     22  C   UNL     1     -31.992  42.389 -47.406  0.00  0.00    -0.064 C 
ATOM     23  N   UNL     1     -32.260  43.354 -48.562  0.00  0.00    +0.379 N 
ATOM     24  C   UNL     1     -31.699  44.674 -48.240  0.00  0.00    -0.096 C 
ATOM     25  H   UNL     1     -33.365  43.470 -48.657  0.00  0.00    -0.082 HD
ATOM     26  C   UNL     1     -31.741  42.789 -49.877  0.00  0.00    -0.064 C 
ATOM     27  C   UNL     1     -32.373  41.400 -50.170  0.00  0.00    +0.066 C 
ENDBRANCH  19  20
ENDBRANCH  18  19
ENDBRANCH  14  15
ENDBRANCH  12  13
TORSDOF 6
ENDMDL
MODEL 5
REMARK VINA RESULT:      -6.6     24.666     26.771
REMARK  Name = C:\Users\Docking\Desktop\test protocol\1iep_ligandH.pdb
REMARK  8 active torsions:
REMARK  status: ('A' for Active; 'I' for Inactive)
REMARK    1  A    between atoms: _5  and  _11
REMARK    2  A    between atoms: _19  and  _21
REMARK    3  A    between atoms: _22  and  _66
REMARK    4  A    between atoms: _27  and  _30
REMARK    5  A    between atoms: _32  and  _33
REMARK    6  A    between atoms: _38  and  _43
REMARK    7  A    between atoms: _43  and  _46
REMARK    8  A    between atoms: _53  and  _55
REMARK                            x       y       z     vdW  Elec       q    Type
REMARK                         _______ _______ _______ _____ _____    ______ ____
ROOT
ATOM     10  C   UNL     1     -15.497  17.060 -32.795  0.00  0.00    +0.038 A 
ATOM     11  C   UNL     1     -15.275  15.665 -32.917  0.00  0.00    +0.047 A 
ATOM     12  C   UNL     1     -14.138  15.146 -33.662  0.00  0.00    +0.035 A 
ATOM     32  C   UNL     1     -13.246  16.077 -34.269  0.00  0.00    +0.024 A 
ATOM     33  C   UNL     1     -13.457  17.499 -34.156  0.00  0.00    +0.007 A 
ATOM     34  C   UNL     1     -14.578  18.017 -33.425  0.00  0.00    -0.029 A 
ATOM     35  C   UNL     1     -14.759  19.550 -33.342  0.00  0.00    +0.045 C 
ENDROOT
BRANCH  10   9
ATOM      4  C   UNL     1     -20.162  18.123 -32.416  0.00  0.00    +0.077 A 
ATOM      5  C   UNL     1     -20.410  17.793 -33.790  0.00  0.00    +0.048 A 
ATOM      6  C   UNL     1     -19.308  17.361 -34.562  0.00  0.00    +0.116 A 
ATOM      7  N   UNL     1     -18.057  17.268 -33.992  0.00  0.00    -0.223 NA
ATOM      8  C   UNL     1     -17.852  17.596 -32.664  0.00  0.00    +0.220 A 
ATOM      9  N   UNL     1     -16.604  17.503 -32.068  0.00  0.00    -0.283 N 
ATOM     36  H   UNL     1     -16.493  17.761 -31.088  0.00  0.00    +0.155 HD
ATOM     37  N   UNL     1     -18.888  18.013 -31.906  0.00  0.00    -0.214 NA
BRANCH   4   3
ATOM      1  C   UNL     1     -22.081  20.102 -29.641  0.00  0.00    +0.020 A 
ATOM      2  C   UNL     1     -21.022  19.688 -30.532  0.00  0.00    +0.013 A 
ATOM      3  C   UNL     1     -21.224  18.592 -31.471  0.00  0.00    +0.019 A 
ATOM     38  C   UNL     1     -22.521  17.931 -31.484  0.00  0.00    +0.120 A 
ATOM     39  N   UNL     1     -23.522  18.350 -30.613  0.00  0.00    -0.263 NA
ATOM     40  C   UNL     1     -23.338  19.403 -29.703  0.00  0.00    +0.111 A 
ENDBRANCH   4   3
ENDBRANCH  10   9
BRANCH  12  13
ATOM     13  N   UNL     1     -13.866  13.739 -33.826  0.00  0.00    -0.281 N 
ATOM     14  C   UNL     1     -13.690  13.038 -35.008  0.00  0.00    +0.248 C 
ATOM     30  O   UNL     1     -13.952  13.478 -36.118  0.00  0.00    -0.270 OA
ATOM     31  H   UNL     1     -13.795  13.194 -32.967  0.00  0.00    +0.155 HD
BRANCH  14  15
ATOM     15  C   UNL     1     -13.158  11.643 -34.947  0.00  0.00    +0.037 A 
ATOM     16  C   UNL     1     -12.772  10.923 -36.164  0.00  0.00    +0.013 A 
ATOM     17  C   UNL     1     -12.278   9.571 -36.078  0.00  0.00    +0.005 A 
ATOM     18  C   UNL     1     -12.167   8.931 -34.770  0.00  0.00    -0.033 A 
ATOM     28  C   UNL     1     -12.553   9.670 -33.579  0.00  0.00    +0.005 A 
ATOM     29  C   UNL     1     -13.038  10.994 -33.659  0.00  0.00    +0.013 A 
BRANCH  18  19
ATOM     19  C   UNL     1     -11.671   7.485 -34.586  0.00  0.00    +0.119 C 
BRANCH  19  20
ATOM     20  N   UNL     1     -12.281   6.687 -33.481  0.00  0.00    -0.302 NA
ATOM     21  C   UNL     1     -11.319   5.628 -32.938  0.00  0.00    +0.066 C 
ATOM     22  C   UNL     1     -11.966   4.818 -31.767  0.00  0.00    -0.064 C 
ATOM     23  N   UNL     1     -13.264   4.171 -32.254  0.00  0.00    +0.379 N 
ATOM     24  C   UNL     1     -13.844   3.362 -31.173  0.00  0.00    -0.096 C 
ATOM     25  H   UNL     1     -13.004   3.482 -33.091  0.00  0.00    -0.082 HD
ATOM     26  C   UNL     1     -14.225   5.218 -32.799  0.00  0.00    -0.064 C 
ATOM     27  C   UNL     1     -13.562   6.036 -33.942  0.00  0.00    +0.066 C 
ENDBRANCH  19  20
ENDBRANCH  18  19
ENDBRANCH  14  15
ENDBRANCH  12  13
TORSDOF 6
ENDMDL
