MODEL 1
REMARK VINA RESULT:      -8.5      0.000      0.000
REMARK  Name = C:\Users\Docking\Desktop\test protocol\1iep_ligandH.pdb
REMARK  8 active torsions:
REMARK  status: ('A' for Active; 'I' for Inactive)
REMARK    1  A    between atoms: _5  and  _11
REMARK    2  A    between atoms: _19  and  _21
REMARK    3  A    between atoms: _22  and  _66
REMARK    4  A    between atoms: _27  and  _30
REMARK    5  A    between atoms: _32  and  _33
REMARK    6  A    between atoms: _38  and  _43
REMARK    7  A    between atoms: _43  and  _46
REMARK    8  A    between atoms: _53  and  _55
REMARK                            x       y       z     vdW  Elec       q    Type
REMARK                         _______ _______ _______ _____ _____    ______ ____
ROOT
ATOM     10  C   UNL     1      15.206  21.435  15.017  0.00  0.00    +0.038 A 
ATOM     11  C   UNL     1      14.011  21.671  14.291  0.00  0.00    +0.047 A 
ATOM     12  C   UNL     1      13.065  20.598  14.029  0.00  0.00    +0.035 A 
ATOM     32  C   UNL     1      13.366  19.296  14.524  0.00  0.00    +0.024 A 
ATOM     33  C   UNL     1      14.577  19.037  15.263  0.00  0.00    +0.007 A 
ATOM     34  C   UNL     1      15.515  20.092  15.522  0.00  0.00    -0.029 A 
ATOM     35  C   UNL     1      16.801  19.756  16.314  0.00  0.00    +0.045 C 
ENDROOT
BRANCH  10   9
ATOM      4  C   UNL     1      18.698  24.411  13.608  0.00  0.00    +0.077 A 
ATOM      5  C   UNL     1      18.811  23.769  12.330  0.00  0.00    +0.048 A 
ATOM      6  C   UNL     1      17.957  22.672  12.077  0.00  0.00    +0.116 A 
ATOM      7  N   UNL     1      17.061  22.257  13.038  0.00  0.00    -0.223 NA
ATOM      8  C   UNL     1      16.979  22.897  14.261  0.00  0.00    +0.220 A 
ATOM      9  N   UNL     1      16.079  22.502  15.239  0.00  0.00    -0.283 N 
ATOM     36  H   UNL     1      16.055  22.996  16.131  0.00  0.00    +0.155 HD
ATOM     37  N   UNL     1      17.784  23.947  14.527  0.00  0.00    -0.214 NA
BRANCH   4   3
ATOM      1  C   UNL     1      19.824  28.024  14.598  0.00  0.00    +0.020 A 
ATOM      2  C   UNL     1      18.978  26.924  14.196  0.00  0.00    +0.013 A 
ATOM      3  C   UNL     1      19.529  25.586  14.022  0.00  0.00    +0.019 A 
ATOM     38  C   UNL     1      20.950  25.393  14.266  0.00  0.00    +0.120 A 
ATOM     39  N   UNL     1      21.740  26.472  14.651  0.00  0.00    -0.263 NA
ATOM     40  C   UNL     1      21.222  27.764  14.819  0.00  0.00    +0.111 A 
ENDBRANCH   4   3
ENDBRANCH  10   9
BRANCH  12  13
ATOM     13  N   UNL     1      11.839  20.777  13.291  0.00  0.00    -0.281 N 
ATOM     14  C   UNL     1      10.584  21.090  13.787  0.00  0.00    +0.248 C 
ATOM     30  O   UNL     1      10.280  21.054  14.970  0.00  0.00    -0.270 OA
ATOM     31  H   UNL     1      11.904  20.658  12.280  0.00  0.00    +0.155 HD
BRANCH  14  15
ATOM     15  C   UNL     1       9.507  21.486  12.830  0.00  0.00    +0.037 A 
ATOM     16  C   UNL     1       9.227  20.693  11.630  0.00  0.00    +0.013 A 
ATOM     17  C   UNL     1       8.195  21.108  10.714  0.00  0.00    +0.005 A 
ATOM     18  C   UNL     1       7.432  22.322  10.995  0.00  0.00    -0.033 A 
ATOM     28  C   UNL     1       7.727  23.086  12.196  0.00  0.00    +0.005 A 
ATOM     29  C   UNL     1       8.739  22.684  13.095  0.00  0.00    +0.013 A 
BRANCH  18  19
ATOM     19  C   UNL     1       6.326  22.850  10.063  0.00  0.00    +0.119 C 
BRANCH  19  20
ATOM     20  N   UNL     1       6.705  23.137   8.647  0.00  0.00    -0.302 NA
ATOM     21  C   UNL     1       6.878  24.637   8.391  0.00  0.00    +0.066 C 
ATOM     22  C   UNL     1       7.296  24.918   6.911  0.00  0.00    -0.064 C 
ATOM     23  N   UNL     1       6.250  24.324   5.967  0.00  0.00    +0.379 N 
ATOM     24  C   UNL     1       6.610  24.636   4.576  0.00  0.00    -0.096 C 
ATOM     25  H   UNL     1       5.277  24.823   6.184  0.00  0.00    -0.082 HD
ATOM     26  C   UNL     1       6.070  22.833   6.216  0.00  0.00    -0.064 C 
ATOM     27  C   UNL     1       5.683  22.563   7.697  0.00  0.00    +0.066 C 
ENDBRANCH  19  20
ENDBRANCH  18  19
ENDBRANCH  14  15
ENDBRANCH  12  13
TORSDOF 6
ENDMDL
MODEL 2
REMARK VINA RESULT:      -8.2     11.205     12.969
REMARK  Name = C:\Users\Docking\Desktop\test protocol\1iep_ligandH.pdb
REMARK  8 active torsions:
REMARK  status: ('A' for Active; 'I' for Inactive)
REMARK    1  A    between atoms: _5  and  _11
REMARK    2  A    between atoms: _19  and  _21
REMARK    3  A    between atoms: _22  and  _66
REMARK    4  A    between atoms: _27  and  _30
REMARK    5  A    between atoms: _32  and  _33
REMARK    6  A    between atoms: _38  and  _43
REMARK    7  A    between atoms: _43  and  _46
REMARK    8  A    between atoms: _53  and  _55
REMARK                            x       y       z     vdW  Elec       q    Type
REMARK                         _______ _______ _______ _____ _____    ______ ____
ROOT
ATOM     10  C   UNL     1      10.265  26.398  20.204  0.00  0.00    +0.038 A 
ATOM     11  C   UNL     1       9.709  27.644  19.818  0.00  0.00    +0.047 A 
ATOM     12  C   UNL     1       8.658  28.274  20.601  0.00  0.00    +0.035 A 
ATOM     32  C   UNL     1       8.198  27.608  21.774  0.00  0.00    +0.024 A 
ATOM     33  C   UNL     1       8.751  26.340  22.181  0.00  0.00    +0.007 A 
ATOM     34  C   UNL     1       9.787  25.713  21.411  0.00  0.00    -0.029 A 
ATOM     35  C   UNL     1      10.339  24.350  21.891  0.00  0.00    +0.045 C 
ENDROOT
BRANCH  10   9
ATOM      4  C   UNL     1      11.827  23.235  16.950  0.00  0.00    +0.077 A 
ATOM      5  C   UNL     1      10.533  22.628  16.831  0.00  0.00    +0.048 A 
ATOM      6  C   UNL     1       9.494  23.155  17.630  0.00  0.00    +0.116 A 
ATOM      7  N   UNL     1       9.742  24.210  18.481  0.00  0.00    -0.223 NA
ATOM      8  C   UNL     1      11.002  24.771  18.572  0.00  0.00    +0.220 A 
ATOM      9  N   UNL     1      11.273  25.838  19.415  0.00  0.00    -0.283 N 
ATOM     36  H   UNL     1      12.218  26.219  19.460  0.00  0.00    +0.155 HD
ATOM     37  N   UNL     1      12.012  24.285  17.821  0.00  0.00    -0.214 NA
BRANCH   4   3
ATOM      1  C   UNL     1      14.219  22.270  14.009  0.00  0.00    +0.020 A 
ATOM      2  C   UNL     1      13.035  22.703  14.714  0.00  0.00    +0.013 A 
ATOM      3  C   UNL     1      13.026  22.792  16.169  0.00  0.00    +0.019 A 
ATOM     38  C   UNL     1      14.241  22.434  16.885  0.00  0.00    +0.120 A 
ATOM     39  N   UNL     1      15.365  22.019  16.179  0.00  0.00    -0.263 NA
ATOM     40  C   UNL     1      15.385  21.928  14.779  0.00  0.00    +0.111 A 
ENDBRANCH   4   3
ENDBRANCH  10   9
BRANCH  12  13
ATOM     13  N   UNL     1       8.049  29.534  20.254  0.00  0.00    -0.281 N 
ATOM     14  C   UNL     1       8.033  30.705  20.994  0.00  0.00    +0.248 C 
ATOM     30  O   UNL     1       8.358  30.784  22.170  0.00  0.00    -0.270 OA
ATOM     31  H   UNL     1       7.573  29.567  19.352  0.00  0.00    +0.155 HD
BRANCH  14  15
ATOM     15  C   UNL     1       7.576  31.968  20.339  0.00  0.00    +0.037 A 
ATOM     16  C   UNL     1       8.534  32.915  19.763  0.00  0.00    +0.013 A 
ATOM     17  C   UNL     1       8.068  34.134  19.151  0.00  0.00    +0.005 A 
ATOM     18  C   UNL     1       6.634  34.412  19.111  0.00  0.00    -0.033 A 
ATOM     28  C   UNL     1       5.705  33.453  19.686  0.00  0.00    +0.005 A 
ATOM     29  C   UNL     1       6.159  32.257  20.287  0.00  0.00    +0.013 A 
BRANCH  18  19
ATOM     19  C   UNL     1       6.048  35.697  18.497  0.00  0.00    +0.119 C 
BRANCH  19  20
ATOM     20  N   UNL     1       5.945  36.894  19.385  0.00  0.00    -0.302 NA
ATOM     21  C   UNL     1       4.840  36.738  20.434  0.00  0.00    +0.066 C 
ATOM     22  C   UNL     1       4.761  37.989  21.368  0.00  0.00    -0.064 C 
ATOM     23  N   UNL     1       4.531  39.241  20.521  0.00  0.00    +0.379 N 
ATOM     24  C   UNL     1       4.399  40.411  21.401  0.00  0.00    -0.096 C 
ATOM     25  H   UNL     1       3.564  39.112  19.982  0.00  0.00    -0.082 HD
ATOM     26  C   UNL     1       5.625  39.402  19.474  0.00  0.00    -0.064 C 
ATOM     27  C   UNL     1       5.714  38.142  18.570  0.00  0.00    +0.066 C 
ENDBRANCH  19  20
ENDBRANCH  18  19
ENDBRANCH  14  15
ENDBRANCH  12  13
TORSDOF 6
ENDMDL
MODEL 3
REMARK VINA RESULT:      -8.0      7.881     15.864
REMARK  Name = C:\Users\Docking\Desktop\test protocol\1iep_ligandH.pdb
REMARK  8 active torsions:
REMARK  status: ('A' for Active; 'I' for Inactive)
REMARK    1  A    between atoms: _5  and  _11
REMARK    2  A    between atoms: _19  and  _21
REMARK    3  A    between atoms: _22  and  _66
REMARK    4  A    between atoms: _27  and  _30
REMARK    5  A    between atoms: _32  and  _33
REMARK    6  A    between atoms: _38  and  _43
REMARK    7  A    between atoms: _43  and  _46
REMARK    8  A    between atoms: _53  and  _55
REMARK                            x       y       z     vdW  Elec       q    Type
REMARK                         _______ _______ _______ _____ _____    ______ ____
ROOT
ATOM     10  C   UNL     1      20.071  25.429  14.745  0.00  0.00    +0.038 A 
ATOM     11  C   UNL     1      21.460  25.653  14.923  0.00  0.00    +0.047 A 
ATOM     12  C   UNL     1      22.001  27.002  14.995  0.00  0.00    +0.035 A 
ATOM     32  C   UNL     1      21.098  28.099  14.885  0.00  0.00    +0.024 A 
ATOM     33  C   UNL     1      19.683  27.889  14.703  0.00  0.00    +0.007 A 
ATOM     34  C   UNL     1      19.144  26.561  14.629  0.00  0.00    -0.029 A 
ATOM     35  C   UNL     1      17.620  26.395  14.426  0.00  0.00    +0.045 C 
ENDROOT
BRANCH  10   9
ATOM      4  C   UNL     1      18.604  21.570  12.297  0.00  0.00    +0.077 A 
ATOM      5  C   UNL     1      18.750  22.240  11.037  0.00  0.00    +0.048 A 
ATOM      6  C   UNL     1      19.198  23.580  11.063  0.00  0.00    +0.116 A 
ATOM      7  N   UNL     1      19.478  24.193  12.265  0.00  0.00    -0.223 NA
ATOM      8  C   UNL     1      19.324  23.518  13.463  0.00  0.00    +0.220 A 
ATOM      9  N   UNL     1      19.607  24.113  14.683  0.00  0.00    -0.283 N 
ATOM     36  H   UNL     1      19.473  23.584  15.544  0.00  0.00    +0.155 HD
ATOM     37  N   UNL     1      18.896  22.239  13.465  0.00  0.00    -0.214 NA
BRANCH   4   3
ATOM      1  C   UNL     1      18.063  17.744  11.685  0.00  0.00    +0.020 A 
ATOM      2  C   UNL     1      18.536  19.098  11.508  0.00  0.00    +0.013 A 
ATOM      3  C   UNL     1      18.142  20.152  12.434  0.00  0.00    +0.019 A 
ATOM     38  C   UNL     1      17.263  19.800  13.538  0.00  0.00    +0.120 A 
ATOM     39  N   UNL     1      16.822  18.489  13.683  0.00  0.00    -0.263 NA
ATOM     40  C   UNL     1      17.193  17.466  12.797  0.00  0.00    +0.111 A 
ENDBRANCH   4   3
ENDBRANCH  10   9
BRANCH  12  13
ATOM     13  N   UNL     1      23.403  27.292  15.167  0.00  0.00    -0.281 N 
ATOM     14  C   UNL     1      24.125  27.340  16.348  0.00  0.00    +0.248 C 
ATOM     30  O   UNL     1      23.625  27.351  17.463  0.00  0.00    -0.270 OA
ATOM     31  H   UNL     1      23.928  27.485  14.313  0.00  0.00    +0.155 HD
BRANCH  14  15
ATOM     15  C   UNL     1      25.617  27.399  16.281  0.00  0.00    +0.037 A 
ATOM     16  C   UNL     1      26.409  26.220  15.924  0.00  0.00    +0.013 A 
ATOM     17  C   UNL     1      27.848  26.300  15.883  0.00  0.00    +0.005 A 
ATOM     18  C   UNL     1      28.503  27.567  16.201  0.00  0.00    -0.033 A 
ATOM     28  C   UNL     1      27.693  28.722  16.547  0.00  0.00    +0.005 A 
ATOM     29  C   UNL     1      26.283  28.647  16.589  0.00  0.00    +0.013 A 
BRANCH  18  19
ATOM     19  C   UNL     1      30.034  27.738  16.203  0.00  0.00    +0.119 C 
BRANCH  19  20
ATOM     20  N   UNL     1      30.720  27.777  14.877  0.00  0.00    -0.302 NA
ATOM     21  C   UNL     1      29.875  28.483  13.814  0.00  0.00    +0.066 C 
ATOM     22  C   UNL     1      30.617  28.535  12.439  0.00  0.00    -0.064 C 
ATOM     23  N   UNL     1      30.966  27.112  11.997  0.00  0.00    +0.379 N 
ATOM     24  C   UNL     1      31.612  27.153  10.677  0.00  0.00    -0.096 C 
ATOM     25  H   UNL     1      30.010  26.548  11.889  0.00  0.00    -0.082 HD
ATOM     26  C   UNL     1      31.804  26.402  13.050  0.00  0.00    -0.064 C 
ATOM     27  C   UNL     1      31.070  26.382  14.420  0.00  0.00    +0.066 C 
ENDBRANCH  19  20
ENDBRANCH  18  19
ENDBRANCH  14  15
ENDBRANCH  12  13
TORSDOF 6
ENDMDL
MODEL 4
REMARK VINA RESULT:      -7.9     17.467     19.966
REMARK  Name = C:\Users\Docking\Desktop\test protocol\1iep_ligandH.pdb
REMARK  8 active torsions:
REMARK  status: ('A' for Active; 'I' for Inactive)
REMARK    1  A    between atoms: _5  and  _11
REMARK    2  A    between atoms: _19  and  _21
REMARK    3  A    between atoms: _22  and  _66
REMARK    4  A    between atoms: _27  and  _30
REMARK    5  A    between atoms: _32  and  _33
REMARK    6  A    between atoms: _38  and  _43
REMARK    7  A    between atoms: _43  and  _46
REMARK    8  A    between atoms: _53  and  _55
REMARK                            x       y       z     vdW  Elec       q    Type
REMARK                         _______ _______ _______ _____ _____    ______ ____
ROOT
ATOM     10  C   UNL     1       6.242  33.523  20.340  0.00  0.00    +0.038 A 
ATOM     11  C   UNL     1       5.256  33.538  21.360  0.00  0.00    +0.047 A 
ATOM     12  C   UNL     1       5.402  32.728  22.559  0.00  0.00    +0.035 A 
ATOM     32  C   UNL     1       6.566  31.916  22.689  0.00  0.00    +0.024 A 
ATOM     33  C   UNL     1       7.578  31.888  21.661  0.00  0.00    +0.007 A 
ATOM     34  C   UNL     1       7.438  32.683  20.475  0.00  0.00    -0.029 A 
ATOM     35  C   UNL     1       8.550  32.609  19.403  0.00  0.00    +0.045 C 
ENDROOT
BRANCH  10   9
ATOM      4  C   UNL     1       5.675  37.791  18.218  0.00  0.00    +0.077 A 
ATOM      5  C   UNL     1       5.738  38.488  19.470  0.00  0.00    +0.048 A 
ATOM      6  C   UNL     1       5.910  37.711  20.638  0.00  0.00    +0.116 A 
ATOM      7  N   UNL     1       6.010  36.340  20.548  0.00  0.00    -0.223 NA
ATOM      8  C   UNL     1       5.944  35.699  19.325  0.00  0.00    +0.220 A 
ATOM      9  N   UNL     1       6.051  34.321  19.210  0.00  0.00    -0.283 N 
ATOM     36  H   UNL     1       5.989  33.885  18.290  0.00  0.00    +0.155 HD
ATOM     37  N   UNL     1       5.779  36.418  18.195  0.00  0.00    -0.214 NA
BRANCH   4   3
ATOM      1  C   UNL     1       5.675  40.476  15.373  0.00  0.00    +0.020 A 
ATOM      2  C   UNL     1       5.865  39.865  16.669  0.00  0.00    +0.013 A 
ATOM      3  C   UNL     1       5.499  38.473  16.897  0.00  0.00    +0.019 A 
ATOM     38  C   UNL     1       4.941  37.720  15.784  0.00  0.00    +0.120 A 
ATOM     39  N   UNL     1       4.768  38.335  14.548  0.00  0.00    -0.263 NA
ATOM     40  C   UNL     1       5.115  39.674  14.317  0.00  0.00    +0.111 A 
ENDBRANCH   4   3
ENDBRANCH  10   9
BRANCH  12  13
ATOM     13  N   UNL     1       4.430  32.696  23.624  0.00  0.00    -0.281 N 
ATOM     14  C   UNL     1       4.105  33.709  24.511  0.00  0.00    +0.248 C 
ATOM     30  O   UNL     1       4.756  34.732  24.660  0.00  0.00    -0.270 OA
ATOM     31  H   UNL     1       3.920  31.819  23.738  0.00  0.00    +0.155 HD
BRANCH  14  15
ATOM     15  C   UNL     1       2.889  33.557  25.367  0.00  0.00    +0.037 A 
ATOM     16  C   UNL     1       2.349  34.686  26.128  0.00  0.00    +0.013 A 
ATOM     17  C   UNL     1       1.185  34.508  26.959  0.00  0.00    +0.005 A 
ATOM     18  C   UNL     1       0.552  33.193  27.032  0.00  0.00    -0.033 A 
ATOM     28  C   UNL     1       1.105  32.092  26.262  0.00  0.00    +0.005 A 
ATOM     29  C   UNL     1       2.246  32.262  25.447  0.00  0.00    +0.013 A 
BRANCH  18  19
ATOM     19  C   UNL     1      -0.682  32.907  27.909  0.00  0.00    +0.119 C 
BRANCH  19  20
ATOM     20  N   UNL     1      -0.788  31.546  28.516  0.00  0.00    -0.302 NA
ATOM     21  C   UNL     1      -2.000  30.774  27.987  0.00  0.00    +0.066 C 
ATOM     22  C   UNL     1      -2.083  29.345  28.615  0.00  0.00    -0.064 C 
ATOM     23  N   UNL     1      -2.139  29.463  30.139  0.00  0.00    +0.379 N 
ATOM     24  C   UNL     1      -2.275  28.124  30.731  0.00  0.00    -0.096 C 
ATOM     25  H   UNL     1      -3.054  30.043  30.400  0.00  0.00    -0.082 HD
ATOM     26  C   UNL     1      -0.938  30.232  30.673  0.00  0.00    -0.064 C 
ATOM     27  C   UNL     1      -0.849  31.640  30.021  0.00  0.00    +0.066 C 
ENDBRANCH  19  20
ENDBRANCH  18  19
ENDBRANCH  14  15
ENDBRANCH  12  13
TORSDOF 6
ENDMDL
MODEL 5
REMARK VINA RESULT:      -7.8     17.635     20.011
REMARK  Name = C:\Users\Docking\Desktop\test protocol\1iep_ligandH.pdb
REMARK  8 active torsions:
REMARK  status: ('A' for Active; 'I' for Inactive)
REMARK    1  A    between atoms: _5  and  _11
REMARK    2  A    between atoms: _19  and  _21
REMARK    3  A    between atoms: _22  and  _66
REMARK    4  A    between atoms: _27  and  _30
REMARK    5  A    between atoms: _32  and  _33
REMARK    6  A    between atoms: _38  and  _43
REMARK    7  A    between atoms: _43  and  _46
REMARK    8  A    between atoms: _53  and  _55
REMARK                            x       y       z     vdW  Elec       q    Type
REMARK                         _______ _______ _______ _____ _____    ______ ____
ROOT
ATOM     10  C   UNL     1       5.540  39.653  19.950  0.00  0.00    +0.038 A 
ATOM     11  C   UNL     1       5.890  38.322  20.294  0.00  0.00    +0.047 A 
ATOM     12  C   UNL     1       5.495  37.200  19.456  0.00  0.00    +0.035 A 
ATOM     32  C   UNL     1       4.748  37.471  18.273  0.00  0.00    +0.024 A 
ATOM     33  C   UNL     1       4.383  38.817  17.909  0.00  0.00    +0.007 A 
ATOM     34  C   UNL     1       4.767  39.928  18.733  0.00  0.00    -0.029 A 
ATOM     35  C   UNL     1       4.344  41.350  18.297  0.00  0.00    +0.045 C 
ENDROOT
BRANCH  10   9
ATOM      4  C   UNL     1       4.896  42.526  23.741  0.00  0.00    +0.077 A 
ATOM      5  C   UNL     1       3.633  41.924  24.057  0.00  0.00    +0.048 A 
ATOM      6  C   UNL     1       3.182  40.882  23.215  0.00  0.00    +0.116 A 
ATOM      7  N   UNL     1       3.945  40.481  22.140  0.00  0.00    -0.223 NA
ATOM      8  C   UNL     1       5.157  41.085  21.862  0.00  0.00    +0.220 A 
ATOM      9  N   UNL     1       5.945  40.693  20.791  0.00  0.00    -0.283 N 
ATOM     36  H   UNL     1       6.830  41.168  20.615  0.00  0.00    +0.155 HD
ATOM     37  N   UNL     1       5.610  42.083  22.650  0.00  0.00    -0.214 NA
BRANCH   4   3
ATOM      1  C   UNL     1       7.244  44.559  26.118  0.00  0.00    +0.020 A 
ATOM      2  C   UNL     1       6.692  43.454  25.368  0.00  0.00    +0.013 A 
ATOM      3  C   UNL     1       5.508  43.636  24.537  0.00  0.00    +0.019 A 
ATOM     38  C   UNL     1       4.904  44.958  24.485  0.00  0.00    +0.120 A 
ATOM     39  N   UNL     1       5.457  46.003  25.219  0.00  0.00    -0.263 NA
ATOM     40  C   UNL     1       6.595  45.840  26.024  0.00  0.00    +0.111 A 
ENDBRANCH   4   3
ENDBRANCH  10   9
BRANCH  12  13
ATOM     13  N   UNL     1       5.814  35.827  19.759  0.00  0.00    -0.281 N 
ATOM     14  C   UNL     1       6.897  35.086  19.314  0.00  0.00    +0.248 C 
ATOM     30  O   UNL     1       7.646  35.431  18.412  0.00  0.00    -0.270 OA
ATOM     31  H   UNL     1       5.162  35.342  20.376  0.00  0.00    +0.155 HD
BRANCH  14  15
ATOM     15  C   UNL     1       7.180  33.766  19.954  0.00  0.00    +0.037 A 
ATOM     16  C   UNL     1       6.553  33.386  21.223  0.00  0.00    +0.013 A 
ATOM     17  C   UNL     1       6.856  32.113  21.827  0.00  0.00    +0.005 A 
ATOM     18  C   UNL     1       7.792  31.209  21.162  0.00  0.00    -0.033 A 
ATOM     28  C   UNL     1       8.396  31.609  19.902  0.00  0.00    +0.005 A 
ATOM     29  C   UNL     1       8.101  32.856  19.307  0.00  0.00    +0.013 A 
BRANCH  18  19
ATOM     19  C   UNL     1       8.190  29.841  21.745  0.00  0.00    +0.119 C 
BRANCH  19  20
ATOM     20  N   UNL     1       8.433  28.730  20.777  0.00  0.00    -0.302 NA
ATOM     21  C   UNL     1       7.718  27.440  21.191  0.00  0.00    +0.066 C 
ATOM     22  C   UNL     1       7.964  26.295  20.156  0.00  0.00    -0.064 C 
ATOM     23  N   UNL     1       9.468  26.057  20.011  0.00  0.00    +0.379 N 
ATOM     24  C   UNL     1       9.701  24.942  19.082  0.00  0.00    -0.096 C 
ATOM     25  H   UNL     1       9.860  25.754  21.009  0.00  0.00    -0.082 HD
ATOM     26  C   UNL     1      10.188  27.335  19.602  0.00  0.00    -0.064 C 
ATOM     27  C   UNL     1       9.912  28.475  20.622  0.00  0.00    +0.066 C 
ENDBRANCH  19  20
ENDBRANCH  18  19
ENDBRANCH  14  15
ENDBRANCH  12  13
TORSDOF 6
ENDMDL
