MODEL 1
REMARK VINA RESULT:      -9.0      0.000      0.000
REMARK  Name = C:\Users\Docking\Desktop\test protocol\1iep_ligandH.pdb
REMARK  8 active torsions:
REMARK  status: ('A' for Active; 'I' for Inactive)
REMARK    1  A    between atoms: _5  and  _11
REMARK    2  A    between atoms: _19  and  _21
REMARK    3  A    between atoms: _22  and  _66
REMARK    4  A    between atoms: _27  and  _30
REMARK    5  A    between atoms: _32  and  _33
REMARK    6  A    between atoms: _38  and  _43
REMARK    7  A    between atoms: _43  and  _46
REMARK    8  A    between atoms: _53  and  _55
REMARK                            x       y       z     vdW  Elec       q    Type
REMARK                         _______ _______ _______ _____ _____    ______ ____
ROOT
ATOM     10  C   UNL     1     114.141 408.906 159.952  0.00  0.00    +0.038 A 
ATOM     11  C   UNL     1     114.629 409.962 160.763  0.00  0.00    +0.047 A 
ATOM     12  C   UNL     1     113.776 411.080 161.137  0.00  0.00    +0.035 A 
ATOM     32  C   UNL     1     112.430 411.088 160.669  0.00  0.00    +0.024 A 
ATOM     33  C   UNL     1     111.917 410.023 159.843  0.00  0.00    +0.007 A 
ATOM     34  C   UNL     1     112.754 408.920 159.469  0.00  0.00    -0.029 A 
ATOM     35  C   UNL     1     112.154 407.809 158.576  0.00  0.00    +0.045 C 
ENDROOT
BRANCH  10   9
ATOM      4  C   UNL     1     117.638 406.979 157.288  0.00  0.00    +0.077 A 
ATOM      5  C   UNL     1     117.736 408.149 156.465  0.00  0.00    +0.048 A 
ATOM      6  C   UNL     1     116.864 409.222 156.755  0.00  0.00    +0.116 A 
ATOM      7  N   UNL     1     115.965 409.122 157.794  0.00  0.00    -0.223 NA
ATOM      8  C   UNL     1     115.894 407.978 158.568  0.00  0.00    +0.220 A 
ATOM      9  N   UNL     1     115.003 407.858 159.623  0.00  0.00    -0.283 N 
ATOM     36  H   UNL     1     114.977 406.994 160.165  0.00  0.00    +0.155 HD
ATOM     37  N   UNL     1     116.715 406.938 158.310  0.00  0.00    -0.214 NA
BRANCH   4   3
ATOM      1  C   UNL     1     119.383 403.837 155.743  0.00  0.00    +0.020 A 
ATOM      2  C   UNL     1     118.539 405.004 155.865  0.00  0.00    +0.013 A 
ATOM      3  C   UNL     1     118.493 405.763 157.108  0.00  0.00    +0.019 A 
ATOM     38  C   UNL     1     119.319 405.312 158.218  0.00  0.00    +0.120 A 
ATOM     39  N   UNL     1     120.121 404.184 158.072  0.00  0.00    -0.263 NA
ATOM     40  C   UNL     1     120.172 403.445 156.881  0.00  0.00    +0.111 A 
ENDBRANCH   4   3
ENDBRANCH  10   9
BRANCH  12  13
ATOM     13  N   UNL     1     114.219 412.184 161.951  0.00  0.00    -0.281 N 
ATOM     14  C   UNL     1     114.059 412.353 163.317  0.00  0.00    +0.248 C 
ATOM     30  O   UNL     1     113.319 411.676 164.015  0.00  0.00    -0.270 OA
ATOM     31  H   UNL     1     114.709 412.932 161.461  0.00  0.00    +0.155 HD
BRANCH  14  15
ATOM     15  C   UNL     1     114.820 413.441 164.004  0.00  0.00    +0.037 A 
ATOM     16  C   UNL     1     114.793 413.583 165.461  0.00  0.00    +0.013 A 
ATOM     17  C   UNL     1     115.522 414.651 166.097  0.00  0.00    +0.005 A 
ATOM     18  C   UNL     1     116.287 415.586 165.274  0.00  0.00    -0.033 A 
ATOM     28  C   UNL     1     116.301 415.418 163.831  0.00  0.00    +0.005 A 
ATOM     29  C   UNL     1     115.586 414.373 163.204  0.00  0.00    +0.013 A 
BRANCH  18  19
ATOM     19  C   UNL     1     117.078 416.768 165.866  0.00  0.00    +0.119 C 
BRANCH  19  20
ATOM     20  N   UNL     1     117.686 417.733 164.903  0.00  0.00    -0.302 NA
ATOM     21  C   UNL     1     119.215 417.651 164.896  0.00  0.00    +0.066 C 
ATOM     22  C   UNL     1     119.834 418.652 163.867  0.00  0.00    -0.064 C 
ATOM     23  N   UNL     1     119.370 420.072 164.198  0.00  0.00    +0.379 N 
ATOM     24  C   UNL     1     119.996 421.022 163.267  0.00  0.00    -0.096 C 
ATOM     25  H   UNL     1     119.730 420.315 165.224  0.00  0.00    -0.082 HD
ATOM     26  C   UNL     1     117.850 420.162 164.210  0.00  0.00    -0.064 C 
ATOM     27  C   UNL     1     117.244 419.142 165.214  0.00  0.00    +0.066 C 
ENDBRANCH  19  20
ENDBRANCH  18  19
ENDBRANCH  14  15
ENDBRANCH  12  13
TORSDOF 6
ENDMDL
MODEL 2
REMARK VINA RESULT:      -8.7     15.991     18.962
REMARK  Name = C:\Users\Docking\Desktop\test protocol\1iep_ligandH.pdb
REMARK  8 active torsions:
REMARK  status: ('A' for Active; 'I' for Inactive)
REMARK    1  A    between atoms: _5  and  _11
REMARK    2  A    between atoms: _19  and  _21
REMARK    3  A    between atoms: _22  and  _66
REMARK    4  A    between atoms: _27  and  _30
REMARK    5  A    between atoms: _32  and  _33
REMARK    6  A    between atoms: _38  and  _43
REMARK    7  A    between atoms: _43  and  _46
REMARK    8  A    between atoms: _53  and  _55
REMARK                            x       y       z     vdW  Elec       q    Type
REMARK                         _______ _______ _______ _____ _____    ______ ____
ROOT
ATOM     10  C   UNL     1     130.812 408.539 156.099  0.00  0.00    +0.038 A 
ATOM     11  C   UNL     1     131.804 408.606 157.110  0.00  0.00    +0.047 A 
ATOM     12  C   UNL     1     131.632 407.920 158.381  0.00  0.00    +0.035 A 
ATOM     32  C   UNL     1     130.436 407.171 158.587  0.00  0.00    +0.024 A 
ATOM     33  C   UNL     1     129.417 407.093 157.570  0.00  0.00    +0.007 A 
ATOM     34  C   UNL     1     129.581 407.770 156.316  0.00  0.00    -0.029 A 
ATOM     35  C   UNL     1     128.452 407.656 155.265  0.00  0.00    +0.045 C 
ENDROOT
BRANCH  10   9
ATOM      4  C   UNL     1     132.739 408.873 151.716  0.00  0.00    +0.077 A 
ATOM      5  C   UNL     1     133.388 407.600 151.839  0.00  0.00    +0.048 A 
ATOM      6  C   UNL     1     133.207 406.894 153.050  0.00  0.00    +0.116 A 
ATOM      7  N   UNL     1     132.432 407.431 154.055  0.00  0.00    -0.223 NA
ATOM      8  C   UNL     1     131.821 408.662 153.903  0.00  0.00    +0.220 A 
ATOM      9  N   UNL     1     131.030 409.217 154.898  0.00  0.00    -0.283 N 
ATOM     36  H   UNL     1     130.603 410.132 154.750  0.00  0.00    +0.155 HD
ATOM     37  N   UNL     1     131.980 409.356 152.758  0.00  0.00    -0.214 NA
BRANCH   4   3
ATOM      1  C   UNL     1     132.117 411.706 149.091  0.00  0.00    +0.020 A 
ATOM      2  C   UNL     1     131.987 410.905 150.286  0.00  0.00    +0.013 A 
ATOM      3  C   UNL     1     132.833 409.737 150.496  0.00  0.00    +0.019 A 
ATOM     38  C   UNL     1     133.809 409.404 149.470  0.00  0.00    +0.120 A 
ATOM     39  N   UNL     1     133.912 410.194 148.329  0.00  0.00    -0.263 NA
ATOM     40  C   UNL     1     133.102 411.319 148.115  0.00  0.00    +0.111 A 
ENDBRANCH   4   3
ENDBRANCH  10   9
BRANCH  12  13
ATOM     13  N   UNL     1     132.601 407.959 159.448  0.00  0.00    -0.281 N 
ATOM     14  C   UNL     1     133.743 407.187 159.589  0.00  0.00    +0.248 C 
ATOM     30  O   UNL     1     133.992 406.193 158.924  0.00  0.00    -0.270 OA
ATOM     31  H   UNL     1     132.424 408.637 160.188  0.00  0.00    +0.155 HD
BRANCH  14  15
ATOM     15  C   UNL     1     134.746 407.567 160.630  0.00  0.00    +0.037 A 
ATOM     16  C   UNL     1     134.809 406.868 161.916  0.00  0.00    +0.013 A 
ATOM     17  C   UNL     1     135.775 407.265 162.909  0.00  0.00    +0.005 A 
ATOM     18  C   UNL     1     136.688 408.368 162.619  0.00  0.00    -0.033 A 
ATOM     28  C   UNL     1     136.607 409.041 161.333  0.00  0.00    +0.005 A 
ATOM     29  C   UNL     1     135.661 408.655 160.358  0.00  0.00    +0.013 A 
BRANCH  18  19
ATOM     19  C   UNL     1     137.736 408.874 163.628  0.00  0.00    +0.119 C 
BRANCH  19  20
ATOM     20  N   UNL     1     137.354 410.032 164.489  0.00  0.00    -0.302 NA
ATOM     21  C   UNL     1     138.024 411.332 164.035  0.00  0.00    +0.066 C 
ATOM     22  C   UNL     1     137.595 412.537 164.933  0.00  0.00    -0.064 C 
ATOM     23  N   UNL     1     137.940 412.231 166.391  0.00  0.00    +0.379 N 
ATOM     24  C   UNL     1     137.591 413.387 167.231  0.00  0.00    -0.096 C 
ATOM     25  H   UNL     1     139.044 412.088 166.454  0.00  0.00    -0.082 HD
ATOM     26  C   UNL     1     137.280 410.939 166.851  0.00  0.00    -0.064 C 
ATOM     27  C   UNL     1     137.690 409.753 165.933  0.00  0.00    +0.066 C 
ENDBRANCH  19  20
ENDBRANCH  18  19
ENDBRANCH  14  15
ENDBRANCH  12  13
TORSDOF 6
ENDMDL
MODEL 3
REMARK VINA RESULT:      -8.7      2.908     12.565
REMARK  Name = C:\Users\Docking\Desktop\test protocol\1iep_ligandH.pdb
REMARK  8 active torsions:
REMARK  status: ('A' for Active; 'I' for Inactive)
REMARK    1  A    between atoms: _5  and  _11
REMARK    2  A    between atoms: _19  and  _21
REMARK    3  A    between atoms: _22  and  _66
REMARK    4  A    between atoms: _27  and  _30
REMARK    5  A    between atoms: _32  and  _33
REMARK    6  A    between atoms: _38  and  _43
REMARK    7  A    between atoms: _43  and  _46
REMARK    8  A    between atoms: _53  and  _55
REMARK                            x       y       z     vdW  Elec       q    Type
REMARK                         _______ _______ _______ _____ _____    ______ ____
ROOT
ATOM     10  C   UNL     1     114.049 409.530 160.685  0.00  0.00    +0.038 A 
ATOM     11  C   UNL     1     115.110 408.848 160.036  0.00  0.00    +0.047 A 
ATOM     12  C   UNL     1     114.863 407.997 158.882  0.00  0.00    +0.035 A 
ATOM     32  C   UNL     1     113.523 407.867 158.414  0.00  0.00    +0.024 A 
ATOM     33  C   UNL     1     112.433 408.552 159.062  0.00  0.00    +0.007 A 
ATOM     34  C   UNL     1     112.670 409.390 160.202  0.00  0.00    -0.029 A 
ATOM     35  C   UNL     1     111.463 410.096 160.862  0.00  0.00    +0.045 C 
ENDROOT
BRANCH  10   9
ATOM      4  C   UNL     1     115.602 413.628 162.644  0.00  0.00    +0.077 A 
ATOM      5  C   UNL     1     115.876 414.207 161.360  0.00  0.00    +0.048 A 
ATOM      6  C   UNL     1     115.610 413.414 160.221  0.00  0.00    +0.116 A 
ATOM      7  N   UNL     1     115.107 412.139 160.366  0.00  0.00    -0.223 NA
ATOM      8  C   UNL     1     114.856 411.611 161.619  0.00  0.00    +0.220 A 
ATOM      9  N   UNL     1     114.344 410.334 161.789  0.00  0.00    -0.283 N 
ATOM     36  H   UNL     1     114.179 409.977 162.730  0.00  0.00    +0.155 HD
ATOM     37  N   UNL     1     115.104 412.347 162.723  0.00  0.00    -0.214 NA
BRANCH   4   3
ATOM      1  C   UNL     1     115.571 414.572 166.439  0.00  0.00    +0.020 A 
ATOM      2  C   UNL     1     115.325 413.845 165.215  0.00  0.00    +0.013 A 
ATOM      3  C   UNL     1     115.828 414.341 163.941  0.00  0.00    +0.019 A 
ATOM     38  C   UNL     1     116.584 415.584 163.939  0.00  0.00    +0.120 A 
ATOM     39  N   UNL     1     116.804 416.264 165.133  0.00  0.00    -0.263 NA
ATOM     40  C   UNL     1     116.323 415.797 166.366  0.00  0.00    +0.111 A 
ENDBRANCH   4   3
ENDBRANCH  10   9
BRANCH  12  13
ATOM     13  N   UNL     1     115.899 407.274 158.187  0.00  0.00    -0.281 N 
ATOM     14  C   UNL     1     116.655 406.211 158.654  0.00  0.00    +0.248 C 
ATOM     30  O   UNL     1     116.702 405.857 159.823  0.00  0.00    -0.270 OA
ATOM     31  H   UNL     1     116.099 407.582 157.236  0.00  0.00    +0.155 HD
BRANCH  14  15
ATOM     15  C   UNL     1     117.490 405.438 157.685  0.00  0.00    +0.037 A 
ATOM     16  C   UNL     1     118.755 404.822 158.094  0.00  0.00    +0.013 A 
ATOM     17  C   UNL     1     119.549 404.097 157.135  0.00  0.00    +0.005 A 
ATOM     18  C   UNL     1     119.080 403.982 155.756  0.00  0.00    -0.033 A 
ATOM     28  C   UNL     1     117.818 404.598 155.379  0.00  0.00    +0.005 A 
ATOM     29  C   UNL     1     117.037 405.311 156.316  0.00  0.00    +0.013 A 
BRANCH  18  19
ATOM     19  C   UNL     1     119.873 403.244 154.661  0.00  0.00    +0.119 C 
BRANCH  19  20
ATOM     20  N   UNL     1     119.587 403.615 153.243  0.00  0.00    -0.302 NA
ATOM     21  C   UNL     1     119.748 402.424 152.294  0.00  0.00    +0.066 C 
ATOM     22  C   UNL     1     119.423 402.824 150.818  0.00  0.00    -0.064 C 
ATOM     23  N   UNL     1     120.330 403.980 150.394  0.00  0.00    +0.379 N 
ATOM     24  C   UNL     1     120.068 404.320 148.988  0.00  0.00    -0.096 C 
ATOM     25  H   UNL     1     121.385 403.626 150.466  0.00  0.00    -0.082 HD
ATOM     26  C   UNL     1     120.178 405.168 151.334  0.00  0.00    -0.064 C 
ATOM     27  C   UNL     1     120.475 404.753 152.802  0.00  0.00    +0.066 C 
ENDBRANCH  19  20
ENDBRANCH  18  19
ENDBRANCH  14  15
ENDBRANCH  12  13
TORSDOF 6
ENDMDL
MODEL 4
REMARK VINA RESULT:      -8.5     15.933     19.716
REMARK  Name = C:\Users\Docking\Desktop\test protocol\1iep_ligandH.pdb
REMARK  8 active torsions:
REMARK  status: ('A' for Active; 'I' for Inactive)
REMARK    1  A    between atoms: _5  and  _11
REMARK    2  A    between atoms: _19  and  _21
REMARK    3  A    between atoms: _22  and  _66
REMARK    4  A    between atoms: _27  and  _30
REMARK    5  A    between atoms: _32  and  _33
REMARK    6  A    between atoms: _38  and  _43
REMARK    7  A    between atoms: _43  and  _46
REMARK    8  A    between atoms: _53  and  _55
REMARK                            x       y       z     vdW  Elec       q    Type
REMARK                         _______ _______ _______ _____ _____    ______ ____
ROOT
ATOM     10  C   UNL     1     130.700 408.148 156.936  0.00  0.00    +0.038 A 
ATOM     11  C   UNL     1     131.309 408.957 155.942  0.00  0.00    +0.047 A 
ATOM     12  C   UNL     1     130.638 409.231 154.681  0.00  0.00    +0.035 A 
ATOM     32  C   UNL     1     129.346 408.668 154.466  0.00  0.00    +0.024 A 
ATOM     33  C   UNL     1     128.714 407.843 155.465  0.00  0.00    +0.007 A 
ATOM     34  C   UNL     1     129.372 407.566 156.710  0.00  0.00    -0.029 A 
ATOM     35  C   UNL     1     128.649 406.670 157.742  0.00  0.00    +0.045 C 
ENDROOT
BRANCH  10   9
ATOM      4  C   UNL     1     133.823 405.669 159.608  0.00  0.00    +0.077 A 
ATOM      5  C   UNL     1     134.083 404.739 158.547  0.00  0.00    +0.048 A 
ATOM      6  C   UNL     1     133.388 404.929 157.332  0.00  0.00    +0.116 A 
ATOM      7  N   UNL     1     132.501 405.976 157.199  0.00  0.00    -0.223 NA
ATOM      8  C   UNL     1     132.272 406.853 158.243  0.00  0.00    +0.220 A 
ATOM      9  N   UNL     1     131.390 407.917 158.128  0.00  0.00    -0.283 N 
ATOM     36  H   UNL     1     131.243 408.538 158.924  0.00  0.00    +0.155 HD
ATOM     37  N   UNL     1     132.922 406.692 159.413  0.00  0.00    -0.214 NA
BRANCH   4   3
ATOM      1  C   UNL     1     135.529 406.667 162.983  0.00  0.00    +0.020 A 
ATOM      2  C   UNL     1     134.897 406.787 161.690  0.00  0.00    +0.013 A 
ATOM      3  C   UNL     1     134.483 405.601 160.950  0.00  0.00    +0.019 A 
ATOM     38  C   UNL     1     134.724 404.299 161.552  0.00  0.00    +0.120 A 
ATOM     39  N   UNL     1     135.337 404.214 162.799  0.00  0.00    -0.263 NA
ATOM     40  C   UNL     1     135.741 405.348 163.519  0.00  0.00    +0.111 A 
ENDBRANCH   4   3
ENDBRANCH  10   9
BRANCH  12  13
ATOM     13  N   UNL     1     131.209 410.038 153.632  0.00  0.00    -0.281 N 
ATOM     14  C   UNL     1     131.750 409.613 152.429  0.00  0.00    +0.248 C 
ATOM     30  O   UNL     1     132.019 408.451 152.165  0.00  0.00    -0.270 OA
ATOM     31  H   UNL     1     131.216 411.045 153.795  0.00  0.00    +0.155 HD
BRANCH  14  15
ATOM     15  C   UNL     1     132.048 410.628 151.373  0.00  0.00    +0.037 A 
ATOM     16  C   UNL     1     131.790 412.053 151.593  0.00  0.00    +0.013 A 
ATOM     17  C   UNL     1     132.070 413.009 150.552  0.00  0.00    +0.005 A 
ATOM     18  C   UNL     1     132.615 412.542 149.279  0.00  0.00    -0.033 A 
ATOM     28  C   UNL     1     132.866 411.123 149.089  0.00  0.00    +0.005 A 
ATOM     29  C   UNL     1     132.591 410.183 150.107  0.00  0.00    +0.013 A 
BRANCH  18  19
ATOM     19  C   UNL     1     132.924 413.488 148.104  0.00  0.00    +0.119 C 
BRANCH  19  20
ATOM     20  N   UNL     1     133.680 414.738 148.414  0.00  0.00    -0.302 NA
ATOM     21  C   UNL     1     133.614 415.749 147.266  0.00  0.00    +0.066 C 
ATOM     22  C   UNL     1     134.391 417.060 147.616  0.00  0.00    -0.064 C 
ATOM     23  N   UNL     1     135.843 416.714 147.949  0.00  0.00    +0.379 N 
ATOM     24  C   UNL     1     136.591 417.950 148.223  0.00  0.00    -0.096 C 
ATOM     25  H   UNL     1     136.293 416.239 147.047  0.00  0.00    -0.082 HD
ATOM     26  C   UNL     1     135.919 415.707 149.088  0.00  0.00    -0.064 C 
ATOM     27  C   UNL     1     135.118 414.421 148.742  0.00  0.00    +0.066 C 
ENDBRANCH  19  20
ENDBRANCH  18  19
ENDBRANCH  14  15
ENDBRANCH  12  13
TORSDOF 6
ENDMDL
MODEL 5
REMARK VINA RESULT:      -8.3     15.924     19.090
REMARK  Name = C:\Users\Docking\Desktop\test protocol\1iep_ligandH.pdb
REMARK  8 active torsions:
REMARK  status: ('A' for Active; 'I' for Inactive)
REMARK    1  A    between atoms: _5  and  _11
REMARK    2  A    between atoms: _19  and  _21
REMARK    3  A    between atoms: _22  and  _66
REMARK    4  A    between atoms: _27  and  _30
REMARK    5  A    between atoms: _32  and  _33
REMARK    6  A    between atoms: _38  and  _43
REMARK    7  A    between atoms: _43  and  _46
REMARK    8  A    between atoms: _53  and  _55
REMARK                            x       y       z     vdW  Elec       q    Type
REMARK                         _______ _______ _______ _____ _____    ______ ____
ROOT
ATOM     10  C   UNL     1     130.791 407.888 155.890  0.00  0.00    +0.038 A 
ATOM     11  C   UNL     1     131.808 407.847 156.877  0.00  0.00    +0.047 A 
ATOM     12  C   UNL     1     131.508 407.484 158.253  0.00  0.00    +0.035 A 
ATOM     32  C   UNL     1     130.160 407.166 158.589  0.00  0.00    +0.024 A 
ATOM     33  C   UNL     1     129.113 407.203 157.598  0.00  0.00    +0.007 A 
ATOM     34  C   UNL     1     129.403 407.563 156.240  0.00  0.00    -0.029 A 
ATOM     35  C   UNL     1     128.239 407.594 155.222  0.00  0.00    +0.045 C 
ENDROOT
BRANCH  10   9
ATOM      4  C   UNL     1     131.686 411.154 152.488  0.00  0.00    +0.077 A 
ATOM      5  C   UNL     1     131.417 412.244 153.381  0.00  0.00    +0.048 A 
ATOM      6  C   UNL     1     131.045 411.922 154.706  0.00  0.00    +0.116 A 
ATOM      7  N   UNL     1     130.952 410.604 155.097  0.00  0.00    -0.223 NA
ATOM      8  C   UNL     1     131.216 409.576 154.210  0.00  0.00    +0.220 A 
ATOM      9  N   UNL     1     131.136 408.244 154.584  0.00  0.00    -0.283 N 
ATOM     36  H   UNL     1     131.331 407.515 153.898  0.00  0.00    +0.155 HD
ATOM     37  N   UNL     1     131.572 409.858 152.939  0.00  0.00    -0.214 NA
BRANCH   4   3
ATOM      1  C   UNL     1     133.275 410.584 148.960  0.00  0.00    +0.020 A 
ATOM      2  C   UNL     1     132.910 410.363 150.340  0.00  0.00    +0.013 A 
ATOM      3  C   UNL     1     132.093 411.333 151.059  0.00  0.00    +0.019 A 
ATOM     38  C   UNL     1     131.658 412.525 150.346  0.00  0.00    +0.120 A 
ATOM     39  N   UNL     1     132.027 412.711 149.017  0.00  0.00    -0.263 NA
ATOM     40  C   UNL     1     132.814 411.786 148.316  0.00  0.00    +0.111 A 
ENDBRANCH   4   3
ENDBRANCH  10   9
BRANCH  12  13
ATOM     13  N   UNL     1     132.498 407.433 159.300  0.00  0.00    -0.281 N 
ATOM     14  C   UNL     1     133.134 406.316 159.817  0.00  0.00    +0.248 C 
ATOM     30  O   UNL     1     132.789 405.163 159.603  0.00  0.00    -0.270 OA
ATOM     31  H   UNL     1     132.763 408.329 159.710  0.00  0.00    +0.155 HD
BRANCH  14  15
ATOM     15  C   UNL     1     134.315 406.508 160.713  0.00  0.00    +0.037 A 
ATOM     16  C   UNL     1     135.235 407.633 160.528  0.00  0.00    +0.013 A 
ATOM     17  C   UNL     1     136.376 407.785 161.395  0.00  0.00    +0.005 A 
ATOM     18  C   UNL     1     136.602 406.808 162.458  0.00  0.00    -0.033 A 
ATOM     28  C   UNL     1     135.671 405.705 162.623  0.00  0.00    +0.005 A 
ATOM     29  C   UNL     1     134.552 405.552 161.774  0.00  0.00    +0.013 A 
BRANCH  18  19
ATOM     19  C   UNL     1     137.805 406.880 163.418  0.00  0.00    +0.119 C 
BRANCH  19  20
ATOM     20  N   UNL     1     137.627 407.655 164.682  0.00  0.00    -0.302 NA
ATOM     21  C   UNL     1     137.290 409.124 164.412  0.00  0.00    +0.066 C 
ATOM     22  C   UNL     1     137.084 409.915 165.745  0.00  0.00    -0.064 C 
ATOM     23  N   UNL     1     138.344 409.797 166.604  0.00  0.00    +0.379 N 
ATOM     24  C   UNL     1     138.176 410.587 167.833  0.00  0.00    -0.096 C 
ATOM     25  H   UNL     1     139.189 410.242 166.028  0.00  0.00    -0.082 HD
ATOM     26  C   UNL     1     138.688 408.339 166.875  0.00  0.00    -0.064 C 
ATOM     27  C   UNL     1     138.861 407.555 165.544  0.00  0.00    +0.066 C 
ENDBRANCH  19  20
ENDBRANCH  18  19
ENDBRANCH  14  15
ENDBRANCH  12  13
TORSDOF 6
ENDMDL
