MODEL 1
REMARK VINA RESULT:      -8.5      0.000      0.000
REMARK  Name = C:\Users\Docking\Desktop\test protocol\1iep_ligandH.pdb
REMARK  8 active torsions:
REMARK  status: ('A' for Active; 'I' for Inactive)
REMARK    1  A    between atoms: _5  and  _11
REMARK    2  A    between atoms: _19  and  _21
REMARK    3  A    between atoms: _22  and  _66
REMARK    4  A    between atoms: _27  and  _30
REMARK    5  A    between atoms: _32  and  _33
REMARK    6  A    between atoms: _38  and  _43
REMARK    7  A    between atoms: _43  and  _46
REMARK    8  A    between atoms: _53  and  _55
REMARK                            x       y       z     vdW  Elec       q    Type
REMARK                         _______ _______ _______ _____ _____    ______ ____
ROOT
ATOM     10  C   UNL     1      20.174  25.396   4.035  0.00  0.00    +0.038 A 
ATOM     11  C   UNL     1      18.878  25.149   4.555  0.00  0.00    +0.047 A 
ATOM     12  C   UNL     1      18.332  23.801   4.607  0.00  0.00    +0.035 A 
ATOM     32  C   UNL     1      19.135  22.728   4.122  0.00  0.00    +0.024 A 
ATOM     33  C   UNL     1      20.454  22.962   3.589  0.00  0.00    +0.007 A 
ATOM     34  C   UNL     1      20.997  24.289   3.533  0.00  0.00    -0.029 A 
ATOM     35  C   UNL     1      22.414  24.481   2.945  0.00  0.00    +0.045 C 
ENDROOT
BRANCH  10   9
ATOM      4  C   UNL     1      21.050  29.536   1.770  0.00  0.00    +0.077 A 
ATOM      5  C   UNL     1      20.545  29.031   0.526  0.00  0.00    +0.048 A 
ATOM      6  C   UNL     1      20.075  27.698   0.510  0.00  0.00    +0.116 A 
ATOM      7  N   UNL     1      20.113  26.937   1.658  0.00  0.00    -0.223 NA
ATOM      8  C   UNL     1      20.608  27.454   2.841  0.00  0.00    +0.220 A 
ATOM      9  N   UNL     1      20.648  26.709   4.009  0.00  0.00    -0.283 N 
ATOM     36  H   UNL     1      21.028  27.125   4.859  0.00  0.00    +0.155 HD
ATOM     37  N   UNL     1      21.064  28.724   2.882  0.00  0.00    -0.214 NA
BRANCH   4   3
ATOM      1  C   UNL     1      22.876  32.942   1.164  0.00  0.00    +0.020 A 
ATOM      2  C   UNL     1      22.391  31.599   0.943  0.00  0.00    +0.013 A 
ATOM      3  C   UNL     1      21.578  30.926   1.948  0.00  0.00    +0.019 A 
ATOM     38  C   UNL     1      21.270  31.645   3.175  0.00  0.00    +0.120 A 
ATOM     39  N   UNL     1      21.752  32.937   3.361  0.00  0.00    -0.263 NA
ATOM     40  C   UNL     1      22.537  33.594   2.401  0.00  0.00    +0.111 A 
ENDBRANCH   4   3
ENDBRANCH  10   9
BRANCH  12  13
ATOM     13  N   UNL     1      17.020  23.490   5.117  0.00  0.00    -0.281 N 
ATOM     14  C   UNL     1      16.697  22.773   6.257  0.00  0.00    +0.248 C 
ATOM     30  O   UNL     1      17.492  22.104   6.901  0.00  0.00    -0.270 OA
ATOM     31  H   UNL     1      16.233  23.842   4.571  0.00  0.00    +0.155 HD
BRANCH  14  15
ATOM     15  C   UNL     1      15.284  22.790   6.745  0.00  0.00    +0.037 A 
ATOM     16  C   UNL     1      14.158  22.846   5.810  0.00  0.00    +0.013 A 
ATOM     17  C   UNL     1      12.805  22.878   6.308  0.00  0.00    +0.005 A 
ATOM     18  C   UNL     1      12.572  22.853   7.750  0.00  0.00    -0.033 A 
ATOM     28  C   UNL     1      13.708  22.793   8.655  0.00  0.00    +0.005 A 
ATOM     29  C   UNL     1      15.035  22.762   8.170  0.00  0.00    +0.013 A 
BRANCH  18  19
ATOM     19  C   UNL     1      11.164  22.906   8.370  0.00  0.00    +0.119 C 
BRANCH  19  20
ATOM     20  N   UNL     1      10.787  24.150   9.106  0.00  0.00    -0.302 NA
ATOM     21  C   UNL     1       9.631  23.912  10.081  0.00  0.00    +0.066 C 
ATOM     22  C   UNL     1       9.264  25.219  10.859  0.00  0.00    -0.064 C 
ATOM     23  N   UNL     1       8.911  26.321   9.859  0.00  0.00    +0.379 N 
ATOM     24  C   UNL     1       8.510  27.534  10.588  0.00  0.00    -0.096 C 
ATOM     25  H   UNL     1       8.031  25.974   9.270  0.00  0.00    -0.082 HD
ATOM     26  C   UNL     1      10.054  26.562   8.883  0.00  0.00    -0.064 C 
ATOM     27  C   UNL     1      10.430  25.251   8.138  0.00  0.00    +0.066 C 
ENDBRANCH  19  20
ENDBRANCH  18  19
ENDBRANCH  14  15
ENDBRANCH  12  13
TORSDOF 6
ENDMDL
MODEL 2
REMARK VINA RESULT:      -8.4      7.742     12.132
REMARK  Name = C:\Users\Docking\Desktop\test protocol\1iep_ligandH.pdb
REMARK  8 active torsions:
REMARK  status: ('A' for Active; 'I' for Inactive)
REMARK    1  A    between atoms: _5  and  _11
REMARK    2  A    between atoms: _19  and  _21
REMARK    3  A    between atoms: _22  and  _66
REMARK    4  A    between atoms: _27  and  _30
REMARK    5  A    between atoms: _32  and  _33
REMARK    6  A    between atoms: _38  and  _43
REMARK    7  A    between atoms: _43  and  _46
REMARK    8  A    between atoms: _53  and  _55
REMARK                            x       y       z     vdW  Elec       q    Type
REMARK                         _______ _______ _______ _____ _____    ______ ____
ROOT
ATOM     10  C   UNL     1      14.329  21.241   8.108  0.00  0.00    +0.038 A 
ATOM     11  C   UNL     1      15.545  21.363   8.828  0.00  0.00    +0.047 A 
ATOM     12  C   UNL     1      16.443  20.229   8.986  0.00  0.00    +0.035 A 
ATOM     32  C   UNL     1      16.072  18.986   8.395  0.00  0.00    +0.024 A 
ATOM     33  C   UNL     1      14.839  18.845   7.661  0.00  0.00    +0.007 A 
ATOM     34  C   UNL     1      13.949  19.959   7.504  0.00  0.00    -0.029 A 
ATOM     35  C   UNL     1      12.637  19.747   6.712  0.00  0.00    +0.045 C 
ENDROOT
BRANCH  10   9
ATOM      4  C   UNL     1      10.753  24.050   9.643  0.00  0.00    +0.077 A 
ATOM      5  C   UNL     1      10.487  23.198  10.766  0.00  0.00    +0.048 A 
ATOM      6  C   UNL     1      11.288  22.043  10.909  0.00  0.00    +0.116 A 
ATOM      7  N   UNL     1      12.279  21.771   9.991  0.00  0.00    -0.223 NA
ATOM      8  C   UNL     1      12.509  22.612   8.918  0.00  0.00    +0.220 A 
ATOM      9  N   UNL     1      13.505  22.362   7.988  0.00  0.00    -0.283 N 
ATOM     36  H   UNL     1      13.638  23.004   7.206  0.00  0.00    +0.155 HD
ATOM     37  N   UNL     1      11.756  23.721   8.759  0.00  0.00    -0.214 NA
BRANCH   4   3
ATOM      1  C   UNL     1       8.483  27.211  10.038  0.00  0.00    +0.020 A 
ATOM      2  C   UNL     1       9.196  25.998  10.365  0.00  0.00    +0.013 A 
ATOM      3  C   UNL     1       9.994  25.309   9.359  0.00  0.00    +0.019 A 
ATOM     38  C   UNL     1      10.050  25.879   8.021  0.00  0.00    +0.120 A 
ATOM     39  N   UNL     1       9.352  27.047   7.735  0.00  0.00    -0.263 NA
ATOM     40  C   UNL     1       8.579  27.718   8.695  0.00  0.00    +0.111 A 
ENDBRANCH   4   3
ENDBRANCH  10   9
BRANCH  12  13
ATOM     13  N   UNL     1      17.687  20.291   9.713  0.00  0.00    -0.281 N 
ATOM     14  C   UNL     1      18.949  20.574   9.218  0.00  0.00    +0.248 C 
ATOM     30  O   UNL     1      19.234  20.608   8.030  0.00  0.00    -0.270 OA
ATOM     31  H   UNL     1      17.630  20.103  10.714  0.00  0.00    +0.155 HD
BRANCH  14  15
ATOM     15  C   UNL     1      20.059  20.845  10.182  0.00  0.00    +0.037 A 
ATOM     16  C   UNL     1      20.891  22.045  10.066  0.00  0.00    +0.013 A 
ATOM     17  C   UNL     1      21.966  22.273  10.999  0.00  0.00    +0.005 A 
ATOM     18  C   UNL     1      22.213  21.298  12.059  0.00  0.00    -0.033 A 
ATOM     28  C   UNL     1      21.369  20.119  12.155  0.00  0.00    +0.005 A 
ATOM     29  C   UNL     1      20.315  19.892  11.241  0.00  0.00    +0.013 A 
BRANCH  18  19
ATOM     19  C   UNL     1      23.351  21.450  13.085  0.00  0.00    +0.119 C 
BRANCH  19  20
ATOM     20  N   UNL     1      22.982  21.935  14.449  0.00  0.00    -0.302 NA
ATOM     21  C   UNL     1      22.656  23.431  14.457  0.00  0.00    +0.066 C 
ATOM     22  C   UNL     1      22.250  23.917  15.887  0.00  0.00    -0.064 C 
ATOM     23  N   UNL     1      23.380  23.604  16.869  0.00  0.00    +0.379 N 
ATOM     24  C   UNL     1      23.026  24.111  18.202  0.00  0.00    -0.096 C 
ATOM     25  H   UNL     1      24.287  24.154  16.527  0.00  0.00    -0.082 HD
ATOM     26  C   UNL     1      23.712  22.118  16.865  0.00  0.00    -0.064 C 
ATOM     27  C   UNL     1      24.086  21.639  15.434  0.00  0.00    +0.066 C 
ENDBRANCH  19  20
ENDBRANCH  18  19
ENDBRANCH  14  15
ENDBRANCH  12  13
TORSDOF 6
ENDMDL
MODEL 3
REMARK VINA RESULT:      -8.3      4.197     14.126
REMARK  Name = C:\Users\Docking\Desktop\test protocol\1iep_ligandH.pdb
REMARK  8 active torsions:
REMARK  status: ('A' for Active; 'I' for Inactive)
REMARK    1  A    between atoms: _5  and  _11
REMARK    2  A    between atoms: _19  and  _21
REMARK    3  A    between atoms: _22  and  _66
REMARK    4  A    between atoms: _27  and  _30
REMARK    5  A    between atoms: _32  and  _33
REMARK    6  A    between atoms: _38  and  _43
REMARK    7  A    between atoms: _43  and  _46
REMARK    8  A    between atoms: _53  and  _55
REMARK                            x       y       z     vdW  Elec       q    Type
REMARK                         _______ _______ _______ _____ _____    ______ ____
ROOT
ATOM     10  C   UNL     1      11.552  22.745  10.476  0.00  0.00    +0.038 A 
ATOM     11  C   UNL     1      12.659  22.661   9.594  0.00  0.00    +0.047 A 
ATOM     12  C   UNL     1      12.995  23.760   8.701  0.00  0.00    +0.035 A 
ATOM     32  C   UNL     1      12.181  24.930   8.735  0.00  0.00    +0.024 A 
ATOM     33  C   UNL     1      11.051  25.031   9.624  0.00  0.00    +0.007 A 
ATOM     34  C   UNL     1      10.714  23.950  10.506  0.00  0.00    -0.029 A 
ATOM     35  C   UNL     1       9.488  24.111  11.434  0.00  0.00    +0.045 C 
ENDROOT
BRANCH  10   9
ATOM      4  C   UNL     1       9.320  18.608  11.445  0.00  0.00    +0.077 A 
ATOM      5  C   UNL     1       8.625  18.621  10.190  0.00  0.00    +0.048 A 
ATOM      6  C   UNL     1       8.864  19.714   9.327  0.00  0.00    +0.116 A 
ATOM      7  N   UNL     1       9.736  20.713   9.701  0.00  0.00    -0.223 NA
ATOM      8  C   UNL     1      10.389  20.671  10.919  0.00  0.00    +0.220 A 
ATOM      9  N   UNL     1      11.276  21.661  11.312  0.00  0.00    -0.283 N 
ATOM     36  H   UNL     1      11.732  21.597  12.222  0.00  0.00    +0.155 HD
ATOM     37  N   UNL     1      10.176  19.638  11.762  0.00  0.00    -0.214 NA
BRANCH   4   3
ATOM      1  C   UNL     1       9.766  16.409  14.649  0.00  0.00    +0.020 A 
ATOM      2  C   UNL     1       9.944  17.483  13.699  0.00  0.00    +0.013 A 
ATOM      3  C   UNL     1       9.175  17.519  12.462  0.00  0.00    +0.019 A 
ATOM     38  C   UNL     1       8.225  16.445  12.215  0.00  0.00    +0.120 A 
ATOM     39  N   UNL     1       8.076  15.423  13.147  0.00  0.00    -0.263 NA
ATOM     40  C   UNL     1       8.812  15.377  14.340  0.00  0.00    +0.111 A 
ENDBRANCH   4   3
ENDBRANCH  10   9
BRANCH  12  13
ATOM     13  N   UNL     1      14.102  23.729   7.778  0.00  0.00    -0.281 N 
ATOM     14  C   UNL     1      14.290  22.877   6.702  0.00  0.00    +0.248 C 
ATOM     30  O   UNL     1      13.633  21.868   6.496  0.00  0.00    -0.270 OA
ATOM     31  H   UNL     1      14.837  24.418   7.938  0.00  0.00    +0.155 HD
BRANCH  14  15
ATOM     15  C   UNL     1      15.374  23.184   5.720  0.00  0.00    +0.037 A 
ATOM     16  C   UNL     1      15.067  23.483   4.318  0.00  0.00    +0.013 A 
ATOM     17  C   UNL     1      16.133  23.758   3.388  0.00  0.00    +0.005 A 
ATOM     18  C   UNL     1      17.517  23.738   3.857  0.00  0.00    -0.033 A 
ATOM     28  C   UNL     1      17.792  23.443   5.253  0.00  0.00    +0.005 A 
ATOM     29  C   UNL     1      16.750  23.172   6.168  0.00  0.00    +0.013 A 
BRANCH  18  19
ATOM     19  C   UNL     1      18.718  23.999   2.929  0.00  0.00    +0.119 C 
BRANCH  19  20
ATOM     20  N   UNL     1      19.366  25.342   3.012  0.00  0.00    -0.302 NA
ATOM     21  C   UNL     1      18.412  26.467   2.599  0.00  0.00    +0.066 C 
ATOM     22  C   UNL     1      19.100  27.866   2.713  0.00  0.00    -0.064 C 
ATOM     23  N   UNL     1      20.362  27.883   1.850  0.00  0.00    +0.379 N 
ATOM     24  C   UNL     1      20.979  29.216   1.909  0.00  0.00    -0.096 C 
ATOM     25  H   UNL     1      20.052  27.700   0.795  0.00  0.00    -0.082 HD
ATOM     26  C   UNL     1      21.315  26.766   2.251  0.00  0.00    -0.064 C 
ATOM     27  C   UNL     1      20.613  25.382   2.163  0.00  0.00    +0.066 C 
ENDBRANCH  19  20
ENDBRANCH  18  19
ENDBRANCH  14  15
ENDBRANCH  12  13
TORSDOF 6
ENDMDL
MODEL 4
REMARK VINA RESULT:      -8.2      3.954     12.464
REMARK  Name = C:\Users\Docking\Desktop\test protocol\1iep_ligandH.pdb
REMARK  8 active torsions:
REMARK  status: ('A' for Active; 'I' for Inactive)
REMARK    1  A    between atoms: _5  and  _11
REMARK    2  A    between atoms: _19  and  _21
REMARK    3  A    between atoms: _22  and  _66
REMARK    4  A    between atoms: _27  and  _30
REMARK    5  A    between atoms: _32  and  _33
REMARK    6  A    between atoms: _38  and  _43
REMARK    7  A    between atoms: _43  and  _46
REMARK    8  A    between atoms: _53  and  _55
REMARK                            x       y       z     vdW  Elec       q    Type
REMARK                         _______ _______ _______ _____ _____    ______ ____
ROOT
ATOM     10  C   UNL     1      12.619  23.064   8.281  0.00  0.00    +0.038 A 
ATOM     11  C   UNL     1      13.808  23.340   7.559  0.00  0.00    +0.047 A 
ATOM     12  C   UNL     1      15.108  22.928   8.064  0.00  0.00    +0.035 A 
ATOM     32  C   UNL     1      15.160  22.234   9.308  0.00  0.00    +0.024 A 
ATOM     33  C   UNL     1      13.962  21.946  10.056  0.00  0.00    +0.007 A 
ATOM     34  C   UNL     1      12.677  22.353   9.564  0.00  0.00    -0.029 A 
ATOM     35  C   UNL     1      11.426  22.023  10.411  0.00  0.00    +0.045 C 
ENDROOT
BRANCH  10   9
ATOM      4  C   UNL     1       9.067  26.263   7.842  0.00  0.00    +0.077 A 
ATOM      5  C   UNL     1       9.685  27.165   8.772  0.00  0.00    +0.048 A 
ATOM      6  C   UNL     1      10.912  26.764   9.346  0.00  0.00    +0.116 A 
ATOM      7  N   UNL     1      11.471  25.551   9.008  0.00  0.00    -0.223 NA
ATOM      8  C   UNL     1      10.849  24.705   8.110  0.00  0.00    +0.220 A 
ATOM      9  N   UNL     1      11.397  23.483   7.749  0.00  0.00    -0.283 N 
ATOM     36  H   UNL     1      10.903  22.884   7.089  0.00  0.00    +0.155 HD
ATOM     37  N   UNL     1       9.675  25.063   7.549  0.00  0.00    -0.214 NA
BRANCH   4   3
ATOM      1  C   UNL     1       5.281  26.953   7.144  0.00  0.00    +0.020 A 
ATOM      2  C   UNL     1       6.505  26.679   7.860  0.00  0.00    +0.013 A 
ATOM      3  C   UNL     1       7.771  26.545   7.149  0.00  0.00    +0.019 A 
ATOM     38  C   UNL     1       7.763  26.696   5.702  0.00  0.00    +0.120 A 
ATOM     39  N   UNL     1       6.568  26.958   5.039  0.00  0.00    -0.263 NA
ATOM     40  C   UNL     1       5.344  27.087   5.712  0.00  0.00    +0.111 A 
ENDBRANCH   4   3
ENDBRANCH  10   9
BRANCH  12  13
ATOM     13  N   UNL     1      16.350  23.188   7.379  0.00  0.00    -0.281 N 
ATOM     14  C   UNL     1      16.835  22.576   6.234  0.00  0.00    +0.248 C 
ATOM     30  O   UNL     1      16.368  21.559   5.744  0.00  0.00    -0.270 OA
ATOM     31  H   UNL     1      16.944  23.909   7.788  0.00  0.00    +0.155 HD
BRANCH  14  15
ATOM     15  C   UNL     1      18.017  23.174   5.542  0.00  0.00    +0.037 A 
ATOM     16  C   UNL     1      17.909  24.436   4.806  0.00  0.00    +0.013 A 
ATOM     17  C   UNL     1      19.061  24.982   4.133  0.00  0.00    +0.005 A 
ATOM     18  C   UNL     1      20.332  24.265   4.195  0.00  0.00    -0.033 A 
ATOM     28  C   UNL     1      20.413  23.018   4.936  0.00  0.00    +0.005 A 
ATOM     29  C   UNL     1      19.286  22.479   5.596  0.00  0.00    +0.013 A 
BRANCH  18  19
ATOM     19  C   UNL     1      21.608  24.763   3.489  0.00  0.00    +0.119 C 
BRANCH  19  20
ATOM     20  N   UNL     1      22.450  23.741   2.798  0.00  0.00    -0.302 NA
ATOM     21  C   UNL     1      23.903  23.774   3.279  0.00  0.00    +0.066 C 
ATOM     22  C   UNL     1      24.765  22.684   2.562  0.00  0.00    -0.064 C 
ATOM     23  N   UNL     1      24.690  22.892   1.048  0.00  0.00    +0.379 N 
ATOM     24  C   UNL     1      25.545  21.904   0.374  0.00  0.00    -0.096 C 
ATOM     25  H   UNL     1      25.101  23.904   0.826  0.00  0.00    -0.082 HD
ATOM     26  C   UNL     1      23.248  22.864   0.562  0.00  0.00    -0.064 C 
ATOM     27  C   UNL     1      22.394  23.931   1.302  0.00  0.00    +0.066 C 
ENDBRANCH  19  20
ENDBRANCH  18  19
ENDBRANCH  14  15
ENDBRANCH  12  13
TORSDOF 6
ENDMDL
MODEL 5
REMARK VINA RESULT:      -8.1      1.733      2.583
REMARK  Name = C:\Users\Docking\Desktop\test protocol\1iep_ligandH.pdb
REMARK  8 active torsions:
REMARK  status: ('A' for Active; 'I' for Inactive)
REMARK    1  A    between atoms: _5  and  _11
REMARK    2  A    between atoms: _19  and  _21
REMARK    3  A    between atoms: _22  and  _66
REMARK    4  A    between atoms: _27  and  _30
REMARK    5  A    between atoms: _32  and  _33
REMARK    6  A    between atoms: _38  and  _43
REMARK    7  A    between atoms: _43  and  _46
REMARK    8  A    between atoms: _53  and  _55
REMARK                            x       y       z     vdW  Elec       q    Type
REMARK                         _______ _______ _______ _____ _____    ______ ____
ROOT
ATOM     10  C   UNL     1      19.863  25.334   4.110  0.00  0.00    +0.038 A 
ATOM     11  C   UNL     1      18.632  25.117   4.779  0.00  0.00    +0.047 A 
ATOM     12  C   UNL     1      18.029  23.795   4.836  0.00  0.00    +0.035 A 
ATOM     32  C   UNL     1      18.709  22.715   4.201  0.00  0.00    +0.024 A 
ATOM     33  C   UNL     1      19.961  22.918   3.516  0.00  0.00    +0.007 A 
ATOM     34  C   UNL     1      20.559  24.220   3.455  0.00  0.00    -0.029 A 
ATOM     35  C   UNL     1      21.900  24.381   2.700  0.00  0.00    +0.045 C 
ENDROOT
BRANCH  10   9
ATOM      4  C   UNL     1      20.892  29.449   1.864  0.00  0.00    +0.077 A 
ATOM      5  C   UNL     1      20.345  28.979   0.624  0.00  0.00    +0.048 A 
ATOM      6  C   UNL     1      19.815  27.669   0.605  0.00  0.00    +0.116 A 
ATOM      7  N   UNL     1      19.835  26.897   1.746  0.00  0.00    -0.223 NA
ATOM      8  C   UNL     1      20.373  27.381   2.925  0.00  0.00    +0.220 A 
ATOM      9  N   UNL     1      20.397  26.625   4.087  0.00  0.00    -0.283 N 
ATOM     36  H   UNL     1      20.809  27.015   4.934  0.00  0.00    +0.155 HD
ATOM     37  N   UNL     1      20.887  28.628   2.969  0.00  0.00    -0.214 NA
BRANCH   4   3
ATOM      1  C   UNL     1      22.823  32.793   1.236  0.00  0.00    +0.020 A 
ATOM      2  C   UNL     1      22.272  31.477   1.012  0.00  0.00    +0.013 A 
ATOM      3  C   UNL     1      21.487  30.812   2.044  0.00  0.00    +0.019 A 
ATOM     38  C   UNL     1      21.276  31.512   3.302  0.00  0.00    +0.120 A 
ATOM     39  N   UNL     1      21.820  32.779   3.490  0.00  0.00    -0.263 NA
ATOM     40  C   UNL     1      22.579  33.428   2.505  0.00  0.00    +0.111 A 
ENDBRANCH   4   3
ENDBRANCH  10   9
BRANCH  12  13
ATOM     13  N   UNL     1      16.777  23.515   5.494  0.00  0.00    -0.281 N 
ATOM     14  C   UNL     1      16.567  22.778   6.648  0.00  0.00    +0.248 C 
ATOM     30  O   UNL     1      17.408  22.064   7.174  0.00  0.00    -0.270 OA
ATOM     31  H   UNL     1      15.944  23.909   5.056  0.00  0.00    +0.155 HD
BRANCH  14  15
ATOM     15  C   UNL     1      15.225  22.830   7.304  0.00  0.00    +0.037 A 
ATOM     16  C   UNL     1      14.002  23.011   6.518  0.00  0.00    +0.013 A 
ATOM     17  C   UNL     1      12.722  23.075   7.178  0.00  0.00    +0.005 A 
ATOM     18  C   UNL     1      12.659  22.956   8.633  0.00  0.00    -0.033 A 
ATOM     28  C   UNL     1      13.888  22.773   9.387  0.00  0.00    +0.005 A 
ATOM     29  C   UNL     1      15.144  22.710   8.744  0.00  0.00    +0.013 A 
BRANCH  18  19
ATOM     19  C   UNL     1      11.339  23.035   9.422  0.00  0.00    +0.119 C 
BRANCH  19  20
ATOM     20  N   UNL     1      10.470  21.820   9.424  0.00  0.00    -0.302 NA
ATOM     21  C   UNL     1       9.189  22.030  10.236  0.00  0.00    +0.066 C 
ATOM     22  C   UNL     1       8.282  20.757  10.208  0.00  0.00    -0.064 C 
ATOM     23  N   UNL     1       9.071  19.561  10.742  0.00  0.00    +0.379 N 
ATOM     24  C   UNL     1       8.203  18.375  10.772  0.00  0.00    -0.096 C 
ATOM     25  H   UNL     1       9.365  19.791  11.793  0.00  0.00    -0.082 HD
ATOM     26  C   UNL     1      10.348  19.346   9.942  0.00  0.00    -0.064 C 
ATOM     27  C   UNL     1      11.228  20.626   9.951  0.00  0.00    +0.066 C 
ENDBRANCH  19  20
ENDBRANCH  18  19
ENDBRANCH  14  15
ENDBRANCH  12  13
TORSDOF 6
ENDMDL
