MODEL 1
REMARK VINA RESULT:      -8.5      0.000      0.000
REMARK  Name = C:\Users\Docking\Desktop\test protocol\1iep_ligandH.pdb
REMARK  8 active torsions:
REMARK  status: ('A' for Active; 'I' for Inactive)
REMARK    1  A    between atoms: _5  and  _11
REMARK    2  A    between atoms: _19  and  _21
REMARK    3  A    between atoms: _22  and  _66
REMARK    4  A    between atoms: _27  and  _30
REMARK    5  A    between atoms: _32  and  _33
REMARK    6  A    between atoms: _38  and  _43
REMARK    7  A    between atoms: _43  and  _46
REMARK    8  A    between atoms: _53  and  _55
REMARK                            x       y       z     vdW  Elec       q    Type
REMARK                         _______ _______ _______ _____ _____    ______ ____
ROOT
ATOM     10  C   UNL     1      20.215  25.483   3.832  0.00  0.00    +0.038 A 
ATOM     11  C   UNL     1      18.988  25.244   4.502  0.00  0.00    +0.047 A 
ATOM     12  C   UNL     1      18.364  23.930   4.483  0.00  0.00    +0.035 A 
ATOM     32  C   UNL     1      19.019  22.881   3.774  0.00  0.00    +0.024 A 
ATOM     33  C   UNL     1      20.266  23.107   3.087  0.00  0.00    +0.007 A 
ATOM     34  C   UNL     1      20.885  24.402   3.100  0.00  0.00    -0.029 A 
ATOM     35  C   UNL     1      22.219  24.588   2.340  0.00  0.00    +0.045 C 
ENDROOT
BRANCH  10   9
ATOM      4  C   UNL     1      21.140  29.775   1.893  0.00  0.00    +0.077 A 
ATOM      5  C   UNL     1      20.486  29.427   0.664  0.00  0.00    +0.048 A 
ATOM      6  C   UNL     1      19.932  28.131   0.569  0.00  0.00    +0.116 A 
ATOM      7  N   UNL     1      20.029  27.257   1.630  0.00  0.00    -0.223 NA
ATOM      8  C   UNL     1      20.667  27.624   2.801  0.00  0.00    +0.220 A 
ATOM      9  N   UNL     1      20.770  26.764   3.883  0.00  0.00    -0.283 N 
ATOM     36  H   UNL     1      21.255  27.070   4.726  0.00  0.00    +0.155 HD
ATOM     37  N   UNL     1      21.207  28.856   2.916  0.00  0.00    -0.214 NA
BRANCH   4   3
ATOM      1  C   UNL     1      22.316  33.080   3.624  0.00  0.00    +0.020 A 
ATOM      2  C   UNL     1      21.686  31.794   3.430  0.00  0.00    +0.013 A 
ATOM      3  C   UNL     1      21.773  31.108   2.147  0.00  0.00    +0.019 A 
ATOM     38  C   UNL     1      22.510  31.755   1.072  0.00  0.00    +0.120 A 
ATOM     39  N   UNL     1      23.104  32.995   1.288  0.00  0.00    -0.263 NA
ATOM     40  C   UNL     1      23.026  33.665   2.518  0.00  0.00    +0.111 A 
ENDBRANCH   4   3
ENDBRANCH  10   9
BRANCH  12  13
ATOM     13  N   UNL     1      17.115  23.630   5.138  0.00  0.00    -0.281 N 
ATOM     14  C   UNL     1      16.913  22.873   6.280  0.00  0.00    +0.248 C 
ATOM     30  O   UNL     1      17.760  22.157   6.794  0.00  0.00    -0.270 OA
ATOM     31  H   UNL     1      16.278  24.023   4.707  0.00  0.00    +0.155 HD
BRANCH  14  15
ATOM     15  C   UNL     1      15.572  22.903   6.939  0.00  0.00    +0.037 A 
ATOM     16  C   UNL     1      15.435  22.769   8.391  0.00  0.00    +0.013 A 
ATOM     17  C   UNL     1      14.128  22.784   8.999  0.00  0.00    +0.005 A 
ATOM     18  C   UNL     1      12.946  22.937   8.153  0.00  0.00    -0.033 A 
ATOM     28  C   UNL     1      13.111  23.073   6.716  0.00  0.00    +0.005 A 
ATOM     29  C   UNL     1      14.391  23.057   6.116  0.00  0.00    +0.013 A 
BRANCH  18  19
ATOM     19  C   UNL     1      11.512  22.943   8.714  0.00  0.00    +0.119 C 
BRANCH  19  20
ATOM     20  N   UNL     1      11.062  24.175   9.427  0.00  0.00    -0.302 NA
ATOM     21  C   UNL     1       9.731  23.965  10.154  0.00  0.00    +0.066 C 
ATOM     22  C   UNL     1       9.286  25.257  10.913  0.00  0.00    -0.064 C 
ATOM     23  N   UNL     1       9.184  26.418   9.922  0.00  0.00    +0.379 N 
ATOM     24  C   UNL     1       8.710  27.620  10.623  0.00  0.00    -0.096 C 
ATOM     25  H   UNL     1       8.417  26.145   9.161  0.00  0.00    -0.082 HD
ATOM     26  C   UNL     1      10.503  26.632   9.193  0.00  0.00    -0.064 C 
ATOM     27  C   UNL     1      10.950  25.334   8.466  0.00  0.00    +0.066 C 
ENDBRANCH  19  20
ENDBRANCH  18  19
ENDBRANCH  14  15
ENDBRANCH  12  13
TORSDOF 6
ENDMDL
MODEL 2
REMARK VINA RESULT:      -8.4      4.149     14.195
REMARK  Name = C:\Users\Docking\Desktop\test protocol\1iep_ligandH.pdb
REMARK  8 active torsions:
REMARK  status: ('A' for Active; 'I' for Inactive)
REMARK    1  A    between atoms: _5  and  _11
REMARK    2  A    between atoms: _19  and  _21
REMARK    3  A    between atoms: _22  and  _66
REMARK    4  A    between atoms: _27  and  _30
REMARK    5  A    between atoms: _32  and  _33
REMARK    6  A    between atoms: _38  and  _43
REMARK    7  A    between atoms: _43  and  _46
REMARK    8  A    between atoms: _53  and  _55
REMARK                            x       y       z     vdW  Elec       q    Type
REMARK                         _______ _______ _______ _____ _____    ______ ____
ROOT
ATOM     10  C   UNL     1      11.716  22.787  10.445  0.00  0.00    +0.038 A 
ATOM     11  C   UNL     1      12.808  22.680   9.546  0.00  0.00    +0.047 A 
ATOM     12  C   UNL     1      13.154  23.771   8.648  0.00  0.00    +0.035 A 
ATOM     32  C   UNL     1      12.367  24.958   8.694  0.00  0.00    +0.024 A 
ATOM     33  C   UNL     1      11.253  25.084   9.601  0.00  0.00    +0.007 A 
ATOM     34  C   UNL     1      10.906  24.010  10.487  0.00  0.00    -0.029 A 
ATOM     35  C   UNL     1       9.697  24.197  11.433  0.00  0.00    +0.045 C 
ENDROOT
BRANCH  10   9
ATOM      4  C   UNL     1       9.426  18.687  11.436  0.00  0.00    +0.077 A 
ATOM      5  C   UNL     1       8.722  18.709  10.187  0.00  0.00    +0.048 A 
ATOM      6  C   UNL     1       8.972  19.797   9.320  0.00  0.00    +0.116 A 
ATOM      7  N   UNL     1       9.862  20.783   9.686  0.00  0.00    -0.223 NA
ATOM      8  C   UNL     1      10.524  20.732  10.899  0.00  0.00    +0.220 A 
ATOM      9  N   UNL     1      11.429  21.708  11.284  0.00  0.00    -0.283 N 
ATOM     36  H   UNL     1      11.891  21.639  12.191  0.00  0.00    +0.155 HD
ATOM     37  N   UNL     1      10.301  19.704  11.745  0.00  0.00    -0.214 NA
BRANCH   4   3
ATOM      1  C   UNL     1       9.872  16.479  14.634  0.00  0.00    +0.020 A 
ATOM      2  C   UNL     1      10.061  17.548  13.681  0.00  0.00    +0.013 A 
ATOM      3  C   UNL     1       9.271  17.602  12.457  0.00  0.00    +0.019 A 
ATOM     38  C   UNL     1       8.291  16.552  12.226  0.00  0.00    +0.120 A 
ATOM     39  N   UNL     1       8.132  15.534  13.161  0.00  0.00    -0.263 NA
ATOM     40  C   UNL     1       8.887  15.470  14.342  0.00  0.00    +0.111 A 
ENDBRANCH   4   3
ENDBRANCH  10   9
BRANCH  12  13
ATOM     13  N   UNL     1      14.246  23.716   7.709  0.00  0.00    -0.281 N 
ATOM     14  C   UNL     1      14.274  23.098   6.470  0.00  0.00    +0.248 C 
ATOM     30  O   UNL     1      13.428  22.311   6.071  0.00  0.00    -0.270 OA
ATOM     31  H   UNL     1      15.103  24.192   7.992  0.00  0.00    +0.155 HD
BRANCH  14  15
ATOM     15  C   UNL     1      15.413  23.383   5.545  0.00  0.00    +0.037 A 
ATOM     16  C   UNL     1      15.182  23.795   4.158  0.00  0.00    +0.013 A 
ATOM     17  C   UNL     1      16.298  24.047   3.283  0.00  0.00    +0.005 A 
ATOM     18  C   UNL     1      17.658  23.890   3.793  0.00  0.00    -0.033 A 
ATOM     28  C   UNL     1      17.859  23.486   5.175  0.00  0.00    +0.005 A 
ATOM     29  C   UNL     1      16.767  23.236   6.035  0.00  0.00    +0.013 A 
BRANCH  18  19
ATOM     19  C   UNL     1      18.909  24.118   2.924  0.00  0.00    +0.119 C 
BRANCH  19  20
ATOM     20  N   UNL     1      19.063  25.459   2.285  0.00  0.00    -0.302 NA
ATOM     21  C   UNL     1      20.311  25.534   1.400  0.00  0.00    +0.066 C 
ATOM     22  C   UNL     1      20.443  26.936   0.722  0.00  0.00    -0.064 C 
ATOM     23  N   UNL     1      20.478  28.021   1.800  0.00  0.00    +0.379 N 
ATOM     24  C   UNL     1      20.661  29.335   1.168  0.00  0.00    -0.096 C 
ATOM     25  H   UNL     1      21.367  27.828   2.445  0.00  0.00    -0.082 HD
ATOM     26  C   UNL     1      19.242  27.951   2.686  0.00  0.00    -0.064 C 
ATOM     27  C   UNL     1      19.104  26.545   3.332  0.00  0.00    +0.066 C 
ENDBRANCH  19  20
ENDBRANCH  18  19
ENDBRANCH  14  15
ENDBRANCH  12  13
TORSDOF 6
ENDMDL
MODEL 3
REMARK VINA RESULT:      -8.2      3.985     12.518
REMARK  Name = C:\Users\Docking\Desktop\test protocol\1iep_ligandH.pdb
REMARK  8 active torsions:
REMARK  status: ('A' for Active; 'I' for Inactive)
REMARK    1  A    between atoms: _5  and  _11
REMARK    2  A    between atoms: _19  and  _21
REMARK    3  A    between atoms: _22  and  _66
REMARK    4  A    between atoms: _27  and  _30
REMARK    5  A    between atoms: _32  and  _33
REMARK    6  A    between atoms: _38  and  _43
REMARK    7  A    between atoms: _43  and  _46
REMARK    8  A    between atoms: _53  and  _55
REMARK                            x       y       z     vdW  Elec       q    Type
REMARK                         _______ _______ _______ _____ _____    ______ ____
ROOT
ATOM     10  C   UNL     1      12.615  23.150   8.277  0.00  0.00    +0.038 A 
ATOM     11  C   UNL     1      13.794  23.427   7.538  0.00  0.00    +0.047 A 
ATOM     12  C   UNL     1      15.102  23.019   8.026  0.00  0.00    +0.035 A 
ATOM     32  C   UNL     1      15.173  22.329   9.271  0.00  0.00    +0.024 A 
ATOM     33  C   UNL     1      13.985  22.040  10.037  0.00  0.00    +0.007 A 
ATOM     34  C   UNL     1      12.692  22.442   9.561  0.00  0.00    -0.029 A 
ATOM     35  C   UNL     1      11.454  22.113  10.426  0.00  0.00    +0.045 C 
ENDROOT
BRANCH  10   9
ATOM      4  C   UNL     1       9.048  26.337   7.882  0.00  0.00    +0.077 A 
ATOM      5  C   UNL     1       9.674  27.241   8.803  0.00  0.00    +0.048 A 
ATOM      6  C   UNL     1      10.910  26.845   9.362  0.00  0.00    +0.116 A 
ATOM      7  N   UNL     1      11.469  25.634   9.017  0.00  0.00    -0.223 NA
ATOM      8  C   UNL     1      10.838  24.784   8.127  0.00  0.00    +0.220 A 
ATOM      9  N   UNL     1      11.385  23.565   7.761  0.00  0.00    -0.283 N 
ATOM     36  H   UNL     1      10.885  22.963   7.107  0.00  0.00    +0.155 HD
ATOM     37  N   UNL     1       9.656  25.139   7.581  0.00  0.00    -0.214 NA
BRANCH   4   3
ATOM      1  C   UNL     1       5.271  27.127   7.238  0.00  0.00    +0.020 A 
ATOM      2  C   UNL     1       6.507  26.864   7.940  0.00  0.00    +0.013 A 
ATOM      3  C   UNL     1       7.741  26.614   7.206  0.00  0.00    +0.019 A 
ATOM     38  C   UNL     1       7.691  26.640   5.752  0.00  0.00    +0.120 A 
ATOM     39  N   UNL     1       6.487  26.895   5.104  0.00  0.00    -0.263 NA
ATOM     40  C   UNL     1       5.292  27.134   5.799  0.00  0.00    +0.111 A 
ENDBRANCH   4   3
ENDBRANCH  10   9
BRANCH  12  13
ATOM     13  N   UNL     1      16.333  23.279   7.323  0.00  0.00    -0.281 N 
ATOM     14  C   UNL     1      16.849  22.603   6.229  0.00  0.00    +0.248 C 
ATOM     30  O   UNL     1      16.430  21.530   5.819  0.00  0.00    -0.270 OA
ATOM     31  H   UNL     1      16.893  24.056   7.674  0.00  0.00    +0.155 HD
BRANCH  14  15
ATOM     15  C   UNL     1      18.006  23.196   5.493  0.00  0.00    +0.037 A 
ATOM     16  C   UNL     1      17.876  24.463   4.768  0.00  0.00    +0.013 A 
ATOM     17  C   UNL     1      19.004  25.005   4.052  0.00  0.00    +0.005 A 
ATOM     18  C   UNL     1      20.272  24.280   4.058  0.00  0.00    -0.033 A 
ATOM     28  C   UNL     1      20.374  23.028   4.790  0.00  0.00    +0.005 A 
ATOM     29  C   UNL     1      19.271  22.493   5.492  0.00  0.00    +0.013 A 
BRANCH  18  19
ATOM     19  C   UNL     1      21.521  24.773   3.304  0.00  0.00    +0.119 C 
BRANCH  19  20
ATOM     20  N   UNL     1      22.418  23.735   2.715  0.00  0.00    -0.302 NA
ATOM     21  C   UNL     1      23.836  23.808   3.288  0.00  0.00    +0.066 C 
ATOM     22  C   UNL     1      24.755  22.701   2.678  0.00  0.00    -0.064 C 
ATOM     23  N   UNL     1      24.779  22.844   1.155  0.00  0.00    +0.379 N 
ATOM     24  C   UNL     1      25.688  21.841   0.582  0.00  0.00    -0.096 C 
ATOM     25  H   UNL     1      25.193  23.851   0.917  0.00  0.00    -0.082 HD
ATOM     26  C   UNL     1      23.373  22.775   0.577  0.00  0.00    -0.064 C 
ATOM     27  C   UNL     1      22.460  23.861   1.212  0.00  0.00    +0.066 C 
ENDBRANCH  19  20
ENDBRANCH  18  19
ENDBRANCH  14  15
ENDBRANCH  12  13
TORSDOF 6
ENDMDL
MODEL 4
REMARK VINA RESULT:      -8.1      4.226     14.361
REMARK  Name = C:\Users\Docking\Desktop\test protocol\1iep_ligandH.pdb
REMARK  8 active torsions:
REMARK  status: ('A' for Active; 'I' for Inactive)
REMARK    1  A    between atoms: _5  and  _11
REMARK    2  A    between atoms: _19  and  _21
REMARK    3  A    between atoms: _22  and  _66
REMARK    4  A    between atoms: _27  and  _30
REMARK    5  A    between atoms: _32  and  _33
REMARK    6  A    between atoms: _38  and  _43
REMARK    7  A    between atoms: _43  and  _46
REMARK    8  A    between atoms: _53  and  _55
REMARK                            x       y       z     vdW  Elec       q    Type
REMARK                         _______ _______ _______ _____ _____    ______ ____
ROOT
ATOM     10  C   UNL     1      11.636  22.786  10.479  0.00  0.00    +0.038 A 
ATOM     11  C   UNL     1      12.698  22.757   9.540  0.00  0.00    +0.047 A 
ATOM     12  C   UNL     1      12.977  23.900   8.683  0.00  0.00    +0.035 A 
ATOM     32  C   UNL     1      12.155  25.057   8.812  0.00  0.00    +0.024 A 
ATOM     33  C   UNL     1      11.071  25.103   9.761  0.00  0.00    +0.007 A 
ATOM     34  C   UNL     1      10.789  23.979  10.607  0.00  0.00    -0.029 A 
ATOM     35  C   UNL     1       9.610  24.082  11.601  0.00  0.00    +0.045 C 
ENDROOT
BRANCH  10   9
ATOM      4  C   UNL     1       9.438  18.621  11.401  0.00  0.00    +0.077 A 
ATOM      5  C   UNL     1       8.647  18.706  10.207  0.00  0.00    +0.048 A 
ATOM      6  C   UNL     1       8.831  19.842   9.387  0.00  0.00    +0.116 A 
ATOM      7  N   UNL     1       9.741  20.813   9.743  0.00  0.00    -0.223 NA
ATOM      8  C   UNL     1      10.486  20.700  10.902  0.00  0.00    +0.220 A 
ATOM      9  N   UNL     1      11.413  21.661  11.276  0.00  0.00    -0.283 N 
ATOM     36  H   UNL     1      11.938  21.545  12.142  0.00  0.00    +0.155 HD
ATOM     37  N   UNL     1      10.328  19.626  11.703  0.00  0.00    -0.214 NA
BRANCH   4   3
ATOM      1  C   UNL     1      10.121  16.240  14.428  0.00  0.00    +0.020 A 
ATOM      2  C   UNL     1      10.238  17.361  13.525  0.00  0.00    +0.013 A 
ATOM      3  C   UNL     1       9.359  17.480  12.368  0.00  0.00    +0.019 A 
ATOM     38  C   UNL     1       8.365  16.441  12.153  0.00  0.00    +0.120 A 
ATOM     39  N   UNL     1       8.276  15.372  13.039  0.00  0.00    -0.263 NA
ATOM     40  C   UNL     1       9.117  15.246  14.155  0.00  0.00    +0.111 A 
ENDBRANCH   4   3
ENDBRANCH  10   9
BRANCH  12  13
ATOM     13  N   UNL     1      14.037  23.925   7.706  0.00  0.00    -0.281 N 
ATOM     14  C   UNL     1      14.256  23.038   6.665  0.00  0.00    +0.248 C 
ATOM     30  O   UNL     1      13.693  21.960   6.545  0.00  0.00    -0.270 OA
ATOM     31  H   UNL     1      14.706  24.690   7.792  0.00  0.00    +0.155 HD
BRANCH  14  15
ATOM     15  C   UNL     1      15.257  23.394   5.612  0.00  0.00    +0.037 A 
ATOM     16  C   UNL     1      16.693  23.405   5.902  0.00  0.00    +0.013 A 
ATOM     17  C   UNL     1      17.635  23.768   4.873  0.00  0.00    +0.005 A 
ATOM     18  C   UNL     1      17.143  24.121   3.544  0.00  0.00    -0.033 A 
ATOM     28  C   UNL     1      15.713  24.097   3.283  0.00  0.00    +0.005 A 
ATOM     29  C   UNL     1      14.787  23.743   4.289  0.00  0.00    +0.013 A 
BRANCH  18  19
ATOM     19  C   UNL     1      18.075  24.542   2.392  0.00  0.00    +0.119 C 
BRANCH  19  20
ATOM     20  N   UNL     1      19.526  24.696   2.707  0.00  0.00    -0.302 NA
ATOM     21  C   UNL     1      20.066  26.062   2.277  0.00  0.00    +0.066 C 
ATOM     22  C   UNL     1      21.580  26.215   2.635  0.00  0.00    -0.064 C 
ATOM     23  N   UNL     1      22.374  25.086   1.975  0.00  0.00    +0.379 N 
ATOM     24  C   UNL     1      23.805  25.260   2.262  0.00  0.00    -0.096 C 
ATOM     25  H   UNL     1      22.237  25.177   0.872  0.00  0.00    -0.082 HD
ATOM     26  C   UNL     1      21.842  23.724   2.395  0.00  0.00    -0.064 C 
ATOM     27  C   UNL     1      20.329  23.594   2.061  0.00  0.00    +0.066 C 
ENDBRANCH  19  20
ENDBRANCH  18  19
ENDBRANCH  14  15
ENDBRANCH  12  13
TORSDOF 6
ENDMDL
MODEL 5
REMARK VINA RESULT:      -8.1      9.579     14.006
REMARK  Name = C:\Users\Docking\Desktop\test protocol\1iep_ligandH.pdb
REMARK  8 active torsions:
REMARK  status: ('A' for Active; 'I' for Inactive)
REMARK    1  A    between atoms: _5  and  _11
REMARK    2  A    between atoms: _19  and  _21
REMARK    3  A    between atoms: _22  and  _66
REMARK    4  A    between atoms: _27  and  _30
REMARK    5  A    between atoms: _32  and  _33
REMARK    6  A    between atoms: _38  and  _43
REMARK    7  A    between atoms: _43  and  _46
REMARK    8  A    between atoms: _53  and  _55
REMARK                            x       y       z     vdW  Elec       q    Type
REMARK                         _______ _______ _______ _____ _____    ______ ____
ROOT
ATOM     10  C   UNL     1       9.733  25.209   8.618  0.00  0.00    +0.038 A 
ATOM     11  C   UNL     1       8.381  25.525   8.329  0.00  0.00    +0.047 A 
ATOM     12  C   UNL     1       7.895  26.894   8.407  0.00  0.00    +0.035 A 
ATOM     32  C   UNL     1       8.814  27.917   8.781  0.00  0.00    +0.024 A 
ATOM     33  C   UNL     1      10.192  27.613   9.079  0.00  0.00    +0.007 A 
ATOM     34  C   UNL     1      10.676  26.265   9.006  0.00  0.00    -0.029 A 
ATOM     35  C   UNL     1      12.161  25.996   9.343  0.00  0.00    +0.045 C 
ENDROOT
BRANCH  10   9
ATOM      4  C   UNL     1      10.710  20.938  10.577  0.00  0.00    +0.077 A 
ATOM      5  C   UNL     1      10.398  21.405  11.897  0.00  0.00    +0.048 A 
ATOM      6  C   UNL     1       9.997  22.753  12.030  0.00  0.00    +0.116 A 
ATOM      7  N   UNL     1       9.917  23.564  10.918  0.00  0.00    -0.223 NA
ATOM      8  C   UNL     1      10.227  23.082   9.660  0.00  0.00    +0.220 A 
ATOM      9  N   UNL     1      10.145  23.878   8.528  0.00  0.00    -0.283 N 
ATOM     36  H   UNL     1      10.390  23.487   7.618  0.00  0.00    +0.155 HD
ATOM     37  N   UNL     1      10.614  21.799   9.507  0.00  0.00    -0.214 NA
BRANCH   4   3
ATOM      1  C   UNL     1      10.992  17.036  10.563  0.00  0.00    +0.020 A 
ATOM      2  C   UNL     1      10.534  18.367  10.890  0.00  0.00    +0.013 A 
ATOM      3  C   UNL     1      11.146  19.538  10.274  0.00  0.00    +0.019 A 
ATOM     38  C   UNL     1      12.227  19.326   9.323  0.00  0.00    +0.120 A 
ATOM     39  N   UNL     1      12.648  18.033   9.029  0.00  0.00    -0.263 NA
ATOM     40  C   UNL     1      12.068  16.899   9.616  0.00  0.00    +0.111 A 
ENDBRANCH   4   3
ENDBRANCH  10   9
BRANCH  12  13
ATOM     13  N   UNL     1       6.531  27.274   8.133  0.00  0.00    -0.281 N 
ATOM     14  C   UNL     1       5.927  27.448   6.898  0.00  0.00    +0.248 C 
ATOM     30  O   UNL     1       6.530  27.511   5.837  0.00  0.00    -0.270 OA
ATOM     31  H   UNL     1       5.939  27.434   8.948  0.00  0.00    +0.155 HD
BRANCH  14  15
ATOM     15  C   UNL     1       4.441  27.587   6.835  0.00  0.00    +0.037 A 
ATOM     16  C   UNL     1       3.560  26.441   7.075  0.00  0.00    +0.013 A 
ATOM     17  C   UNL     1       2.129  26.598   6.990  0.00  0.00    +0.005 A 
ATOM     18  C   UNL     1       1.571  27.908   6.665  0.00  0.00    -0.033 A 
ATOM     28  C   UNL     1       2.468  29.029   6.437  0.00  0.00    +0.005 A 
ATOM     29  C   UNL     1       3.870  28.879   6.518  0.00  0.00    +0.013 A 
BRANCH  18  19
ATOM     19  C   UNL     1       0.058  28.163   6.534  0.00  0.00    +0.119 C 
BRANCH  19  20
ATOM     20  N   UNL     1      -0.758  28.102   7.783  0.00  0.00    -0.302 NA
ATOM     21  C   UNL     1      -0.016  28.700   8.982  0.00  0.00    +0.066 C 
ATOM     22  C   UNL     1      -0.892  28.649  10.277  0.00  0.00    -0.064 C 
ATOM     23  N   UNL     1      -1.297  27.201  10.558  0.00  0.00    +0.379 N 
ATOM     24  C   UNL     1      -2.072  27.141  11.805  0.00  0.00    -0.096 C 
ATOM     25  H   UNL     1      -0.363  26.612  10.711  0.00  0.00    -0.082 HD
ATOM     26  C   UNL     1      -2.033  26.597   9.369  0.00  0.00    -0.064 C 
ATOM     27  C   UNL     1      -1.165  26.680   8.082  0.00  0.00    +0.066 C 
ENDBRANCH  19  20
ENDBRANCH  18  19
ENDBRANCH  14  15
ENDBRANCH  12  13
TORSDOF 6
ENDMDL
