MODEL 1
REMARK VINA RESULT:      -7.6      0.000      0.000
REMARK  Name = C:\Users\Docking\Desktop\test protocol\1iep_ligandH.pdb
REMARK  8 active torsions:
REMARK  status: ('A' for Active; 'I' for Inactive)
REMARK    1  A    between atoms: _5  and  _11
REMARK    2  A    between atoms: _19  and  _21
REMARK    3  A    between atoms: _22  and  _66
REMARK    4  A    between atoms: _27  and  _30
REMARK    5  A    between atoms: _32  and  _33
REMARK    6  A    between atoms: _38  and  _43
REMARK    7  A    between atoms: _43  and  _46
REMARK    8  A    between atoms: _53  and  _55
REMARK                            x       y       z     vdW  Elec       q    Type
REMARK                         _______ _______ _______ _____ _____    ______ ____
ROOT
ATOM     10  C   UNL     1       1.638 -13.022  11.262  0.00  0.00    +0.038 A 
ATOM     11  C   UNL     1       1.340 -11.699  10.844  0.00  0.00    +0.047 A 
ATOM     12  C   UNL     1       2.115 -11.048   9.799  0.00  0.00    +0.035 A 
ATOM     32  C   UNL     1       3.184 -11.774   9.199  0.00  0.00    +0.024 A 
ATOM     33  C   UNL     1       3.502 -13.118   9.612  0.00  0.00    +0.007 A 
ATOM     34  C   UNL     1       2.743 -13.765  10.644  0.00  0.00    -0.029 A 
ATOM     35  C   UNL     1       3.132 -15.205  11.052  0.00  0.00    +0.045 C 
ENDROOT
BRANCH  10   9
ATOM      4  C   UNL     1      -1.983 -15.798  12.750  0.00  0.00    +0.077 A 
ATOM      5  C   UNL     1      -2.380 -16.103  11.405  0.00  0.00    +0.048 A 
ATOM      6  C   UNL     1      -1.630 -15.520  10.360  0.00  0.00    +0.116 A 
ATOM      7  N   UNL     1      -0.565 -14.695  10.648  0.00  0.00    -0.223 NA
ATOM      8  C   UNL     1      -0.210 -14.419  11.956  0.00  0.00    +0.220 A 
ATOM      9  N   UNL     1       0.862 -13.598  12.270  0.00  0.00    -0.283 N 
ATOM     36  H   UNL     1       1.087 -13.414  13.247  0.00  0.00    +0.155 HD
ATOM     37  N   UNL     1      -0.911 -14.963  12.973  0.00  0.00    -0.214 NA
BRANCH   4   3
ATOM      1  C   UNL     1      -3.048 -18.112  15.718  0.00  0.00    +0.020 A 
ATOM      2  C   UNL     1      -2.351 -17.635  14.546  0.00  0.00    +0.013 A 
ATOM      3  C   UNL     1      -2.675 -16.340  13.962  0.00  0.00    +0.019 A 
ATOM     38  C   UNL     1      -3.718 -15.545  14.593  0.00  0.00    +0.120 A 
ATOM     39  N   UNL     1      -4.374 -16.031  15.720  0.00  0.00    -0.263 NA
ATOM     40  C   UNL     1      -4.071 -17.277  16.290  0.00  0.00    +0.111 A 
ENDBRANCH   4   3
ENDBRANCH  10   9
BRANCH  12  13
ATOM     13  N   UNL     1       1.864  -9.705   9.339  0.00  0.00    -0.281 N 
ATOM     14  C   UNL     1       0.968  -9.291   8.366  0.00  0.00    +0.248 C 
ATOM     30  O   UNL     1       0.396 -10.041   7.589  0.00  0.00    -0.270 OA
ATOM     31  H   UNL     1       2.413  -8.970   9.784  0.00  0.00    +0.155 HD
BRANCH  14  15
ATOM     15  C   UNL     1       0.677  -7.832   8.227  0.00  0.00    +0.037 A 
ATOM     16  C   UNL     1       0.984  -7.110   6.989  0.00  0.00    +0.013 A 
ATOM     17  C   UNL     1       0.709  -5.699   6.887  0.00  0.00    +0.005 A 
ATOM     18  C   UNL     1       0.121  -5.000   8.027  0.00  0.00    -0.033 A 
ATOM     28  C   UNL     1      -0.179  -5.741   9.241  0.00  0.00    +0.005 A 
ATOM     29  C   UNL     1       0.091  -7.124   9.345  0.00  0.00    +0.013 A 
BRANCH  18  19
ATOM     19  C   UNL     1      -0.187  -3.491   8.015  0.00  0.00    +0.119 C 
BRANCH  19  20
ATOM     20  N   UNL     1       0.961  -2.557   8.212  0.00  0.00    -0.302 NA
ATOM     21  C   UNL     1       1.479  -1.994   6.885  0.00  0.00    +0.066 C 
ATOM     22  C   UNL     1       2.665  -1.002   7.111  0.00  0.00    -0.064 C 
ATOM     23  N   UNL     1       3.785  -1.716   7.871  0.00  0.00    +0.379 N 
ATOM     24  C   UNL     1       4.926  -0.803   8.034  0.00  0.00    -0.096 C 
ATOM     25  H   UNL     1       4.125  -2.573   7.244  0.00  0.00    -0.082 HD
ATOM     26  C   UNL     1       3.279  -2.281   9.190  0.00  0.00    -0.064 C 
ATOM     27  C   UNL     1       2.081  -3.243   8.956  0.00  0.00    +0.066 C 
ENDBRANCH  19  20
ENDBRANCH  18  19
ENDBRANCH  14  15
ENDBRANCH  12  13
TORSDOF 6
ENDMDL
MODEL 2
REMARK VINA RESULT:      -7.6     18.130     20.438
REMARK  Name = C:\Users\Docking\Desktop\test protocol\1iep_ligandH.pdb
REMARK  8 active torsions:
REMARK  status: ('A' for Active; 'I' for Inactive)
REMARK    1  A    between atoms: _5  and  _11
REMARK    2  A    between atoms: _19  and  _21
REMARK    3  A    between atoms: _22  and  _66
REMARK    4  A    between atoms: _27  and  _30
REMARK    5  A    between atoms: _32  and  _33
REMARK    6  A    between atoms: _38  and  _43
REMARK    7  A    between atoms: _43  and  _46
REMARK    8  A    between atoms: _53  and  _55
REMARK                            x       y       z     vdW  Elec       q    Type
REMARK                         _______ _______ _______ _____ _____    ______ ____
ROOT
ATOM     10  C   UNL     1     -15.719 -17.418  22.298  0.00  0.00    +0.038 A 
ATOM     11  C   UNL     1     -16.019 -16.624  21.161  0.00  0.00    +0.047 A 
ATOM     12  C   UNL     1     -17.255 -15.863  21.081  0.00  0.00    +0.035 A 
ATOM     32  C   UNL     1     -18.164 -15.931  22.177  0.00  0.00    +0.024 A 
ATOM     33  C   UNL     1     -17.875 -16.734  23.340  0.00  0.00    +0.007 A 
ATOM     34  C   UNL     1     -16.658 -17.489  23.424  0.00  0.00    -0.029 A 
ATOM     35  C   UNL     1     -16.403 -18.338  24.691  0.00  0.00    +0.045 C 
ENDROOT
BRANCH  10   9
ATOM      4  C   UNL     1     -11.032 -17.776  23.272  0.00  0.00    +0.077 A 
ATOM      5  C   UNL     1     -10.968 -16.424  23.748  0.00  0.00    +0.048 A 
ATOM      6  C   UNL     1     -12.161 -15.668  23.719  0.00  0.00    +0.116 A 
ATOM      7  N   UNL     1     -13.327 -16.232  23.247  0.00  0.00    -0.223 NA
ATOM      8  C   UNL     1     -13.354 -17.538  22.794  0.00  0.00    +0.220 A 
ATOM      9  N   UNL     1     -14.516 -18.129  22.322  0.00  0.00    -0.283 N 
ATOM     36  H   UNL     1     -14.493 -19.092  21.990  0.00  0.00    +0.155 HD
ATOM     37  N   UNL     1     -12.227 -18.281  22.810  0.00  0.00    -0.214 NA
BRANCH   4   3
ATOM      1  C   UNL     1      -7.415 -19.204  22.857  0.00  0.00    +0.020 A 
ATOM      2  C   UNL     1      -8.516 -18.269  22.868  0.00  0.00    +0.013 A 
ATOM      3  C   UNL     1      -9.857 -18.702  23.243  0.00  0.00    +0.019 A 
ATOM     38  C   UNL     1     -10.050 -20.098  23.605  0.00  0.00    +0.120 A 
ATOM     39  N   UNL     1      -8.970 -20.976  23.584  0.00  0.00    -0.263 NA
ATOM     40  C   UNL     1      -7.677 -20.571  23.223  0.00  0.00    +0.111 A 
ENDBRANCH   4   3
ENDBRANCH  10   9
BRANCH  12  13
ATOM     13  N   UNL     1     -17.618 -15.046  19.949  0.00  0.00    -0.281 N 
ATOM     14  C   UNL     1     -17.020 -13.872  19.520  0.00  0.00    +0.248 C 
ATOM     30  O   UNL     1     -16.212 -13.229  20.174  0.00  0.00    -0.270 OA
ATOM     31  H   UNL     1     -18.411 -15.373  19.397  0.00  0.00    +0.155 HD
BRANCH  14  15
ATOM     15  C   UNL     1     -17.384 -13.326  18.177  0.00  0.00    +0.037 A 
ATOM     16  C   UNL     1     -18.772 -13.003  17.839  0.00  0.00    +0.013 A 
ATOM     17  C   UNL     1     -19.098 -12.493  16.530  0.00  0.00    +0.005 A 
ATOM     18  C   UNL     1     -18.031 -12.302  15.551  0.00  0.00    -0.033 A 
ATOM     28  C   UNL     1     -16.662 -12.625  15.915  0.00  0.00    +0.005 A 
ATOM     29  C   UNL     1     -16.339 -13.126  17.196  0.00  0.00    +0.013 A 
BRANCH  18  19
ATOM     19  C   UNL     1     -18.289 -11.783  14.124  0.00  0.00    +0.119 C 
BRANCH  19  20
ATOM     20  N   UNL     1     -19.570 -11.052  13.883  0.00  0.00    -0.302 NA
ATOM     21  C   UNL     1     -19.794 -10.760  12.397  0.00  0.00    +0.066 C 
ATOM     22  C   UNL     1     -21.148 -10.016  12.161  0.00  0.00    -0.064 C 
ATOM     23  N   UNL     1     -21.164  -8.721  12.975  0.00  0.00    +0.379 N 
ATOM     24  C   UNL     1     -22.412  -7.991  12.711  0.00  0.00    -0.096 C 
ATOM     25  H   UNL     1     -20.319  -8.088  12.619  0.00  0.00    -0.082 HD
ATOM     26  C   UNL     1     -20.939  -9.002  14.454  0.00  0.00    -0.064 C 
ATOM     27  C   UNL     1     -19.605  -9.768  14.675  0.00  0.00    +0.066 C 
ENDBRANCH  19  20
ENDBRANCH  18  19
ENDBRANCH  14  15
ENDBRANCH  12  13
TORSDOF 6
ENDMDL
MODEL 3
REMARK VINA RESULT:      -7.5      4.730      8.756
REMARK  Name = C:\Users\Docking\Desktop\test protocol\1iep_ligandH.pdb
REMARK  8 active torsions:
REMARK  status: ('A' for Active; 'I' for Inactive)
REMARK    1  A    between atoms: _5  and  _11
REMARK    2  A    between atoms: _19  and  _21
REMARK    3  A    between atoms: _22  and  _66
REMARK    4  A    between atoms: _27  and  _30
REMARK    5  A    between atoms: _32  and  _33
REMARK    6  A    between atoms: _38  and  _43
REMARK    7  A    between atoms: _43  and  _46
REMARK    8  A    between atoms: _53  and  _55
REMARK                            x       y       z     vdW  Elec       q    Type
REMARK                         _______ _______ _______ _____ _____    ______ ____
ROOT
ATOM     10  C   UNL     1      -5.629 -15.690  15.464  0.00  0.00    +0.038 A 
ATOM     11  C   UNL     1      -4.607 -14.984  14.779  0.00  0.00    +0.047 A 
ATOM     12  C   UNL     1      -3.202 -15.293  14.999  0.00  0.00    +0.035 A 
ATOM     32  C   UNL     1      -2.875 -16.328  15.922  0.00  0.00    +0.024 A 
ATOM     33  C   UNL     1      -3.901 -17.055  16.627  0.00  0.00    +0.007 A 
ATOM     34  C   UNL     1      -5.288 -16.753  16.416  0.00  0.00    -0.029 A 
ATOM     35  C   UNL     1      -6.345 -17.560  17.205  0.00  0.00    +0.045 C 
ENDROOT
BRANCH  10   9
ATOM      4  C   UNL     1      -9.711 -13.440  16.608  0.00  0.00    +0.077 A 
ATOM      5  C   UNL     1      -9.151 -12.914  17.820  0.00  0.00    +0.048 A 
ATOM      6  C   UNL     1      -7.811 -13.253  18.116  0.00  0.00    +0.116 A 
ATOM      7  N   UNL     1      -7.095 -14.057  17.256  0.00  0.00    -0.223 NA
ATOM      8  C   UNL     1      -7.666 -14.548  16.097  0.00  0.00    +0.220 A 
ATOM      9  N   UNL     1      -6.961 -15.352  15.214  0.00  0.00    -0.283 N 
ATOM     36  H   UNL     1      -7.420 -15.701  14.373  0.00  0.00    +0.155 HD
ATOM     37  N   UNL     1      -8.944 -14.241  15.793  0.00  0.00    -0.214 NA
BRANCH   4   3
ATOM      1  C   UNL     1     -13.609 -13.126  16.518  0.00  0.00    +0.020 A 
ATOM      2  C   UNL     1     -12.277 -13.405  17.002  0.00  0.00    +0.013 A 
ATOM      3  C   UNL     1     -11.113 -13.170  16.157  0.00  0.00    +0.019 A 
ATOM     38  C   UNL     1     -11.333 -12.648  14.816  0.00  0.00    +0.120 A 
ATOM     39  N   UNL     1     -12.628 -12.391  14.377  0.00  0.00    -0.263 NA
ATOM     40  C   UNL     1     -13.756 -12.614  15.180  0.00  0.00    +0.111 A 
ENDBRANCH   4   3
ENDBRANCH  10   9
BRANCH  12  13
ATOM     13  N   UNL     1      -2.121 -14.605  14.339  0.00  0.00    -0.281 N 
ATOM     14  C   UNL     1      -1.323 -15.066  13.304  0.00  0.00    +0.248 C 
ATOM     30  O   UNL     1      -1.280 -16.229  12.931  0.00  0.00    -0.270 OA
ATOM     31  H   UNL     1      -1.918 -13.663  14.675  0.00  0.00    +0.155 HD
BRANCH  14  15
ATOM     15  C   UNL     1      -0.434 -14.099  12.591  0.00  0.00    +0.037 A 
ATOM     16  C   UNL     1      -0.070 -12.815  13.194  0.00  0.00    +0.013 A 
ATOM     17  C   UNL     1       0.775 -11.893  12.477  0.00  0.00    +0.005 A 
ATOM     18  C   UNL     1       1.263 -12.254  11.148  0.00  0.00    -0.033 A 
ATOM     28  C   UNL     1       0.890 -13.537  10.576  0.00  0.00    +0.005 A 
ATOM     29  C   UNL     1       0.061 -14.442  11.275  0.00  0.00    +0.013 A 
BRANCH  18  19
ATOM     19  C   UNL     1       2.152 -11.323  10.302  0.00  0.00    +0.119 C 
BRANCH  19  20
ATOM     20  N   UNL     1       1.770  -9.880  10.243  0.00  0.00    -0.302 NA
ATOM     21  C   UNL     1       1.344  -9.456   8.835  0.00  0.00    +0.066 C 
ATOM     22  C   UNL     1       0.926  -7.950   8.796  0.00  0.00    -0.064 C 
ATOM     23  N   UNL     1       2.088  -7.088   9.294  0.00  0.00    +0.379 N 
ATOM     24  C   UNL     1       1.719  -5.668   9.204  0.00  0.00    -0.096 C 
ATOM     25  H   UNL     1       2.952  -7.258   8.609  0.00  0.00    -0.082 HD
ATOM     26  C   UNL     1       2.520  -7.505  10.692  0.00  0.00    -0.064 C 
ATOM     27  C   UNL     1       2.905  -9.011  10.726  0.00  0.00    +0.066 C 
ENDBRANCH  19  20
ENDBRANCH  18  19
ENDBRANCH  14  15
ENDBRANCH  12  13
TORSDOF 6
ENDMDL
MODEL 4
REMARK VINA RESULT:      -7.5      2.188     12.963
REMARK  Name = C:\Users\Docking\Desktop\test protocol\1iep_ligandH.pdb
REMARK  8 active torsions:
REMARK  status: ('A' for Active; 'I' for Inactive)
REMARK    1  A    between atoms: _5  and  _11
REMARK    2  A    between atoms: _19  and  _21
REMARK    3  A    between atoms: _22  and  _66
REMARK    4  A    between atoms: _27  and  _30
REMARK    5  A    between atoms: _32  and  _33
REMARK    6  A    between atoms: _38  and  _43
REMARK    7  A    between atoms: _43  and  _46
REMARK    8  A    between atoms: _53  and  _55
REMARK                            x       y       z     vdW  Elec       q    Type
REMARK                         _______ _______ _______ _____ _____    ______ ____
ROOT
ATOM     10  C   UNL     1       1.891 -11.807  10.606  0.00  0.00    +0.038 A 
ATOM     11  C   UNL     1       0.899 -12.408  11.421  0.00  0.00    +0.047 A 
ATOM     12  C   UNL     1       0.799 -13.854  11.542  0.00  0.00    +0.035 A 
ATOM     32  C   UNL     1       1.729 -14.658  10.820  0.00  0.00    +0.024 A 
ATOM     33  C   UNL     1       2.744 -14.063   9.986  0.00  0.00    +0.007 A 
ATOM     34  C   UNL     1       2.845 -12.637   9.861  0.00  0.00    -0.029 A 
ATOM     35  C   UNL     1       3.949 -12.055   8.948  0.00  0.00    +0.045 C 
ENDROOT
BRANCH  10   9
ATOM      4  C   UNL     1       0.984  -7.659   8.366  0.00  0.00    +0.077 A 
ATOM      5  C   UNL     1       0.383  -8.327   7.248  0.00  0.00    +0.048 A 
ATOM      6  C   UNL     1       0.334  -9.739   7.284  0.00  0.00    +0.116 A 
ATOM      7  N   UNL     1       0.850 -10.421   8.364  0.00  0.00    -0.223 NA
ATOM      8  C   UNL     1       1.423  -9.747   9.426  0.00  0.00    +0.220 A 
ATOM      9  N   UNL     1       1.941 -10.413  10.526  0.00  0.00    -0.283 N 
ATOM     36  H   UNL     1       2.363  -9.880  11.286  0.00  0.00    +0.155 HD
ATOM     37  N   UNL     1       1.484  -8.399   9.415  0.00  0.00    -0.214 NA
BRANCH   4   3
ATOM      1  C   UNL     1       1.224  -3.858   7.478  0.00  0.00    +0.020 A 
ATOM      2  C   UNL     1       1.102  -5.288   7.317  0.00  0.00    +0.013 A 
ATOM      3  C   UNL     1       1.107  -6.171   8.476  0.00  0.00    +0.019 A 
ATOM     38  C   UNL     1       1.237  -5.570   9.795  0.00  0.00    +0.120 A 
ATOM     39  N   UNL     1       1.354  -4.189   9.919  0.00  0.00    -0.263 NA
ATOM     40  C   UNL     1       1.352  -3.330   8.811  0.00  0.00    +0.111 A 
ENDBRANCH   4   3
ENDBRANCH  10   9
BRANCH  12  13
ATOM     13  N   UNL     1      -0.193 -14.522  12.347  0.00  0.00    -0.281 N 
ATOM     14  C   UNL     1      -1.207 -15.365  11.924  0.00  0.00    +0.248 C 
ATOM     30  O   UNL     1      -1.549 -15.505  10.759  0.00  0.00    -0.270 OA
ATOM     31  H   UNL     1      -0.141 -14.352  13.352  0.00  0.00    +0.155 HD
BRANCH  14  15
ATOM     15  C   UNL     1      -1.961 -16.157  12.943  0.00  0.00    +0.037 A 
ATOM     16  C   UNL     1      -2.907 -15.513  13.859  0.00  0.00    +0.013 A 
ATOM     17  C   UNL     1      -3.608 -16.297  14.844  0.00  0.00    +0.005 A 
ATOM     18  C   UNL     1      -3.366 -17.736  14.918  0.00  0.00    -0.033 A 
ATOM     28  C   UNL     1      -2.427 -18.350  13.994  0.00  0.00    +0.005 A 
ATOM     29  C   UNL     1      -1.737 -17.584  13.028  0.00  0.00    +0.013 A 
BRANCH  18  19
ATOM     19  C   UNL     1      -4.054 -18.648  15.951  0.00  0.00    +0.119 C 
BRANCH  19  20
ATOM     20  N   UNL     1      -4.987 -18.000  16.921  0.00  0.00    -0.302 NA
ATOM     21  C   UNL     1      -4.289 -17.638  18.235  0.00  0.00    +0.066 C 
ATOM     22  C   UNL     1      -5.274 -16.941  19.229  0.00  0.00    -0.064 C 
ATOM     23  N   UNL     1      -6.469 -17.859  19.486  0.00  0.00    +0.379 N 
ATOM     24  C   UNL     1      -7.369 -17.231  20.465  0.00  0.00    -0.096 C 
ATOM     25  H   UNL     1      -6.081 -18.801  19.939  0.00  0.00    -0.082 HD
ATOM     26  C   UNL     1      -7.168 -18.226  18.185  0.00  0.00    -0.064 C 
ATOM     27  C   UNL     1      -6.173 -18.892  17.193  0.00  0.00    +0.066 C 
ENDBRANCH  19  20
ENDBRANCH  18  19
ENDBRANCH  14  15
ENDBRANCH  12  13
TORSDOF 6
ENDMDL
MODEL 5
REMARK VINA RESULT:      -7.4      2.873     12.866
REMARK  Name = C:\Users\Docking\Desktop\test protocol\1iep_ligandH.pdb
REMARK  8 active torsions:
REMARK  status: ('A' for Active; 'I' for Inactive)
REMARK    1  A    between atoms: _5  and  _11
REMARK    2  A    between atoms: _19  and  _21
REMARK    3  A    between atoms: _22  and  _66
REMARK    4  A    between atoms: _27  and  _30
REMARK    5  A    between atoms: _32  and  _33
REMARK    6  A    between atoms: _38  and  _43
REMARK    7  A    between atoms: _43  and  _46
REMARK    8  A    between atoms: _53  and  _55
REMARK                            x       y       z     vdW  Elec       q    Type
REMARK                         _______ _______ _______ _____ _____    ______ ____
ROOT
ATOM     10  C   UNL     1       1.632 -13.324  10.138  0.00  0.00    +0.038 A 
ATOM     11  C   UNL     1       0.523 -13.718  10.929  0.00  0.00    +0.047 A 
ATOM     12  C   UNL     1       0.651 -14.758  11.938  0.00  0.00    +0.035 A 
ATOM     32  C   UNL     1       1.924 -15.373  12.117  0.00  0.00    +0.024 A 
ATOM     33  C   UNL     1       3.062 -14.985  11.321  0.00  0.00    +0.007 A 
ATOM     34  C   UNL     1       2.941 -13.962  10.322  0.00  0.00    -0.029 A 
ATOM     35  C   UNL     1       4.193 -13.591   9.493  0.00  0.00    +0.045 C 
ENDROOT
BRANCH  10   9
ATOM      4  C   UNL     1       0.467  -8.842   8.877  0.00  0.00    +0.077 A 
ATOM      5  C   UNL     1       0.163  -8.477  10.230  0.00  0.00    +0.048 A 
ATOM      6  C   UNL     1       0.313  -9.474  11.220  0.00  0.00    +0.116 A 
ATOM      7  N   UNL     1       0.736 -10.738  10.871  0.00  0.00    -0.223 NA
ATOM      8  C   UNL     1       1.019 -11.057   9.556  0.00  0.00    +0.220 A 
ATOM      9  N   UNL     1       1.453 -12.320   9.184  0.00  0.00    -0.283 N 
ATOM     36  H   UNL     1       1.645 -12.518   8.202  0.00  0.00    +0.155 HD
ATOM     37  N   UNL     1       0.882 -10.123   8.592  0.00  0.00    -0.214 NA
BRANCH   4   3
ATOM      1  C   UNL     1       0.155  -7.396   5.255  0.00  0.00    +0.020 A 
ATOM      2  C   UNL     1       0.256  -8.349   6.337  0.00  0.00    +0.013 A 
ATOM      3  C   UNL     1       0.360  -7.898   7.719  0.00  0.00    +0.019 A 
ATOM     38  C   UNL     1       0.359  -6.466   7.975  0.00  0.00    +0.120 A 
ATOM     39  N   UNL     1       0.262  -5.572   6.913  0.00  0.00    -0.263 NA
ATOM     40  C   UNL     1       0.163  -5.994   5.579  0.00  0.00    +0.111 A 
ENDBRANCH   4   3
ENDBRANCH  10   9
BRANCH  12  13
ATOM     13  N   UNL     1      -0.442 -15.206  12.766  0.00  0.00    -0.281 N 
ATOM     14  C   UNL     1      -1.490 -16.041  12.414  0.00  0.00    +0.248 C 
ATOM     30  O   UNL     1      -1.764 -16.360  11.267  0.00  0.00    -0.270 OA
ATOM     31  H   UNL     1      -0.443 -14.866  13.728  0.00  0.00    +0.155 HD
BRANCH  14  15
ATOM     15  C   UNL     1      -2.369 -16.589  13.492  0.00  0.00    +0.037 A 
ATOM     16  C   UNL     1      -3.309 -15.730  14.216  0.00  0.00    +0.013 A 
ATOM     17  C   UNL     1      -4.133 -16.280  15.263  0.00  0.00    +0.005 A 
ATOM     18  C   UNL     1      -4.022 -17.700  15.590  0.00  0.00    -0.033 A 
ATOM     28  C   UNL     1      -3.085 -18.531  14.851  0.00  0.00    +0.005 A 
ATOM     29  C   UNL     1      -2.275 -17.994  13.826  0.00  0.00    +0.013 A 
BRANCH  18  19
ATOM     19  C   UNL     1      -4.847 -18.368  16.705  0.00  0.00    +0.119 C 
BRANCH  19  20
ATOM     20  N   UNL     1      -5.406 -17.480  17.768  0.00  0.00    -0.302 NA
ATOM     21  C   UNL     1      -5.076 -17.989  19.174  0.00  0.00    +0.066 C 
ATOM     22  C   UNL     1      -5.650 -17.036  20.273  0.00  0.00    -0.064 C 
ATOM     23  N   UNL     1      -7.162 -16.899  20.087  0.00  0.00    +0.379 N 
ATOM     24  C   UNL     1      -7.712 -16.049  21.154  0.00  0.00    -0.096 C 
ATOM     25  H   UNL     1      -7.609 -17.914  20.198  0.00  0.00    -0.082 HD
ATOM     26  C   UNL     1      -7.498 -16.396  18.691  0.00  0.00    -0.064 C 
ATOM     27  C   UNL     1      -6.899 -17.334  17.606  0.00  0.00    +0.066 C 
ENDBRANCH  19  20
ENDBRANCH  18  19
ENDBRANCH  14  15
ENDBRANCH  12  13
TORSDOF 6
ENDMDL
