MODEL 1
REMARK VINA RESULT:      -7.6      0.000      0.000
REMARK  Name = C:\Users\Docking\Desktop\test protocol\1iep_ligandH.pdb
REMARK  8 active torsions:
REMARK  status: ('A' for Active; 'I' for Inactive)
REMARK    1  A    between atoms: _5  and  _11
REMARK    2  A    between atoms: _19  and  _21
REMARK    3  A    between atoms: _22  and  _66
REMARK    4  A    between atoms: _27  and  _30
REMARK    5  A    between atoms: _32  and  _33
REMARK    6  A    between atoms: _38  and  _43
REMARK    7  A    between atoms: _43  and  _46
REMARK    8  A    between atoms: _53  and  _55
REMARK                            x       y       z     vdW  Elec       q    Type
REMARK                         _______ _______ _______ _____ _____    ______ ____
ROOT
ATOM     10  C   UNL     1      93.639  70.100  99.612  0.00  0.00    +0.038 A 
ATOM     11  C   UNL     1      92.630  69.196 100.029  0.00  0.00    +0.047 A 
ATOM     12  C   UNL     1      91.965  69.349 101.313  0.00  0.00    +0.035 A 
ATOM     32  C   UNL     1      92.352  70.438 102.148  0.00  0.00    +0.024 A 
ATOM     33  C   UNL     1      93.378  71.366 101.741  0.00  0.00    +0.007 A 
ATOM     34  C   UNL     1      94.038  71.218 100.476  0.00  0.00    -0.029 A 
ATOM     35  C   UNL     1      95.135  72.239 100.093  0.00  0.00    +0.045 C 
ENDROOT
BRANCH  10   9
ATOM      4  C   UNL     1      93.454  69.690  94.833  0.00  0.00    +0.077 A 
ATOM      5  C   UNL     1      92.028  69.851  94.816  0.00  0.00    +0.048 A 
ATOM      6  C   UNL     1      91.380  70.029  96.058  0.00  0.00    +0.116 A 
ATOM      7  N   UNL     1      92.113  70.045  97.225  0.00  0.00    -0.223 NA
ATOM      8  C   UNL     1      93.486  69.885  97.207  0.00  0.00    +0.220 A 
ATOM      9  N   UNL     1      94.244  69.905  98.368  0.00  0.00    -0.283 N 
ATOM     36  H   UNL     1      95.254  69.777  98.313  0.00  0.00    +0.155 HD
ATOM     37  N   UNL     1      94.129  69.712  96.033  0.00  0.00    -0.214 NA
BRANCH   4   3
ATOM      1  C   UNL     1      95.963  68.223  92.215  0.00  0.00    +0.020 A 
ATOM      2  C   UNL     1      95.185  68.365  93.424  0.00  0.00    +0.013 A 
ATOM      3  C   UNL     1      94.282  69.495  93.601  0.00  0.00    +0.019 A 
ATOM     38  C   UNL     1      94.188  70.472  92.526  0.00  0.00    +0.120 A 
ATOM     39  N   UNL     1      94.950  70.310  91.374  0.00  0.00    -0.263 NA
ATOM     40  C   UNL     1      95.823  69.227  91.193  0.00  0.00    +0.111 A 
ENDBRANCH   4   3
ENDBRANCH  10   9
BRANCH  12  13
ATOM     13  N   UNL     1      90.939  68.458 101.793  0.00  0.00    -0.281 N 
ATOM     14  C   UNL     1      89.566  68.590 101.663  0.00  0.00    +0.248 C 
ATOM     30  O   UNL     1      89.002  69.611 101.297  0.00  0.00    -0.270 OA
ATOM     31  H   UNL     1      91.264  67.628 102.290  0.00  0.00    +0.155 HD
BRANCH  14  15
ATOM     15  C   UNL     1      88.693  67.425 102.001  0.00  0.00    +0.037 A 
ATOM     16  C   UNL     1      87.271  67.415 101.650  0.00  0.00    +0.013 A 
ATOM     17  C   UNL     1      86.447  66.286 102.003  0.00  0.00    +0.005 A 
ATOM     18  C   UNL     1      87.045  65.157 102.711  0.00  0.00    -0.033 A 
ATOM     28  C   UNL     1      88.459  65.191 103.043  0.00  0.00    +0.005 A 
ATOM     29  C   UNL     1      89.270  66.296 102.699  0.00  0.00    +0.013 A 
BRANCH  18  19
ATOM     19  C   UNL     1      86.237  63.920 103.146  0.00  0.00    +0.119 C 
BRANCH  19  20
ATOM     20  N   UNL     1      85.900  62.917 102.092  0.00  0.00    -0.302 NA
ATOM     21  C   UNL     1      85.163  61.704 102.667  0.00  0.00    +0.066 C 
ATOM     22  C   UNL     1      84.799  60.676 101.547  0.00  0.00    -0.064 C 
ATOM     23  N   UNL     1      86.075  60.241 100.823  0.00  0.00    +0.379 N 
ATOM     24  C   UNL     1      85.743  59.231  99.808  0.00  0.00    -0.096 C 
ATOM     25  H   UNL     1      86.742  59.759 101.575  0.00  0.00    -0.082 HD
ATOM     26  C   UNL     1      86.816  61.442 100.251  0.00  0.00    -0.064 C 
ATOM     27  C   UNL     1      87.147  62.471 101.367  0.00  0.00    +0.066 C 
ENDBRANCH  19  20
ENDBRANCH  18  19
ENDBRANCH  14  15
ENDBRANCH  12  13
TORSDOF 6
ENDMDL
MODEL 2
REMARK VINA RESULT:      -7.4     15.636     20.257
REMARK  Name = C:\Users\Docking\Desktop\test protocol\1iep_ligandH.pdb
REMARK  8 active torsions:
REMARK  status: ('A' for Active; 'I' for Inactive)
REMARK    1  A    between atoms: _5  and  _11
REMARK    2  A    between atoms: _19  and  _21
REMARK    3  A    between atoms: _22  and  _66
REMARK    4  A    between atoms: _27  and  _30
REMARK    5  A    between atoms: _32  and  _33
REMARK    6  A    between atoms: _38  and  _43
REMARK    7  A    between atoms: _43  and  _46
REMARK    8  A    between atoms: _53  and  _55
REMARK                            x       y       z     vdW  Elec       q    Type
REMARK                         _______ _______ _______ _____ _____    ______ ____
ROOT
ATOM     10  C   UNL     1      91.786  50.043  98.247  0.00  0.00    +0.038 A 
ATOM     11  C   UNL     1      92.395  49.515  99.414  0.00  0.00    +0.047 A 
ATOM     12  C   UNL     1      92.054  48.190  99.907  0.00  0.00    +0.035 A 
ATOM     32  C   UNL     1      91.090  47.428  99.184  0.00  0.00    +0.024 A 
ATOM     33  C   UNL     1      90.460  47.949  97.997  0.00  0.00    +0.007 A 
ATOM     34  C   UNL     1      90.791  49.257  97.507  0.00  0.00    -0.029 A 
ATOM     35  C   UNL     1      90.080  49.768  96.233  0.00  0.00    +0.045 C 
ENDROOT
BRANCH  10   9
ATOM      4  C   UNL     1      94.753  53.062  95.985  0.00  0.00    +0.077 A 
ATOM      5  C   UNL     1      95.667  52.008  95.652  0.00  0.00    +0.048 A 
ATOM      6  C   UNL     1      95.341  50.704  96.088  0.00  0.00    +0.116 A 
ATOM      7  N   UNL     1      94.183  50.483  96.802  0.00  0.00    -0.223 NA
ATOM      8  C   UNL     1      93.324  51.522  97.108  0.00  0.00    +0.220 A 
ATOM      9  N   UNL     1      92.151  51.321  97.818  0.00  0.00    -0.283 N 
ATOM     36  H   UNL     1      91.547  52.115  98.030  0.00  0.00    +0.155 HD
ATOM     37  N   UNL     1      93.614  52.777  96.705  0.00  0.00    -0.214 NA
BRANCH   4   3
ATOM      1  C   UNL     1      94.976  56.966  96.088  0.00  0.00    +0.020 A 
ATOM      2  C   UNL     1      94.765  55.603  96.517  0.00  0.00    +0.013 A 
ATOM      3  C   UNL     1      94.958  54.493  95.593  0.00  0.00    +0.019 A 
ATOM     38  C   UNL     1      95.369  54.798  94.231  0.00  0.00    +0.120 A 
ATOM     39  N   UNL     1      95.563  56.121  93.845  0.00  0.00    -0.263 NA
ATOM     40  C   UNL     1      95.379  57.198  94.726  0.00  0.00    +0.111 A 
ENDBRANCH   4   3
ENDBRANCH  10   9
BRANCH  12  13
ATOM     13  N   UNL     1      92.633  47.605 101.091  0.00  0.00    -0.281 N 
ATOM     14  C   UNL     1      93.797  46.860 101.190  0.00  0.00    +0.248 C 
ATOM     30  O   UNL     1      94.408  46.401 100.236  0.00  0.00    -0.270 OA
ATOM     31  H   UNL     1      92.123  47.758 101.961  0.00  0.00    +0.155 HD
BRANCH  14  15
ATOM     15  C   UNL     1      94.355  46.571 102.546  0.00  0.00    +0.037 A 
ATOM     16  C   UNL     1      93.532  46.702 103.751  0.00  0.00    +0.013 A 
ATOM     17  C   UNL     1      94.100  46.434 105.048  0.00  0.00    +0.005 A 
ATOM     18  C   UNL     1      95.501  46.030 105.147  0.00  0.00    -0.033 A 
ATOM     28  C   UNL     1      96.293  45.903 103.935  0.00  0.00    +0.005 A 
ATOM     29  C   UNL     1      95.740  46.166 102.662  0.00  0.00    +0.013 A 
BRANCH  18  19
ATOM     19  C   UNL     1      96.196  45.744 106.491  0.00  0.00    +0.119 C 
BRANCH  19  20
ATOM     20  N   UNL     1      97.186  44.627 106.525  0.00  0.00    -0.302 NA
ATOM     21  C   UNL     1      96.629  43.386 107.226  0.00  0.00    +0.066 C 
ATOM     22  C   UNL     1      97.670  42.219 107.233  0.00  0.00    -0.064 C 
ATOM     23  N   UNL     1      98.957  42.692 107.910  0.00  0.00    +0.379 N 
ATOM     24  C   UNL     1      99.917  41.580 107.970  0.00  0.00    -0.096 C 
ATOM     25  H   UNL     1      98.703  42.976 108.958  0.00  0.00    -0.082 HD
ATOM     26  C   UNL     1      99.517  43.928 107.221  0.00  0.00    -0.064 C 
ATOM     27  C   UNL     1      98.464  45.071 107.194  0.00  0.00    +0.066 C 
ENDBRANCH  19  20
ENDBRANCH  18  19
ENDBRANCH  14  15
ENDBRANCH  12  13
TORSDOF 6
ENDMDL
MODEL 3
REMARK VINA RESULT:      -7.3      9.206     12.030
REMARK  Name = C:\Users\Docking\Desktop\test protocol\1iep_ligandH.pdb
REMARK  8 active torsions:
REMARK  status: ('A' for Active; 'I' for Inactive)
REMARK    1  A    between atoms: _5  and  _11
REMARK    2  A    between atoms: _19  and  _21
REMARK    3  A    between atoms: _22  and  _66
REMARK    4  A    between atoms: _27  and  _30
REMARK    5  A    between atoms: _32  and  _33
REMARK    6  A    between atoms: _38  and  _43
REMARK    7  A    between atoms: _43  and  _46
REMARK    8  A    between atoms: _53  and  _55
REMARK                            x       y       z     vdW  Elec       q    Type
REMARK                         _______ _______ _______ _____ _____    ______ ____
ROOT
ATOM     10  C   UNL     1      95.211  63.669  90.585  0.00  0.00    +0.038 A 
ATOM     11  C   UNL     1      93.880  63.724  90.098  0.00  0.00    +0.047 A 
ATOM     12  C   UNL     1      93.398  62.766  89.115  0.00  0.00    +0.035 A 
ATOM     32  C   UNL     1      94.298  61.763  88.651  0.00  0.00    +0.024 A 
ATOM     33  C   UNL     1      95.655  61.693  89.134  0.00  0.00    +0.007 A 
ATOM     34  C   UNL     1      96.137  62.636  90.102  0.00  0.00    -0.029 A 
ATOM     35  C   UNL     1      97.603  62.518  90.580  0.00  0.00    +0.045 C 
ENDROOT
BRANCH  10   9
ATOM      4  C   UNL     1      96.426  68.136  91.849  0.00  0.00    +0.077 A 
ATOM      5  C   UNL     1      96.256  68.625  90.511  0.00  0.00    +0.048 A 
ATOM      6  C   UNL     1      95.862  67.692  89.525  0.00  0.00    +0.116 A 
ATOM      7  N   UNL     1      95.656  66.373  89.864  0.00  0.00    -0.223 NA
ATOM      8  C   UNL     1      95.831  65.934  91.164  0.00  0.00    +0.220 A 
ATOM      9  N   UNL     1      95.621  64.613  91.528  0.00  0.00    -0.283 N 
ATOM     36  H   UNL     1      95.768  64.328  92.496  0.00  0.00    +0.155 HD
ATOM     37  N   UNL     1      96.208  66.805  92.123  0.00  0.00    -0.214 NA
BRANCH   4   3
ATOM      1  C   UNL     1      96.957  69.533  95.464  0.00  0.00    +0.020 A 
ATOM      2  C   UNL     1      96.538  68.665  94.388  0.00  0.00    +0.013 A 
ATOM      3  C   UNL     1      96.837  69.000  93.001  0.00  0.00    +0.019 A 
ATOM     38  C   UNL     1      97.568  70.229  92.736  0.00  0.00    +0.120 A 
ATOM     39  N   UNL     1      97.958  71.046  93.792  0.00  0.00    -0.263 NA
ATOM     40  C   UNL     1      97.675  70.735  95.130  0.00  0.00    +0.111 A 
ENDBRANCH   4   3
ENDBRANCH  10   9
BRANCH  12  13
ATOM     13  N   UNL     1      92.060  62.778  88.578  0.00  0.00    -0.281 N 
ATOM     14  C   UNL     1      90.897  62.324  89.179  0.00  0.00    +0.248 C 
ATOM     30  O   UNL     1      90.864  61.638  90.190  0.00  0.00    -0.270 OA
ATOM     31  H   UNL     1      91.957  63.170  87.642  0.00  0.00    +0.155 HD
BRANCH  14  15
ATOM     15  C   UNL     1      89.582  62.668  88.559  0.00  0.00    +0.037 A 
ATOM     16  C   UNL     1      89.419  62.723  87.104  0.00  0.00    +0.013 A 
ATOM     17  C   UNL     1      88.143  63.074  86.532  0.00  0.00    +0.005 A 
ATOM     18  C   UNL     1      87.019  63.372  87.417  0.00  0.00    -0.033 A 
ATOM     28  C   UNL     1      87.207  63.304  88.856  0.00  0.00    +0.005 A 
ATOM     29  C   UNL     1      88.456  62.961  89.420  0.00  0.00    +0.013 A 
BRANCH  18  19
ATOM     19  C   UNL     1      85.628  63.776  86.894  0.00  0.00    +0.119 C 
BRANCH  19  20
ATOM     20  N   UNL     1      84.726  64.500  87.839  0.00  0.00    -0.302 NA
ATOM     21  C   UNL     1      83.370  63.805  87.986  0.00  0.00    +0.066 C 
ATOM     22  C   UNL     1      82.448  64.563  88.995  0.00  0.00    -0.064 C 
ATOM     23  N   UNL     1      82.267  66.009  88.530  0.00  0.00    +0.379 N 
ATOM     24  C   UNL     1      81.354  66.708  89.446  0.00  0.00    -0.096 C 
ATOM     25  H   UNL     1      81.785  65.983  87.525  0.00  0.00    -0.082 HD
ATOM     26  C   UNL     1      83.611  66.707  88.379  0.00  0.00    -0.064 C 
ATOM     27  C   UNL     1      84.531  65.929  87.396  0.00  0.00    +0.066 C 
ENDBRANCH  19  20
ENDBRANCH  18  19
ENDBRANCH  14  15
ENDBRANCH  12  13
TORSDOF 6
ENDMDL
MODEL 4
REMARK VINA RESULT:      -7.3     15.852     22.261
REMARK  Name = C:\Users\Docking\Desktop\test protocol\1iep_ligandH.pdb
REMARK  8 active torsions:
REMARK  status: ('A' for Active; 'I' for Inactive)
REMARK    1  A    between atoms: _5  and  _11
REMARK    2  A    between atoms: _19  and  _21
REMARK    3  A    between atoms: _22  and  _66
REMARK    4  A    between atoms: _27  and  _30
REMARK    5  A    between atoms: _32  and  _33
REMARK    6  A    between atoms: _38  and  _43
REMARK    7  A    between atoms: _43  and  _46
REMARK    8  A    between atoms: _53  and  _55
REMARK                            x       y       z     vdW  Elec       q    Type
REMARK                         _______ _______ _______ _____ _____    ______ ____
ROOT
ATOM     10  C   UNL     1      94.737  45.887 101.571  0.00  0.00    +0.038 A 
ATOM     11  C   UNL     1      95.108  47.109 100.953  0.00  0.00    +0.047 A 
ATOM     12  C   UNL     1      94.139  47.902 100.213  0.00  0.00    +0.035 A 
ATOM     32  C   UNL     1      92.799  47.423 100.126  0.00  0.00    +0.024 A 
ATOM     33  C   UNL     1      92.405  46.183 100.747  0.00  0.00    +0.007 A 
ATOM     34  C   UNL     1      93.357  45.395 101.476  0.00  0.00    -0.029 A 
ATOM     35  C   UNL     1      92.880  44.071 102.116  0.00  0.00    +0.045 C 
ENDROOT
BRANCH  10   9
ATOM      4  C   UNL     1      97.200  44.869 105.563  0.00  0.00    +0.077 A 
ATOM      5  C   UNL     1      96.512  45.879 106.316  0.00  0.00    +0.048 A 
ATOM      6  C   UNL     1      95.537  46.643 105.636  0.00  0.00    +0.116 A 
ATOM      7  N   UNL     1      95.277  46.406 104.304  0.00  0.00    -0.223 NA
ATOM      8  C   UNL     1      95.959  45.426 103.607  0.00  0.00    +0.220 A 
ATOM      9  N   UNL     1      95.708  45.165 102.269  0.00  0.00    -0.283 N 
ATOM     36  H   UNL     1      96.238  44.439 101.789  0.00  0.00    +0.155 HD
ATOM     37  N   UNL     1      96.896  44.684 104.233  0.00  0.00    -0.214 NA
BRANCH   4   3
ATOM      1  C   UNL     1     100.068  43.453 107.815  0.00  0.00    +0.020 A 
ATOM      2  C   UNL     1      99.062  44.351 107.295  0.00  0.00    +0.013 A 
ATOM      3  C   UNL     1      98.254  43.978 106.141  0.00  0.00    +0.019 A 
ATOM     38  C   UNL     1      98.490  42.677 105.532  0.00  0.00    +0.120 A 
ATOM     39  N   UNL     1      99.466  41.834 106.053  0.00  0.00    -0.263 NA
ATOM     40  C   UNL     1     100.251  42.184 107.162  0.00  0.00    +0.111 A 
ENDBRANCH   4   3
ENDBRANCH  10   9
BRANCH  12  13
ATOM     13  N   UNL     1      94.459  49.146  99.558  0.00  0.00    -0.281 N 
ATOM     14  C   UNL     1      95.143  49.330  98.367  0.00  0.00    +0.248 C 
ATOM     30  O   UNL     1      95.772  48.456  97.790  0.00  0.00    -0.270 OA
ATOM     31  H   UNL     1      94.144  49.994 100.029  0.00  0.00    +0.155 HD
BRANCH  14  15
ATOM     15  C   UNL     1      95.139  50.683  97.734  0.00  0.00    +0.037 A 
ATOM     16  C   UNL     1      95.977  50.980  96.569  0.00  0.00    +0.013 A 
ATOM     17  C   UNL     1      95.967  52.299  95.988  0.00  0.00    +0.005 A 
ATOM     18  C   UNL     1      95.113  53.332  96.570  0.00  0.00    -0.033 A 
ATOM     28  C   UNL     1      94.287  53.009  97.722  0.00  0.00    +0.005 A 
ATOM     29  C   UNL     1      94.295  51.717  98.295  0.00  0.00    +0.013 A 
BRANCH  18  19
ATOM     19  C   UNL     1      95.054  54.772  96.028  0.00  0.00    +0.119 C 
BRANCH  19  20
ATOM     20  N   UNL     1      93.892  55.613  96.444  0.00  0.00    -0.302 NA
ATOM     21  C   UNL     1      92.837  55.722  95.339  0.00  0.00    +0.066 C 
ATOM     22  C   UNL     1      91.618  56.586  95.799  0.00  0.00    -0.064 C 
ATOM     23  N   UNL     1      92.109  57.973  96.219  0.00  0.00    +0.379 N 
ATOM     24  C   UNL     1      90.958  58.806  96.597  0.00  0.00    -0.096 C 
ATOM     25  H   UNL     1      92.591  58.444  95.331  0.00  0.00    -0.082 HD
ATOM     26  C   UNL     1      93.159  57.873  97.316  0.00  0.00    -0.064 C 
ATOM     27  C   UNL     1      94.353  56.988  96.859  0.00  0.00    +0.066 C 
ENDBRANCH  19  20
ENDBRANCH  18  19
ENDBRANCH  14  15
ENDBRANCH  12  13
TORSDOF 6
ENDMDL
MODEL 5
REMARK VINA RESULT:      -6.9      4.028      8.273
REMARK  Name = C:\Users\Docking\Desktop\test protocol\1iep_ligandH.pdb
REMARK  8 active torsions:
REMARK  status: ('A' for Active; 'I' for Inactive)
REMARK    1  A    between atoms: _5  and  _11
REMARK    2  A    between atoms: _19  and  _21
REMARK    3  A    between atoms: _22  and  _66
REMARK    4  A    between atoms: _27  and  _30
REMARK    5  A    between atoms: _32  and  _33
REMARK    6  A    between atoms: _38  and  _43
REMARK    7  A    between atoms: _43  and  _46
REMARK    8  A    between atoms: _53  and  _55
REMARK                            x       y       z     vdW  Elec       q    Type
REMARK                         _______ _______ _______ _____ _____    ______ ____
ROOT
ATOM     10  C   UNL     1      96.461  68.109  92.301  0.00  0.00    +0.038 A 
ATOM     11  C   UNL     1      95.741  68.370  93.495  0.00  0.00    +0.047 A 
ATOM     12  C   UNL     1      96.418  68.826  94.699  0.00  0.00    +0.035 A 
ATOM     32  C   UNL     1      97.831  69.008  94.651  0.00  0.00    +0.024 A 
ATOM     33  C   UNL     1      98.580  68.746  93.447  0.00  0.00    +0.007 A 
ATOM     34  C   UNL     1      97.917  68.294  92.257  0.00  0.00    -0.029 A 
ATOM     35  C   UNL     1      98.771  68.022  90.996  0.00  0.00    +0.045 C 
ENDROOT
BRANCH  10   9
ATOM      4  C   UNL     1      95.019  64.668  89.283  0.00  0.00    +0.077 A 
ATOM      5  C   UNL     1      95.745  63.656  89.995  0.00  0.00    +0.048 A 
ATOM      6  C   UNL     1      96.483  64.064  91.128  0.00  0.00    +0.116 A 
ATOM      7  N   UNL     1      96.487  65.388  91.512  0.00  0.00    -0.223 NA
ATOM      8  C   UNL     1      95.777  66.338  90.802  0.00  0.00    +0.220 A 
ATOM      9  N   UNL     1      95.760  67.673  91.175  0.00  0.00    -0.283 N 
ATOM     36  H   UNL     1      95.230  68.345  90.620  0.00  0.00    +0.155 HD
ATOM     37  N   UNL     1      95.065  65.974  89.715  0.00  0.00    -0.214 NA
BRANCH   4   3
ATOM      1  C   UNL     1      92.366  64.978  86.425  0.00  0.00    +0.020 A 
ATOM      2  C   UNL     1      93.138  65.290  87.606  0.00  0.00    +0.013 A 
ATOM      3  C   UNL     1      94.189  64.393  88.067  0.00  0.00    +0.019 A 
ATOM     38  C   UNL     1      94.437  63.179  87.304  0.00  0.00    +0.120 A 
ATOM     39  N   UNL     1      93.677  62.904  86.172  0.00  0.00    -0.263 NA
ATOM     40  C   UNL     1      92.661  63.759  85.719  0.00  0.00    +0.111 A 
ENDBRANCH   4   3
ENDBRANCH  10   9
BRANCH  12  13
ATOM     13  N   UNL     1      95.740  69.099  95.941  0.00  0.00    -0.281 N 
ATOM     14  C   UNL     1      95.267  70.316  96.403  0.00  0.00    +0.248 C 
ATOM     30  O   UNL     1      95.546  71.399  95.910  0.00  0.00    -0.270 OA
ATOM     31  H   UNL     1      95.591  68.298  96.555  0.00  0.00    +0.155 HD
BRANCH  14  15
ATOM     15  C   UNL     1      94.364  70.335  97.595  0.00  0.00    +0.037 A 
ATOM     16  C   UNL     1      94.838  70.804  98.900  0.00  0.00    +0.013 A 
ATOM     17  C   UNL     1      93.952  70.795 100.036  0.00  0.00    +0.005 A 
ATOM     18  C   UNL     1      92.581  70.317  99.872  0.00  0.00    -0.033 A 
ATOM     28  C   UNL     1      92.136  69.863  98.565  0.00  0.00    +0.005 A 
ATOM     29  C   UNL     1      93.002  69.869  97.449  0.00  0.00    +0.013 A 
BRANCH  18  19
ATOM     19  C   UNL     1      91.573  70.253 101.035  0.00  0.00    +0.119 C 
BRANCH  19  20
ATOM     20  N   UNL     1      90.599  69.121 101.034  0.00  0.00    -0.302 NA
ATOM     21  C   UNL     1      89.189  69.575 100.646  0.00  0.00    +0.066 C 
ATOM     22  C   UNL     1      88.189  68.373 100.629  0.00  0.00    -0.064 C 
ATOM     23  N   UNL     1      88.182  67.699 102.002  0.00  0.00    +0.379 N 
ATOM     24  C   UNL     1      87.200  66.605 102.006  0.00  0.00    -0.096 C 
ATOM     25  H   UNL     1      87.849  68.456 102.749  0.00  0.00    -0.082 HD
ATOM     26  C   UNL     1      89.581  67.246 102.396  0.00  0.00    -0.064 C 
ATOM     27  C   UNL     1      90.574  68.443 102.382  0.00  0.00    +0.066 C 
ENDBRANCH  19  20
ENDBRANCH  18  19
ENDBRANCH  14  15
ENDBRANCH  12  13
TORSDOF 6
ENDMDL
