MODEL 1
REMARK VINA RESULT:      -8.7      0.000      0.000
REMARK  Name = C:\Users\Docking\Desktop\test protocol\1iep_ligandH.pdb
REMARK  8 active torsions:
REMARK  status: ('A' for Active; 'I' for Inactive)
REMARK    1  A    between atoms: _5  and  _11
REMARK    2  A    between atoms: _19  and  _21
REMARK    3  A    between atoms: _22  and  _66
REMARK    4  A    between atoms: _27  and  _30
REMARK    5  A    between atoms: _32  and  _33
REMARK    6  A    between atoms: _38  and  _43
REMARK    7  A    between atoms: _43  and  _46
REMARK    8  A    between atoms: _53  and  _55
REMARK                            x       y       z     vdW  Elec       q    Type
REMARK                         _______ _______ _______ _____ _____    ______ ____
ROOT
ATOM     10  C   UNL     1      14.729  21.444  15.512  0.00  0.00    +0.038 A 
ATOM     11  C   UNL     1      13.550  21.653  14.752  0.00  0.00    +0.047 A 
ATOM     12  C   UNL     1      12.621  20.565  14.490  0.00  0.00    +0.035 A 
ATOM     32  C   UNL     1      12.922  19.277  15.020  0.00  0.00    +0.024 A 
ATOM     33  C   UNL     1      14.116  19.046  15.794  0.00  0.00    +0.007 A 
ATOM     34  C   UNL     1      15.038  20.115  16.053  0.00  0.00    -0.029 A 
ATOM     35  C   UNL     1      16.306  19.808  16.884  0.00  0.00    +0.045 C 
ENDROOT
BRANCH  10   9
ATOM      4  C   UNL     1      18.473  24.192  14.302  0.00  0.00    +0.077 A 
ATOM      5  C   UNL     1      18.762  23.392  13.146  0.00  0.00    +0.048 A 
ATOM      6  C   UNL     1      17.928  22.278  12.903  0.00  0.00    +0.116 A 
ATOM      7  N   UNL     1      16.885  21.995  13.758  0.00  0.00    -0.223 NA
ATOM      8  C   UNL     1      16.635  22.785  14.864  0.00  0.00    +0.220 A 
ATOM      9  N   UNL     1      15.586  22.524  15.733  0.00  0.00    -0.283 N 
ATOM     36  H   UNL     1      15.440  23.127  16.542  0.00  0.00    +0.155 HD
ATOM     37  N   UNL     1      17.418  23.854  15.119  0.00  0.00    -0.214 NA
BRANCH   4   3
ATOM      1  C   UNL     1      20.808  27.327  14.169  0.00  0.00    +0.020 A 
ATOM      2  C   UNL     1      20.065  26.164  13.741  0.00  0.00    +0.013 A 
ATOM      3  C   UNL     1      19.263  25.403  14.691  0.00  0.00    +0.019 A 
ATOM     38  C   UNL     1      19.233  25.849  16.076  0.00  0.00    +0.120 A 
ATOM     39  N   UNL     1      19.960  26.971  16.458  0.00  0.00    -0.263 NA
ATOM     40  C   UNL     1      20.737  27.711  15.554  0.00  0.00    +0.111 A 
ENDBRANCH   4   3
ENDBRANCH  10   9
BRANCH  12  13
ATOM     13  N   UNL     1      11.412  20.716  13.718  0.00  0.00    -0.281 N 
ATOM     14  C   UNL     1      10.167  21.135  14.159  0.00  0.00    +0.248 C 
ATOM     30  O   UNL     1       9.849  21.241  15.334  0.00  0.00    -0.270 OA
ATOM     31  H   UNL     1      11.483  20.485  12.727  0.00  0.00    +0.155 HD
BRANCH  14  15
ATOM     15  C   UNL     1       9.119  21.472  13.147  0.00  0.00    +0.037 A 
ATOM     16  C   UNL     1       8.476  22.788  13.129  0.00  0.00    +0.013 A 
ATOM     17  C   UNL     1       7.456  23.081  12.154  0.00  0.00    +0.005 A 
ATOM     18  C   UNL     1       7.074  22.055  11.186  0.00  0.00    -0.033 A 
ATOM     28  C   UNL     1       7.733  20.760  11.223  0.00  0.00    +0.005 A 
ATOM     29  C   UNL     1       8.732  20.469  12.179  0.00  0.00    +0.013 A 
BRANCH  18  19
ATOM     19  C   UNL     1       5.981  22.273  10.123  0.00  0.00    +0.119 C 
BRANCH  19  20
ATOM     20  N   UNL     1       6.364  23.031   8.894  0.00  0.00    -0.302 NA
ATOM     21  C   UNL     1       5.193  23.169   7.917  0.00  0.00    +0.066 C 
ATOM     22  C   UNL     1       5.605  23.984   6.648  0.00  0.00    -0.064 C 
ATOM     23  N   UNL     1       6.796  23.303   5.972  0.00  0.00    +0.379 N 
ATOM     24  C   UNL     1       7.149  24.034   4.746  0.00  0.00    -0.096 C 
ATOM     25  H   UNL     1       6.475  22.278   5.675  0.00  0.00    -0.082 HD
ATOM     26  C   UNL     1       7.964  23.159   6.938  0.00  0.00    -0.064 C 
ATOM     27  C   UNL     1       7.536  22.373   8.209  0.00  0.00    +0.066 C 
ENDBRANCH  19  20
ENDBRANCH  18  19
ENDBRANCH  14  15
ENDBRANCH  12  13
TORSDOF 6
ENDMDL
MODEL 2
REMARK VINA RESULT:      -8.5      7.532     11.913
REMARK  Name = C:\Users\Docking\Desktop\test protocol\1iep_ligandH.pdb
REMARK  8 active torsions:
REMARK  status: ('A' for Active; 'I' for Inactive)
REMARK    1  A    between atoms: _5  and  _11
REMARK    2  A    between atoms: _19  and  _21
REMARK    3  A    between atoms: _22  and  _66
REMARK    4  A    between atoms: _27  and  _30
REMARK    5  A    between atoms: _32  and  _33
REMARK    6  A    between atoms: _38  and  _43
REMARK    7  A    between atoms: _43  and  _46
REMARK    8  A    between atoms: _53  and  _55
REMARK                            x       y       z     vdW  Elec       q    Type
REMARK                         _______ _______ _______ _____ _____    ______ ____
ROOT
ATOM     10  C   UNL     1       9.277  25.780  19.005  0.00  0.00    +0.038 A 
ATOM     11  C   UNL     1      10.598  25.561  18.536  0.00  0.00    +0.047 A 
ATOM     12  C   UNL     1      11.191  24.233  18.552  0.00  0.00    +0.035 A 
ATOM     32  C   UNL     1      10.409  23.150  19.050  0.00  0.00    +0.024 A 
ATOM     33  C   UNL     1       9.066  23.355  19.531  0.00  0.00    +0.007 A 
ATOM     34  C   UNL     1       8.476  24.663  19.520  0.00  0.00    -0.029 A 
ATOM     35  C   UNL     1       7.034  24.826  20.054  0.00  0.00    +0.045 C 
ENDROOT
BRANCH  10   9
ATOM      4  C   UNL     1       8.205  29.974  21.079  0.00  0.00    +0.077 A 
ATOM      5  C   UNL     1       8.697  29.537  22.354  0.00  0.00    +0.048 A 
ATOM      6  C   UNL     1       9.212  28.223  22.435  0.00  0.00    +0.116 A 
ATOM      7  N   UNL     1       9.228  27.416  21.318  0.00  0.00    -0.223 NA
ATOM      8  C   UNL     1       8.744  27.868  20.104  0.00  0.00    +0.220 A 
ATOM      9  N   UNL     1       8.758  27.076  18.967  0.00  0.00    -0.283 N 
ATOM     36  H   UNL     1       8.384  27.444  18.092  0.00  0.00    +0.155 HD
ATOM     37  N   UNL     1       8.246  29.118  20.001  0.00  0.00    -0.214 NA
BRANCH   4   3
ATOM      1  C   UNL     1       6.157  33.286  21.450  0.00  0.00    +0.020 A 
ATOM      2  C   UNL     1       6.678  31.969  21.734  0.00  0.00    +0.013 A 
ATOM      3  C   UNL     1       7.634  31.336  20.833  0.00  0.00    +0.019 A 
ATOM     38  C   UNL     1       8.045  32.069  19.646  0.00  0.00    +0.120 A 
ATOM     39  N   UNL     1       7.525  33.335  19.398  0.00  0.00    -0.263 NA
ATOM     40  C   UNL     1       6.604  33.954  20.256  0.00  0.00    +0.111 A 
ENDBRANCH   4   3
ENDBRANCH  10   9
BRANCH  12  13
ATOM     13  N   UNL     1      12.530  23.951  18.097  0.00  0.00    -0.281 N 
ATOM     14  C   UNL     1      12.917  23.354  16.909  0.00  0.00    +0.248 C 
ATOM     30  O   UNL     1      12.158  22.775  16.147  0.00  0.00    -0.270 OA
ATOM     31  H   UNL     1      13.284  24.225  18.728  0.00  0.00    +0.155 HD
BRANCH  14  15
ATOM     15  C   UNL     1      14.359  23.393  16.518  0.00  0.00    +0.037 A 
ATOM     16  C   UNL     1      15.408  23.662  17.505  0.00  0.00    +0.013 A 
ATOM     17  C   UNL     1      16.789  23.711  17.098  0.00  0.00    +0.005 A 
ATOM     18  C   UNL     1      17.131  23.489  15.695  0.00  0.00    -0.033 A 
ATOM     28  C   UNL     1      16.071  23.219  14.737  0.00  0.00    +0.005 A 
ATOM     29  C   UNL     1      14.716  23.171  15.132  0.00  0.00    +0.013 A 
BRANCH  18  19
ATOM     19  C   UNL     1      18.577  23.544  15.167  0.00  0.00    +0.119 C 
BRANCH  19  20
ATOM     20  N   UNL     1      18.964  22.543  14.128  0.00  0.00    -0.302 NA
ATOM     21  C   UNL     1      18.871  21.107  14.651  0.00  0.00    +0.066 C 
ATOM     22  C   UNL     1      19.257  20.072  13.544  0.00  0.00    -0.064 C 
ATOM     23  N   UNL     1      20.669  20.374  13.038  0.00  0.00    +0.379 N 
ATOM     24  C   UNL     1      21.058  19.368  12.039  0.00  0.00    -0.096 C 
ATOM     25  H   UNL     1      21.365  20.279  13.904  0.00  0.00    -0.082 HD
ATOM     26  C   UNL     1      20.771  21.802  12.520  0.00  0.00    -0.064 C 
ATOM     27  C   UNL     1      20.357  22.820  13.618  0.00  0.00    +0.066 C 
ENDBRANCH  19  20
ENDBRANCH  18  19
ENDBRANCH  14  15
ENDBRANCH  12  13
TORSDOF 6
ENDMDL
MODEL 3
REMARK VINA RESULT:      -8.4      5.896      9.630
REMARK  Name = C:\Users\Docking\Desktop\test protocol\1iep_ligandH.pdb
REMARK  8 active torsions:
REMARK  status: ('A' for Active; 'I' for Inactive)
REMARK    1  A    between atoms: _5  and  _11
REMARK    2  A    between atoms: _19  and  _21
REMARK    3  A    between atoms: _22  and  _66
REMARK    4  A    between atoms: _27  and  _30
REMARK    5  A    between atoms: _32  and  _33
REMARK    6  A    between atoms: _38  and  _43
REMARK    7  A    between atoms: _43  and  _46
REMARK    8  A    between atoms: _53  and  _55
REMARK                            x       y       z     vdW  Elec       q    Type
REMARK                         _______ _______ _______ _____ _____    ______ ____
ROOT
ATOM     10  C   UNL     1      20.014  20.816  13.449  0.00  0.00    +0.038 A 
ATOM     11  C   UNL     1      18.744  21.044  14.038  0.00  0.00    +0.047 A 
ATOM     12  C   UNL     1      18.188  22.385  14.131  0.00  0.00    +0.035 A 
ATOM     32  C   UNL     1      18.952  23.471  13.612  0.00  0.00    +0.024 A 
ATOM     33  C   UNL     1      20.245  23.257  13.010  0.00  0.00    +0.007 A 
ATOM     34  C   UNL     1      20.800  21.936  12.918  0.00  0.00    -0.029 A 
ATOM     35  C   UNL     1      22.193  21.767  12.269  0.00  0.00    +0.045 C 
ENDROOT
BRANCH  10   9
ATOM      4  C   UNL     1      20.628  16.634  11.174  0.00  0.00    +0.077 A 
ATOM      5  C   UNL     1      19.896  17.084  10.025  0.00  0.00    +0.048 A 
ATOM      6  C   UNL     1      19.372  18.396  10.062  0.00  0.00    +0.116 A 
ATOM      7  N   UNL     1      19.571  19.190  11.171  0.00  0.00    -0.223 NA
ATOM      8  C   UNL     1      20.280  18.724  12.263  0.00  0.00    +0.220 A 
ATOM      9  N   UNL     1      20.500  19.508  13.386  0.00  0.00    -0.283 N 
ATOM     36  H   UNL     1      21.021  19.125  14.174  0.00  0.00    +0.155 HD
ATOM     37  N   UNL     1      20.789  17.475  12.253  0.00  0.00    -0.214 NA
BRANCH   4   3
ATOM      1  C   UNL     1      21.248  12.877  12.067  0.00  0.00    +0.020 A 
ATOM      2  C   UNL     1      20.609  14.170  11.991  0.00  0.00    +0.013 A 
ATOM      3  C   UNL     1      21.245  15.275  11.284  0.00  0.00    +0.019 A 
ATOM     38  C   UNL     1      22.538  15.035  10.660  0.00  0.00    +0.120 A 
ATOM     39  N   UNL     1      23.129  13.779  10.751  0.00  0.00    -0.263 NA
ATOM     40  C   UNL     1      22.527  12.709  11.430  0.00  0.00    +0.111 A 
ENDBRANCH   4   3
ENDBRANCH  10   9
BRANCH  12  13
ATOM     13  N   UNL     1      16.908  22.679  14.726  0.00  0.00    -0.281 N 
ATOM     14  C   UNL     1      15.651  22.351  14.247  0.00  0.00    +0.248 C 
ATOM     30  O   UNL     1      15.428  21.937  13.119  0.00  0.00    -0.270 OA
ATOM     31  H   UNL     1      16.932  23.192  15.607  0.00  0.00    +0.155 HD
BRANCH  14  15
ATOM     15  C   UNL     1      14.469  22.519  15.145  0.00  0.00    +0.037 A 
ATOM     16  C   UNL     1      13.124  22.127  14.714  0.00  0.00    +0.013 A 
ATOM     17  C   UNL     1      11.999  22.316  15.595  0.00  0.00    +0.005 A 
ATOM     18  C   UNL     1      12.214  22.899  16.917  0.00  0.00    -0.033 A 
ATOM     28  C   UNL     1      13.558  23.274  17.321  0.00  0.00    +0.005 A 
ATOM     29  C   UNL     1      14.664  23.091  16.460  0.00  0.00    +0.013 A 
BRANCH  18  19
ATOM     19  C   UNL     1      11.068  23.157  17.914  0.00  0.00    +0.119 C 
BRANCH  19  20
ATOM     20  N   UNL     1      10.810  24.574  18.307  0.00  0.00    -0.302 NA
ATOM     21  C   UNL     1      11.138  24.830  19.781  0.00  0.00    +0.066 C 
ATOM     22  C   UNL     1      10.883  26.323  20.170  0.00  0.00    -0.064 C 
ATOM     23  N   UNL     1       9.428  26.684  19.868  0.00  0.00    +0.379 N 
ATOM     24  C   UNL     1       9.170  28.070  20.286  0.00  0.00    -0.096 C 
ATOM     25  H   UNL     1       8.779  26.018  20.484  0.00  0.00    -0.082 HD
ATOM     26  C   UNL     1       9.092  26.430  18.405  0.00  0.00    -0.064 C 
ATOM     27  C   UNL     1       9.377  24.951  18.022  0.00  0.00    +0.066 C 
ENDBRANCH  19  20
ENDBRANCH  18  19
ENDBRANCH  14  15
ENDBRANCH  12  13
TORSDOF 6
ENDMDL
MODEL 4
REMARK VINA RESULT:      -8.4      7.638     12.123
REMARK  Name = C:\Users\Docking\Desktop\test protocol\1iep_ligandH.pdb
REMARK  8 active torsions:
REMARK  status: ('A' for Active; 'I' for Inactive)
REMARK    1  A    between atoms: _5  and  _11
REMARK    2  A    between atoms: _19  and  _21
REMARK    3  A    between atoms: _22  and  _66
REMARK    4  A    between atoms: _27  and  _30
REMARK    5  A    between atoms: _32  and  _33
REMARK    6  A    between atoms: _38  and  _43
REMARK    7  A    between atoms: _43  and  _46
REMARK    8  A    between atoms: _53  and  _55
REMARK                            x       y       z     vdW  Elec       q    Type
REMARK                         _______ _______ _______ _____ _____    ______ ____
ROOT
ATOM     10  C   UNL     1       9.115  26.040  19.130  0.00  0.00    +0.038 A 
ATOM     11  C   UNL     1      10.359  25.736  18.520  0.00  0.00    +0.047 A 
ATOM     12  C   UNL     1      10.919  24.395  18.578  0.00  0.00    +0.035 A 
ATOM     32  C   UNL     1      10.183  23.385  19.264  0.00  0.00    +0.024 A 
ATOM     33  C   UNL     1       8.917  23.676  19.891  0.00  0.00    +0.007 A 
ATOM     34  C   UNL     1       8.362  24.998  19.838  0.00  0.00    -0.029 A 
ATOM     35  C   UNL     1       7.004  25.255  20.534  0.00  0.00    +0.045 C 
ENDROOT
BRANCH  10   9
ATOM      4  C   UNL     1       8.134  30.329  21.047  0.00  0.00    +0.077 A 
ATOM      5  C   UNL     1       8.614  29.928  22.338  0.00  0.00    +0.048 A 
ATOM      6  C   UNL     1       9.098  28.607  22.468  0.00  0.00    +0.116 A 
ATOM      7  N   UNL     1       9.098  27.759  21.382  0.00  0.00    -0.223 NA
ATOM      8  C   UNL     1       8.627  28.177  20.151  0.00  0.00    +0.220 A 
ATOM      9  N   UNL     1       8.625  27.344  19.043  0.00  0.00    -0.283 N 
ATOM     36  H   UNL     1       8.262  27.688  18.154  0.00  0.00    +0.155 HD
ATOM     37  N   UNL     1       8.158  29.434  20.001  0.00  0.00    -0.214 NA
BRANCH   4   3
ATOM      1  C   UNL     1       7.324  33.717  19.268  0.00  0.00    +0.020 A 
ATOM      2  C   UNL     1       7.870  32.401  19.506  0.00  0.00    +0.013 A 
ATOM      3  C   UNL     1       7.594  31.693  20.750  0.00  0.00    +0.019 A 
ATOM     38  C   UNL     1       6.754  32.350  21.740  0.00  0.00    +0.120 A 
ATOM     39  N   UNL     1       6.243  33.619  21.484  0.00  0.00    -0.263 NA
ATOM     40  C   UNL     1       6.503  34.310  20.292  0.00  0.00    +0.111 A 
ENDBRANCH   4   3
ENDBRANCH  10   9
BRANCH  12  13
ATOM     13  N   UNL     1      12.181  24.029  17.984  0.00  0.00    -0.281 N 
ATOM     14  C   UNL     1      12.401  23.220  16.882  0.00  0.00    +0.248 C 
ATOM     30  O   UNL     1      11.551  22.511  16.364  0.00  0.00    -0.270 OA
ATOM     31  H   UNL     1      13.013  24.414  18.432  0.00  0.00    +0.155 HD
BRANCH  14  15
ATOM     15  C   UNL     1      13.767  23.182  16.275  0.00  0.00    +0.037 A 
ATOM     16  C   UNL     1      13.960  22.867  14.858  0.00  0.00    +0.013 A 
ATOM     17  C   UNL     1      15.289  22.820  14.302  0.00  0.00    +0.005 A 
ATOM     18  C   UNL     1      16.436  23.091  15.165  0.00  0.00    -0.033 A 
ATOM     28  C   UNL     1      16.215  23.407  16.566  0.00  0.00    +0.005 A 
ATOM     29  C   UNL     1      14.914  23.452  17.115  0.00  0.00    +0.013 A 
BRANCH  18  19
ATOM     19  C   UNL     1      17.891  23.043  14.662  0.00  0.00    +0.119 C 
BRANCH  19  20
ATOM     20  N   UNL     1      18.695  24.297  14.771  0.00  0.00    -0.302 NA
ATOM     21  C   UNL     1      19.521  24.561  13.510  0.00  0.00    +0.066 C 
ATOM     22  C   UNL     1      20.338  25.889  13.633  0.00  0.00    -0.064 C 
ATOM     23  N   UNL     1      21.240  25.817  14.866  0.00  0.00    +0.379 N 
ATOM     24  C   UNL     1      22.052  27.040  14.952  0.00  0.00    -0.096 C 
ATOM     25  H   UNL     1      21.936  24.958  14.726  0.00  0.00    -0.082 HD
ATOM     26  C   UNL     1      20.426  25.552  16.125  0.00  0.00    -0.064 C 
ATOM     27  C   UNL     1      19.596  24.246  15.981  0.00  0.00    +0.066 C 
ENDBRANCH  19  20
ENDBRANCH  18  19
ENDBRANCH  14  15
ENDBRANCH  12  13
TORSDOF 6
ENDMDL
MODEL 5
REMARK VINA RESULT:      -8.3      5.897     13.644
REMARK  Name = C:\Users\Docking\Desktop\test protocol\1iep_ligandH.pdb
REMARK  8 active torsions:
REMARK  status: ('A' for Active; 'I' for Inactive)
REMARK    1  A    between atoms: _5  and  _11
REMARK    2  A    between atoms: _19  and  _21
REMARK    3  A    between atoms: _22  and  _66
REMARK    4  A    between atoms: _27  and  _30
REMARK    5  A    between atoms: _32  and  _33
REMARK    6  A    between atoms: _38  and  _43
REMARK    7  A    between atoms: _43  and  _46
REMARK    8  A    between atoms: _53  and  _55
REMARK                            x       y       z     vdW  Elec       q    Type
REMARK                         _______ _______ _______ _____ _____    ______ ____
ROOT
ATOM     10  C   UNL     1      14.935  23.286  15.147  0.00  0.00    +0.038 A 
ATOM     11  C   UNL     1      16.138  23.950  15.498  0.00  0.00    +0.047 A 
ATOM     12  C   UNL     1      17.426  23.479  15.014  0.00  0.00    +0.035 A 
ATOM     32  C   UNL     1      17.452  22.329  14.172  0.00  0.00    +0.024 A 
ATOM     33  C   UNL     1      16.239  21.641  13.807  0.00  0.00    +0.007 A 
ATOM     34  C   UNL     1      14.965  22.100  14.283  0.00  0.00    -0.029 A 
ATOM     35  C   UNL     1      13.698  21.319  13.865  0.00  0.00    +0.045 C 
ENDROOT
BRANCH  10   9
ATOM      4  C   UNL     1      11.655  23.758  18.620  0.00  0.00    +0.077 A 
ATOM      5  C   UNL     1      12.401  22.926  19.519  0.00  0.00    +0.048 A 
ATOM      6  C   UNL     1      13.620  22.389  19.047  0.00  0.00    +0.116 A 
ATOM      7  N   UNL     1      14.051  22.672  17.769  0.00  0.00    -0.223 NA
ATOM      8  C   UNL     1      13.307  23.478  16.927  0.00  0.00    +0.220 A 
ATOM      9  N   UNL     1      13.725  23.781  15.640  0.00  0.00    -0.283 N 
ATOM     36  H   UNL     1      13.144  24.373  15.047  0.00  0.00    +0.155 HD
ATOM     37  N   UNL     1      12.139  24.000  17.353  0.00  0.00    -0.214 NA
BRANCH   4   3
ATOM      1  C   UNL     1       8.754  26.354  18.999  0.00  0.00    +0.020 A 
ATOM      2  C   UNL     1      10.029  25.781  18.634  0.00  0.00    +0.013 A 
ATOM      3  C   UNL     1      10.350  24.401  18.974  0.00  0.00    +0.019 A 
ATOM     38  C   UNL     1       9.351  23.621  19.688  0.00  0.00    +0.120 A 
ATOM     39  N   UNL     1       8.132  24.199  20.027  0.00  0.00    -0.263 NA
ATOM     40  C   UNL     1       7.812  25.527  19.707  0.00  0.00    +0.111 A 
ENDBRANCH   4   3
ENDBRANCH  10   9
BRANCH  12  13
ATOM     13  N   UNL     1      18.681  24.108  15.342  0.00  0.00    -0.281 N 
ATOM     14  C   UNL     1      19.446  24.948  14.550  0.00  0.00    +0.248 C 
ATOM     30  O   UNL     1      19.272  25.116  13.352  0.00  0.00    -0.270 OA
ATOM     31  H   UNL     1      19.050  23.910  16.273  0.00  0.00    +0.155 HD
BRANCH  14  15
ATOM     15  C   UNL     1      20.578  25.698  15.175  0.00  0.00    +0.037 A 
ATOM     16  C   UNL     1      20.609  25.964  16.616  0.00  0.00    +0.013 A 
ATOM     17  C   UNL     1      21.704  26.705  17.190  0.00  0.00    +0.005 A 
ATOM     18  C   UNL     1      22.778  27.185  16.324  0.00  0.00    -0.033 A 
ATOM     28  C   UNL     1      22.724  26.903  14.899  0.00  0.00    +0.005 A 
ATOM     29  C   UNL     1      21.652  26.177  14.331  0.00  0.00    +0.013 A 
BRANCH  18  19
ATOM     19  C   UNL     1      23.974  28.001  16.847  0.00  0.00    +0.119 C 
BRANCH  19  20
ATOM     20  N   UNL     1      25.174  28.099  15.965  0.00  0.00    -0.302 NA
ATOM     21  C   UNL     1      26.105  26.894  16.125  0.00  0.00    +0.066 C 
ATOM     22  C   UNL     1      27.344  27.001  15.178  0.00  0.00    -0.064 C 
ATOM     23  N   UNL     1      28.091  28.305  15.466  0.00  0.00    +0.379 N 
ATOM     24  C   UNL     1      29.289  28.382  14.617  0.00  0.00    -0.096 C 
ATOM     25  H   UNL     1      28.430  28.273  16.528  0.00  0.00    -0.082 HD
ATOM     26  C   UNL     1      27.172  29.508  15.311  0.00  0.00    -0.064 C 
ATOM     27  C   UNL     1      25.929  29.377  16.235  0.00  0.00    +0.066 C 
ENDBRANCH  19  20
ENDBRANCH  18  19
ENDBRANCH  14  15
ENDBRANCH  12  13
TORSDOF 6
ENDMDL
