MODEL 1
REMARK VINA RESULT:      -8.4      0.000      0.000
REMARK  Name = C:\Users\Docking\Desktop\test protocol\1iep_ligandH.pdb
REMARK  8 active torsions:
REMARK  status: ('A' for Active; 'I' for Inactive)
REMARK    1  A    between atoms: _5  and  _11
REMARK    2  A    between atoms: _19  and  _21
REMARK    3  A    between atoms: _22  and  _66
REMARK    4  A    between atoms: _27  and  _30
REMARK    5  A    between atoms: _32  and  _33
REMARK    6  A    between atoms: _38  and  _43
REMARK    7  A    between atoms: _43  and  _46
REMARK    8  A    between atoms: _53  and  _55
REMARK                            x       y       z     vdW  Elec       q    Type
REMARK                         _______ _______ _______ _____ _____    ______ ____
ROOT
ATOM     10  C   UNL     1      19.888  20.633  13.670  0.00  0.00    +0.038 A 
ATOM     11  C   UNL     1      18.595  20.828  14.221  0.00  0.00    +0.047 A 
ATOM     12  C   UNL     1      17.982  22.146  14.255  0.00  0.00    +0.035 A 
ATOM     32  C   UNL     1      18.713  23.245  13.717  0.00  0.00    +0.024 A 
ATOM     33  C   UNL     1      20.028  23.066  13.154  0.00  0.00    +0.007 A 
ATOM     34  C   UNL     1      20.639  21.768  13.119  0.00  0.00    -0.029 A 
ATOM     35  C   UNL     1      22.054  21.635  12.509  0.00  0.00    +0.045 C 
ENDROOT
BRANCH  10   9
ATOM      4  C   UNL     1      20.730  16.408  11.555  0.00  0.00    +0.077 A 
ATOM      5  C   UNL     1      20.009  16.788  10.374  0.00  0.00    +0.048 A 
ATOM      6  C   UNL     1      19.431  18.077  10.354  0.00  0.00    +0.116 A 
ATOM      7  N   UNL     1      19.569  18.915  11.440  0.00  0.00    -0.223 NA
ATOM      8  C   UNL     1      20.270  18.516  12.563  0.00  0.00    +0.220 A 
ATOM      9  N   UNL     1      20.428  19.346  13.663  0.00  0.00    -0.283 N 
ATOM     36  H   UNL     1      20.946  19.012  14.476  0.00  0.00    +0.155 HD
ATOM     37  N   UNL     1      20.830  17.290  12.608  0.00  0.00    -0.214 NA
BRANCH   4   3
ATOM      1  C   UNL     1      21.553  12.763  12.712  0.00  0.00    +0.020 A 
ATOM      2  C   UNL     1      20.867  14.028  12.582  0.00  0.00    +0.013 A 
ATOM      3  C   UNL     1      21.400  15.080  11.726  0.00  0.00    +0.019 A 
ATOM     38  C   UNL     1      22.640  14.819  11.009  0.00  0.00    +0.120 A 
ATOM     39  N   UNL     1      23.279  13.592  11.155  0.00  0.00    -0.263 NA
ATOM     40  C   UNL     1      22.776  12.572  11.977  0.00  0.00    +0.111 A 
ENDBRANCH   4   3
ENDBRANCH  10   9
BRANCH  12  13
ATOM     13  N   UNL     1      16.677  22.406  14.810  0.00  0.00    -0.281 N 
ATOM     14  C   UNL     1      15.450  21.959  14.346  0.00  0.00    +0.248 C 
ATOM     30  O   UNL     1      15.272  21.441  13.253  0.00  0.00    -0.270 OA
ATOM     31  H   UNL     1      16.654  22.990  15.646  0.00  0.00    +0.155 HD
BRANCH  14  15
ATOM     15  C   UNL     1      14.246  22.125  15.214  0.00  0.00    +0.037 A 
ATOM     16  C   UNL     1      12.951  21.553  14.836  0.00  0.00    +0.013 A 
ATOM     17  C   UNL     1      11.801  21.742  15.683  0.00  0.00    +0.005 A 
ATOM     18  C   UNL     1      11.941  22.506  16.921  0.00  0.00    -0.033 A 
ATOM     28  C   UNL     1      13.238  23.058  17.275  0.00  0.00    +0.005 A 
ATOM     29  C   UNL     1      14.368  22.876  16.446  0.00  0.00    +0.013 A 
BRANCH  18  19
ATOM     19  C   UNL     1      10.763  22.776  17.875  0.00  0.00    +0.119 C 
BRANCH  19  20
ATOM     20  N   UNL     1      10.638  24.155  18.435  0.00  0.00    -0.302 NA
ATOM     21  C   UNL     1      11.070  24.221  19.902  0.00  0.00    +0.066 C 
ATOM     22  C   UNL     1      10.955  25.675  20.465  0.00  0.00    -0.064 C 
ATOM     23  N   UNL     1       9.516  26.169  20.302  0.00  0.00    +0.379 N 
ATOM     24  C   UNL     1       9.391  27.514  20.882  0.00  0.00    -0.096 C 
ATOM     25  H   UNL     1       8.856  25.486  20.884  0.00  0.00    -0.082 HD
ATOM     26  C   UNL     1       9.078  26.105  18.846  0.00  0.00    -0.064 C 
ATOM     27  C   UNL     1       9.224  24.661  18.287  0.00  0.00    +0.066 C 
ENDBRANCH  19  20
ENDBRANCH  18  19
ENDBRANCH  14  15
ENDBRANCH  12  13
TORSDOF 6
ENDMDL
MODEL 2
REMARK VINA RESULT:      -8.4      3.164     15.380
REMARK  Name = C:\Users\Docking\Desktop\test protocol\1iep_ligandH.pdb
REMARK  8 active torsions:
REMARK  status: ('A' for Active; 'I' for Inactive)
REMARK    1  A    between atoms: _5  and  _11
REMARK    2  A    between atoms: _19  and  _21
REMARK    3  A    between atoms: _22  and  _66
REMARK    4  A    between atoms: _27  and  _30
REMARK    5  A    between atoms: _32  and  _33
REMARK    6  A    between atoms: _38  and  _43
REMARK    7  A    between atoms: _43  and  _46
REMARK    8  A    between atoms: _53  and  _55
REMARK                            x       y       z     vdW  Elec       q    Type
REMARK                         _______ _______ _______ _____ _____    ______ ____
ROOT
ATOM     10  C   UNL     1       9.452  25.733  18.996  0.00  0.00    +0.038 A 
ATOM     11  C   UNL     1      10.762  25.610  18.466  0.00  0.00    +0.047 A 
ATOM     12  C   UNL     1      11.413  24.314  18.362  0.00  0.00    +0.035 A 
ATOM     32  C   UNL     1      10.699  23.162  18.804  0.00  0.00    +0.024 A 
ATOM     33  C   UNL     1       9.367  23.268  19.345  0.00  0.00    +0.007 A 
ATOM     34  C   UNL     1       8.721  24.545  19.453  0.00  0.00    -0.029 A 
ATOM     35  C   UNL     1       7.294  24.600  20.047  0.00  0.00    +0.045 C 
ENDROOT
BRANCH  10   9
ATOM      4  C   UNL     1       8.348  29.742  21.392  0.00  0.00    +0.077 A 
ATOM      5  C   UNL     1       8.949  29.255  22.601  0.00  0.00    +0.048 A 
ATOM      6  C   UNL     1       9.525  27.966  22.566  0.00  0.00    +0.116 A 
ATOM      7  N   UNL     1       9.496  27.227  21.403  0.00  0.00    -0.223 NA
ATOM      8  C   UNL     1       8.908  27.725  20.255  0.00  0.00    +0.220 A 
ATOM      9  N   UNL     1       8.875  27.002  19.073  0.00  0.00    -0.283 N 
ATOM     36  H   UNL     1       8.424  27.402  18.250  0.00  0.00    +0.155 HD
ATOM     37  N   UNL     1       8.350  28.953  20.264  0.00  0.00    -0.214 NA
BRANCH   4   3
ATOM      1  C   UNL     1       6.082  32.866  22.028  0.00  0.00    +0.020 A 
ATOM      2  C   UNL     1       6.674  31.558  22.190  0.00  0.00    +0.013 A 
ATOM      3  C   UNL     1       7.702  31.087  21.270  0.00  0.00    +0.019 A 
ATOM     38  C   UNL     1       8.113  31.971  20.190  0.00  0.00    +0.120 A 
ATOM     39  N   UNL     1       7.524  33.225  20.058  0.00  0.00    -0.263 NA
ATOM     40  C   UNL     1       6.532  33.688  20.936  0.00  0.00    +0.111 A 
ENDBRANCH   4   3
ENDBRANCH  10   9
BRANCH  12  13
ATOM     13  N   UNL     1      12.745  24.128  17.841  0.00  0.00    -0.281 N 
ATOM     14  C   UNL     1      13.834  23.550  18.472  0.00  0.00    +0.248 C 
ATOM     30  O   UNL     1      13.885  23.294  19.666  0.00  0.00    -0.270 OA
ATOM     31  H   UNL     1      12.904  24.465  16.891  0.00  0.00    +0.155 HD
BRANCH  14  15
ATOM     15  C   UNL     1      15.046  23.220  17.663  0.00  0.00    +0.037 A 
ATOM     16  C   UNL     1      14.948  22.931  16.230  0.00  0.00    +0.013 A 
ATOM     17  C   UNL     1      16.132  22.599  15.477  0.00  0.00    +0.005 A 
ATOM     18  C   UNL     1      17.424  22.556  16.156  0.00  0.00    -0.033 A 
ATOM     28  C   UNL     1      17.494  22.853  17.577  0.00  0.00    +0.005 A 
ATOM     29  C   UNL     1      16.336  23.177  18.319  0.00  0.00    +0.013 A 
BRANCH  18  19
ATOM     19  C   UNL     1      18.736  22.191  15.435  0.00  0.00    +0.119 C 
BRANCH  19  20
ATOM     20  N   UNL     1      18.623  21.438  14.151  0.00  0.00    -0.302 NA
ATOM     21  C   UNL     1      18.818  19.932  14.349  0.00  0.00    +0.066 C 
ATOM     22  C   UNL     1      18.675  19.157  12.998  0.00  0.00    -0.064 C 
ATOM     23  N   UNL     1      19.685  19.706  11.989  0.00  0.00    +0.379 N 
ATOM     24  C   UNL     1      19.592  18.941  10.737  0.00  0.00    -0.096 C 
ATOM     25  H   UNL     1      20.704  19.545  12.410  0.00  0.00    -0.082 HD
ATOM     26  C   UNL     1      19.500  21.203  11.788  0.00  0.00    -0.064 C 
ATOM     27  C   UNL     1      19.615  21.961  13.140  0.00  0.00    +0.066 C 
ENDBRANCH  19  20
ENDBRANCH  18  19
ENDBRANCH  14  15
ENDBRANCH  12  13
TORSDOF 6
ENDMDL
MODEL 3
REMARK VINA RESULT:      -8.3      5.704     15.259
REMARK  Name = C:\Users\Docking\Desktop\test protocol\1iep_ligandH.pdb
REMARK  8 active torsions:
REMARK  status: ('A' for Active; 'I' for Inactive)
REMARK    1  A    between atoms: _5  and  _11
REMARK    2  A    between atoms: _19  and  _21
REMARK    3  A    between atoms: _22  and  _66
REMARK    4  A    between atoms: _27  and  _30
REMARK    5  A    between atoms: _32  and  _33
REMARK    6  A    between atoms: _38  and  _43
REMARK    7  A    between atoms: _43  and  _46
REMARK    8  A    between atoms: _53  and  _55
REMARK                            x       y       z     vdW  Elec       q    Type
REMARK                         _______ _______ _______ _____ _____    ______ ____
ROOT
ATOM     10  C   UNL     1       9.344  25.643  19.384  0.00  0.00    +0.038 A 
ATOM     11  C   UNL     1      10.654  25.373  18.914  0.00  0.00    +0.047 A 
ATOM     12  C   UNL     1      11.225  24.038  19.002  0.00  0.00    +0.035 A 
ATOM     32  C   UNL     1      10.431  23.000  19.572  0.00  0.00    +0.024 A 
ATOM     33  C   UNL     1       9.097  23.257  20.055  0.00  0.00    +0.007 A 
ATOM     34  C   UNL     1       8.530  24.573  19.973  0.00  0.00    -0.029 A 
ATOM     35  C   UNL     1       7.098  24.793  20.513  0.00  0.00    +0.045 C 
ENDROOT
BRANCH  10   9
ATOM      4  C   UNL     1       8.309  29.949  21.236  0.00  0.00    +0.077 A 
ATOM      5  C   UNL     1       8.775  29.566  22.538  0.00  0.00    +0.048 A 
ATOM      6  C   UNL     1       9.266  28.250  22.690  0.00  0.00    +0.116 A 
ATOM      7  N   UNL     1       9.286  27.390  21.614  0.00  0.00    -0.223 NA
ATOM      8  C   UNL     1       8.828  27.790  20.373  0.00  0.00    +0.220 A 
ATOM      9  N   UNL     1       8.846  26.944  19.275  0.00  0.00    -0.283 N 
ATOM     36  H   UNL     1       8.492  27.274  18.377  0.00  0.00    +0.155 HD
ATOM     37  N   UNL     1       8.352  29.041  20.201  0.00  0.00    -0.214 NA
BRANCH   4   3
ATOM      1  C   UNL     1       7.654  33.396  19.507  0.00  0.00    +0.020 A 
ATOM      2  C   UNL     1       8.213  32.090  19.772  0.00  0.00    +0.013 A 
ATOM      3  C   UNL     1       7.764  31.306  20.915  0.00  0.00    +0.019 A 
ATOM     38  C   UNL     1       6.738  31.875  21.777  0.00  0.00    +0.120 A 
ATOM     39  N   UNL     1       6.219  33.135  21.497  0.00  0.00    -0.263 NA
ATOM     40  C   UNL     1       6.645  33.900  20.401  0.00  0.00    +0.111 A 
ENDBRANCH   4   3
ENDBRANCH  10   9
BRANCH  12  13
ATOM     13  N   UNL     1      12.553  23.706  18.549  0.00  0.00    -0.281 N 
ATOM     14  C   UNL     1      12.918  23.074  17.372  0.00  0.00    +0.248 C 
ATOM     30  O   UNL     1      12.138  22.504  16.623  0.00  0.00    -0.270 OA
ATOM     31  H   UNL     1      13.317  23.968  19.172  0.00  0.00    +0.155 HD
BRANCH  14  15
ATOM     15  C   UNL     1      14.359  23.061  16.976  0.00  0.00    +0.037 A 
ATOM     16  C   UNL     1      14.765  22.811  15.591  0.00  0.00    +0.013 A 
ATOM     17  C   UNL     1      16.163  22.787  15.239  0.00  0.00    +0.005 A 
ATOM     18  C   UNL     1      17.166  23.015  16.277  0.00  0.00    -0.033 A 
ATOM     28  C   UNL     1      16.736  23.265  17.642  0.00  0.00    +0.005 A 
ATOM     29  C   UNL     1      15.366  23.288  17.990  0.00  0.00    +0.013 A 
BRANCH  18  19
ATOM     19  C   UNL     1      18.680  22.986  15.996  0.00  0.00    +0.119 C 
BRANCH  19  20
ATOM     20  N   UNL     1      19.378  24.301  15.876  0.00  0.00    -0.302 NA
ATOM     21  C   UNL     1      20.331  24.338  14.678  0.00  0.00    +0.066 C 
ATOM     22  C   UNL     1      21.036  25.728  14.554  0.00  0.00    -0.064 C 
ATOM     23  N   UNL     1      21.786  26.034  15.852  0.00  0.00    +0.379 N 
ATOM     24  C   UNL     1      22.497  27.313  15.718  0.00  0.00    -0.096 C 
ATOM     25  H   UNL     1      22.550  25.235  15.997  0.00  0.00    -0.082 HD
ATOM     26  C   UNL     1      20.846  25.996  17.049  0.00  0.00    -0.064 C 
ATOM     27  C   UNL     1      20.129  24.621  17.146  0.00  0.00    +0.066 C 
ENDBRANCH  19  20
ENDBRANCH  18  19
ENDBRANCH  14  15
ENDBRANCH  12  13
TORSDOF 6
ENDMDL
MODEL 4
REMARK VINA RESULT:      -8.1      4.487     11.769
REMARK  Name = C:\Users\Docking\Desktop\test protocol\1iep_ligandH.pdb
REMARK  8 active torsions:
REMARK  status: ('A' for Active; 'I' for Inactive)
REMARK    1  A    between atoms: _5  and  _11
REMARK    2  A    between atoms: _19  and  _21
REMARK    3  A    between atoms: _22  and  _66
REMARK    4  A    between atoms: _27  and  _30
REMARK    5  A    between atoms: _32  and  _33
REMARK    6  A    between atoms: _38  and  _43
REMARK    7  A    between atoms: _43  and  _46
REMARK    8  A    between atoms: _53  and  _55
REMARK                            x       y       z     vdW  Elec       q    Type
REMARK                         _______ _______ _______ _____ _____    ______ ____
ROOT
ATOM     10  C   UNL     1      16.326  20.802  14.687  0.00  0.00    +0.038 A 
ATOM     11  C   UNL     1      16.936  19.523  14.642  0.00  0.00    +0.047 A 
ATOM     12  C   UNL     1      16.171  18.337  14.288  0.00  0.00    +0.035 A 
ATOM     32  C   UNL     1      14.788  18.491  13.982  0.00  0.00    +0.024 A 
ATOM     33  C   UNL     1      14.152  19.785  14.023  0.00  0.00    +0.007 A 
ATOM     34  C   UNL     1      14.900  20.958  14.374  0.00  0.00    -0.029 A 
ATOM     35  C   UNL     1      14.165  22.318  14.409  0.00  0.00    +0.045 C 
ENDROOT
BRANCH  10   9
ATOM      4  C   UNL     1      19.309  24.393  13.572  0.00  0.00    +0.077 A 
ATOM      5  C   UNL     1      19.335  24.021  12.187  0.00  0.00    +0.048 A 
ATOM      6  C   UNL     1      18.572  22.895  11.803  0.00  0.00    +0.116 A 
ATOM      7  N   UNL     1      17.842  22.201  12.744  0.00  0.00    -0.223 NA
ATOM      8  C   UNL     1      17.840  22.586  14.072  0.00  0.00    +0.220 A 
ATOM      9  N   UNL     1      17.107  21.907  15.033  0.00  0.00    -0.283 N 
ATOM     36  H   UNL     1      17.138  22.218  16.004  0.00  0.00    +0.155 HD
ATOM     37  N   UNL     1      18.562  23.657  14.464  0.00  0.00    -0.214 NA
BRANCH   4   3
ATOM      1  C   UNL     1      22.170  26.682  14.944  0.00  0.00    +0.020 A 
ATOM      2  C   UNL     1      21.492  25.526  14.404  0.00  0.00    +0.013 A 
ATOM      3  C   UNL     1      20.061  25.561  14.131  0.00  0.00    +0.019 A 
ATOM     38  C   UNL     1      19.339  26.792  14.417  0.00  0.00    +0.120 A 
ATOM     39  N   UNL     1      20.018  27.889  14.938  0.00  0.00    -0.263 NA
ATOM     40  C   UNL     1      21.395  27.866  15.206  0.00  0.00    +0.111 A 
ENDBRANCH   4   3
ENDBRANCH  10   9
BRANCH  12  13
ATOM     13  N   UNL     1      16.734  17.011  14.234  0.00  0.00    -0.281 N 
ATOM     14  C   UNL     1      17.829  16.579  13.503  0.00  0.00    +0.248 C 
ATOM     30  O   UNL     1      18.364  17.225  12.614  0.00  0.00    -0.270 OA
ATOM     31  H   UNL     1      16.269  16.304  14.804  0.00  0.00    +0.155 HD
BRANCH  14  15
ATOM     15  C   UNL     1      18.404  15.230  13.792  0.00  0.00    +0.037 A 
ATOM     16  C   UNL     1      19.510  14.689  12.998  0.00  0.00    +0.013 A 
ATOM     17  C   UNL     1      20.035  13.378  13.287  0.00  0.00    +0.005 A 
ATOM     18  C   UNL     1      19.453  12.598  14.377  0.00  0.00    -0.033 A 
ATOM     28  C   UNL     1      18.359  13.161  15.151  0.00  0.00    +0.005 A 
ATOM     29  C   UNL     1      17.842  14.445  14.871  0.00  0.00    +0.013 A 
BRANCH  18  19
ATOM     19  C   UNL     1      19.935  11.182  14.742  0.00  0.00    +0.119 C 
BRANCH  19  20
ATOM     20  N   UNL     1      21.100  11.074  15.670  0.00  0.00    -0.302 NA
ATOM     21  C   UNL     1      20.951  11.990  16.887  0.00  0.00    +0.066 C 
ATOM     22  C   UNL     1      22.168  11.848  17.859  0.00  0.00    -0.064 C 
ATOM     23  N   UNL     1      23.460  12.159  17.102  0.00  0.00    +0.379 N 
ATOM     24  C   UNL     1      24.601  12.083  18.027  0.00  0.00    -0.096 C 
ATOM     25  H   UNL     1      23.392  13.209  16.734  0.00  0.00    -0.082 HD
ATOM     26  C   UNL     1      23.615  11.254  15.888  0.00  0.00    -0.064 C 
ATOM     27  C   UNL     1      22.387  11.381  14.944  0.00  0.00    +0.066 C 
ENDBRANCH  19  20
ENDBRANCH  18  19
ENDBRANCH  14  15
ENDBRANCH  12  13
TORSDOF 6
ENDMDL
MODEL 5
REMARK VINA RESULT:      -8.1      5.982      7.744
REMARK  Name = C:\Users\Docking\Desktop\test protocol\1iep_ligandH.pdb
REMARK  8 active torsions:
REMARK  status: ('A' for Active; 'I' for Inactive)
REMARK    1  A    between atoms: _5  and  _11
REMARK    2  A    between atoms: _19  and  _21
REMARK    3  A    between atoms: _22  and  _66
REMARK    4  A    between atoms: _27  and  _30
REMARK    5  A    between atoms: _32  and  _33
REMARK    6  A    between atoms: _38  and  _43
REMARK    7  A    between atoms: _43  and  _46
REMARK    8  A    between atoms: _53  and  _55
REMARK                            x       y       z     vdW  Elec       q    Type
REMARK                         _______ _______ _______ _____ _____    ______ ____
ROOT
ATOM     10  C   UNL     1      21.695  15.978  11.680  0.00  0.00    +0.038 A 
ATOM     11  C   UNL     1      21.770  17.362  11.980  0.00  0.00    +0.047 A 
ATOM     12  C   UNL     1      20.572  18.186  12.034  0.00  0.00    +0.035 A 
ATOM     32  C   UNL     1      19.314  17.566  11.779  0.00  0.00    +0.024 A 
ATOM     33  C   UNL     1      19.220  16.161  11.471  0.00  0.00    +0.007 A 
ATOM     34  C   UNL     1      20.398  15.344  11.414  0.00  0.00    -0.029 A 
ATOM     35  C   UNL     1      20.239  13.844  11.073  0.00  0.00    +0.045 C 
ENDROOT
BRANCH  10   9
ATOM      4  C   UNL     1      25.654  14.434   9.447  0.00  0.00    +0.077 A 
ATOM      5  C   UNL     1      25.326  15.147   8.246  0.00  0.00    +0.048 A 
ATOM      6  C   UNL     1      24.127  15.894   8.242  0.00  0.00    +0.116 A 
ATOM      7  N   UNL     1      23.323  15.918   9.361  0.00  0.00    -0.223 NA
ATOM      8  C   UNL     1      23.667  15.217  10.502  0.00  0.00    +0.220 A 
ATOM      9  N   UNL     1      22.877  15.234  11.641  0.00  0.00    -0.283 N 
ATOM     36  H   UNL     1      23.162  14.698  12.460  0.00  0.00    +0.155 HD
ATOM     37  N   UNL     1      24.807  14.496  10.531  0.00  0.00    -0.214 NA
BRANCH   4   3
ATOM      1  C   UNL     1      29.263  12.988   9.017  0.00  0.00    +0.020 A 
ATOM      2  C   UNL     1      28.097  13.819   8.822  0.00  0.00    +0.013 A 
ATOM      3  C   UNL     1      26.889  13.603   9.608  0.00  0.00    +0.019 A 
ATOM     38  C   UNL     1      26.894  12.530  10.591  0.00  0.00    +0.120 A 
ATOM     39  N   UNL     1      28.031  11.745  10.755  0.00  0.00    -0.263 NA
ATOM     40  C   UNL     1      29.199  11.943  10.003  0.00  0.00    +0.111 A 
ENDBRANCH   4   3
ENDBRANCH  10   9
BRANCH  12  13
ATOM     13  N   UNL     1      20.587  19.598  12.326  0.00  0.00    -0.281 N 
ATOM     14  C   UNL     1      20.096  20.633  11.548  0.00  0.00    +0.248 C 
ATOM     30  O   UNL     1      19.759  20.520  10.379  0.00  0.00    -0.270 OA
ATOM     31  H   UNL     1      21.010  19.866  13.214  0.00  0.00    +0.155 HD
BRANCH  14  15
ATOM     15  C   UNL     1      19.975  21.995  12.152  0.00  0.00    +0.037 A 
ATOM     16  C   UNL     1      19.127  23.023  11.544  0.00  0.00    +0.013 A 
ATOM     17  C   UNL     1      19.041  24.334  12.137  0.00  0.00    +0.005 A 
ATOM     18  C   UNL     1      19.806  24.624  13.347  0.00  0.00    -0.033 A 
ATOM     28  C   UNL     1      20.636  23.584  13.933  0.00  0.00    +0.005 A 
ATOM     29  C   UNL     1      20.723  22.298  13.353  0.00  0.00    +0.013 A 
BRANCH  18  19
ATOM     19  C   UNL     1      19.792  26.001  14.036  0.00  0.00    +0.119 C 
BRANCH  19  20
ATOM     20  N   UNL     1      20.497  26.117  15.348  0.00  0.00    -0.302 NA
ATOM     21  C   UNL     1      19.591  25.737  16.522  0.00  0.00    +0.066 C 
ATOM     22  C   UNL     1      20.351  25.843  17.885  0.00  0.00    -0.064 C 
ATOM     23  N   UNL     1      20.892  27.263  18.055  0.00  0.00    +0.379 N 
ATOM     24  C   UNL     1      21.557  27.382  19.361  0.00  0.00    -0.096 C 
ATOM     25  H   UNL     1      20.021  27.959  18.055  0.00  0.00    -0.082 HD
ATOM     26  C   UNL     1      21.792  27.650  16.890  0.00  0.00    -0.064 C 
ATOM     27  C   UNL     1      21.035  27.514  15.539  0.00  0.00    +0.066 C 
ENDBRANCH  19  20
ENDBRANCH  18  19
ENDBRANCH  14  15
ENDBRANCH  12  13
TORSDOF 6
ENDMDL
