MODEL 1
REMARK VINA RESULT:      -9.0      0.000      0.000
REMARK  Name = C:\Users\Docking\Desktop\test protocol\1iep_ligandH.pdb
REMARK  8 active torsions:
REMARK  status: ('A' for Active; 'I' for Inactive)
REMARK    1  A    between atoms: _5  and  _11
REMARK    2  A    between atoms: _19  and  _21
REMARK    3  A    between atoms: _22  and  _66
REMARK    4  A    between atoms: _27  and  _30
REMARK    5  A    between atoms: _32  and  _33
REMARK    6  A    between atoms: _38  and  _43
REMARK    7  A    between atoms: _43  and  _46
REMARK    8  A    between atoms: _53  and  _55
REMARK                            x       y       z     vdW  Elec       q    Type
REMARK                         _______ _______ _______ _____ _____    ______ ____
ROOT
ATOM     10  C   UNL     1      15.379 147.901  90.663  0.00  0.00    +0.038 A 
ATOM     11  C   UNL     1      14.254 147.045  90.782  0.00  0.00    +0.047 A 
ATOM     12  C   UNL     1      12.911 147.584  90.928  0.00  0.00    +0.035 A 
ATOM     32  C   UNL     1      12.749 149.000  90.948  0.00  0.00    +0.024 A 
ATOM     33  C   UNL     1      13.882 149.885  90.830  0.00  0.00    +0.007 A 
ATOM     34  C   UNL     1      15.209 149.359  90.688  0.00  0.00    -0.029 A 
ATOM     35  C   UNL     1      16.387 150.354  90.572  0.00  0.00    +0.045 C 
ENDROOT
BRANCH  10   9
ATOM      4  C   UNL     1      19.618 146.523  92.443  0.00  0.00    +0.077 A 
ATOM      5  C   UNL     1      19.292 147.007  93.753  0.00  0.00    +0.048 A 
ATOM      6  C   UNL     1      18.026 147.610  93.926  0.00  0.00    +0.116 A 
ATOM      7  N   UNL     1      17.159 147.716  92.860  0.00  0.00    -0.223 NA
ATOM      8  C   UNL     1      17.505 147.241  91.609  0.00  0.00    +0.220 A 
ATOM      9  N   UNL     1      16.646 147.329  90.525  0.00  0.00    -0.283 N 
ATOM     36  H   UNL     1      16.941 146.973  89.616  0.00  0.00    +0.155 HD
ATOM     37  N   UNL     1      18.709 146.662  91.418  0.00  0.00    -0.214 NA
BRANCH   4   3
ATOM      1  C   UNL     1      23.363 145.393  92.505  0.00  0.00    +0.020 A 
ATOM      2  C   UNL     1      22.135 146.059  92.876  0.00  0.00    +0.013 A 
ATOM      3  C   UNL     1      20.916 145.859  92.103  0.00  0.00    +0.019 A 
ATOM     38  C   UNL     1      20.973 144.970  90.952  0.00  0.00    +0.120 A 
ATOM     39  N   UNL     1      22.170 144.344  90.618  0.00  0.00    -0.263 NA
ATOM     40  C   UNL     1      23.350 144.530  91.353  0.00  0.00    +0.111 A 
ENDBRANCH   4   3
ENDBRANCH  10   9
BRANCH  12  13
ATOM     13  N   UNL     1      11.732 146.765  91.061  0.00  0.00    -0.281 N 
ATOM     14  C   UNL     1      10.857 146.699  92.133  0.00  0.00    +0.248 C 
ATOM     30  O   UNL     1      11.075 147.180  93.234  0.00  0.00    -0.270 OA
ATOM     31  H   UNL     1      11.516 146.160  90.268  0.00  0.00    +0.155 HD
BRANCH  14  15
ATOM     15  C   UNL     1       9.557 145.981  91.960  0.00  0.00    +0.037 A 
ATOM     16  C   UNL     1       8.473 146.554  91.157  0.00  0.00    +0.013 A 
ATOM     17  C   UNL     1       7.223 145.849  91.021  0.00  0.00    +0.005 A 
ATOM     18  C   UNL     1       7.051 144.561  91.690  0.00  0.00    -0.033 A 
ATOM     28  C   UNL     1       8.144 144.014  92.476  0.00  0.00    +0.005 A 
ATOM     29  C   UNL     1       9.370 144.703  92.612  0.00  0.00    +0.013 A 
BRANCH  18  19
ATOM     19  C   UNL     1       5.744 143.750  91.617  0.00  0.00    +0.119 C 
BRANCH  19  20
ATOM     20  N   UNL     1       4.470 144.479  91.891  0.00  0.00    -0.302 NA
ATOM     21  C   UNL     1       3.612 143.764  92.938  0.00  0.00    +0.066 C 
ATOM     22  C   UNL     1       2.294 144.552  93.229  0.00  0.00    -0.064 C 
ATOM     23  N   UNL     1       1.515 144.736  91.926  0.00  0.00    +0.379 N 
ATOM     24  C   UNL     1       0.247 145.426  92.205  0.00  0.00    -0.096 C 
ATOM     25  H   UNL     1       1.269 143.722  91.533  0.00  0.00    -0.082 HD
ATOM     26  C   UNL     1       2.361 145.445  90.878  0.00  0.00    -0.064 C 
ATOM     27  C   UNL     1       3.683 144.668  90.618  0.00  0.00    +0.066 C 
ENDBRANCH  19  20
ENDBRANCH  18  19
ENDBRANCH  14  15
ENDBRANCH  12  13
TORSDOF 6
ENDMDL
MODEL 2
REMARK VINA RESULT:      -9.0      4.425      8.810
REMARK  Name = C:\Users\Docking\Desktop\test protocol\1iep_ligandH.pdb
REMARK  8 active torsions:
REMARK  status: ('A' for Active; 'I' for Inactive)
REMARK    1  A    between atoms: _5  and  _11
REMARK    2  A    between atoms: _19  and  _21
REMARK    3  A    between atoms: _22  and  _66
REMARK    4  A    between atoms: _27  and  _30
REMARK    5  A    between atoms: _32  and  _33
REMARK    6  A    between atoms: _38  and  _43
REMARK    7  A    between atoms: _43  and  _46
REMARK    8  A    between atoms: _53  and  _55
REMARK                            x       y       z     vdW  Elec       q    Type
REMARK                         _______ _______ _______ _____ _____    ______ ____
ROOT
ATOM     10  C   UNL     1       7.788 143.792  92.654  0.00  0.00    +0.038 A 
ATOM     11  C   UNL     1       6.583 144.540  92.633  0.00  0.00    +0.047 A 
ATOM     12  C   UNL     1       5.293 143.883  92.489  0.00  0.00    +0.035 A 
ATOM     32  C   UNL     1       5.267 142.463  92.372  0.00  0.00    +0.024 A 
ATOM     33  C   UNL     1       6.482 141.688  92.391  0.00  0.00    +0.007 A 
ATOM     34  C   UNL     1       7.758 142.330  92.530  0.00  0.00    -0.029 A 
ATOM     35  C   UNL     1       9.029 141.449  92.536  0.00  0.00    +0.045 C 
ENDROOT
BRANCH  10   9
ATOM      4  C   UNL     1      10.807 147.339  91.496  0.00  0.00    +0.077 A 
ATOM      5  C   UNL     1       9.907 147.863  90.509  0.00  0.00    +0.048 A 
ATOM      6  C   UNL     1       8.680 147.186  90.325  0.00  0.00    +0.116 A 
ATOM      7  N   UNL     1       8.386 146.070  91.078  0.00  0.00    -0.223 NA
ATOM      8  C   UNL     1       9.277 145.590  92.020  0.00  0.00    +0.220 A 
ATOM      9  N   UNL     1       8.999 144.474  92.794  0.00  0.00    -0.283 N 
ATOM     36  H   UNL     1       9.686 144.148  93.473  0.00  0.00    +0.155 HD
ATOM     37  N   UNL     1      10.456 146.218  92.214  0.00  0.00    -0.214 NA
BRANCH   4   3
ATOM      1  C   UNL     1      14.195 148.208  93.247  0.00  0.00    +0.020 A 
ATOM      2  C   UNL     1      12.913 147.593  92.992  0.00  0.00    +0.013 A 
ATOM      3  C   UNL     1      12.140 147.946  91.808  0.00  0.00    +0.019 A 
ATOM     38  C   UNL     1      12.697 148.932  90.894  0.00  0.00    +0.120 A 
ATOM     39  N   UNL     1      13.933 149.509  91.167  0.00  0.00    -0.263 NA
ATOM     40  C   UNL     1      14.686 149.178  92.304  0.00  0.00    +0.111 A 
ENDBRANCH   4   3
ENDBRANCH  10   9
BRANCH  12  13
ATOM     13  N   UNL     1       4.037 144.590  92.453  0.00  0.00    -0.281 N 
ATOM     14  C   UNL     1       3.295 144.954  91.341  0.00  0.00    +0.248 C 
ATOM     30  O   UNL     1       3.709 144.913  90.191  0.00  0.00    -0.270 OA
ATOM     31  H   UNL     1       3.646 144.855  93.358  0.00  0.00    +0.155 HD
BRANCH  14  15
ATOM     15  C   UNL     1       1.898 145.447  91.534  0.00  0.00    +0.037 A 
ATOM     16  C   UNL     1       1.148 146.055  90.432  0.00  0.00    +0.013 A 
ATOM     17  C   UNL     1      -0.193 146.539  90.649  0.00  0.00    +0.005 A 
ATOM     18  C   UNL     1      -0.792 146.415  91.976  0.00  0.00    -0.033 A 
ATOM     28  C   UNL     1      -0.027 145.803  93.050  0.00  0.00    +0.005 A 
ATOM     29  C   UNL     1       1.287 145.329  92.840  0.00  0.00    +0.013 A 
BRANCH  18  19
ATOM     19  C   UNL     1      -2.208 146.923  92.304  0.00  0.00    +0.119 C 
BRANCH  19  20
ATOM     20  N   UNL     1      -3.354 146.035  91.942  0.00  0.00    -0.302 NA
ATOM     21  C   UNL     1      -4.702 146.744  92.101  0.00  0.00    +0.066 C 
ATOM     22  C   UNL     1      -5.888 145.809  91.697  0.00  0.00    -0.064 C 
ATOM     23  N   UNL     1      -5.842 144.536  92.544  0.00  0.00    +0.379 N 
ATOM     24  C   UNL     1      -6.989 143.680  92.207  0.00  0.00    -0.096 C 
ATOM     25  H   UNL     1      -5.947 144.837  93.612  0.00  0.00    -0.082 HD
ATOM     26  C   UNL     1      -4.503 143.827  92.394  0.00  0.00    -0.064 C 
ATOM     27  C   UNL     1      -3.330 144.774  92.770  0.00  0.00    +0.066 C 
ENDBRANCH  19  20
ENDBRANCH  18  19
ENDBRANCH  14  15
ENDBRANCH  12  13
TORSDOF 6
ENDMDL
MODEL 3
REMARK VINA RESULT:      -8.9      4.455      9.038
REMARK  Name = C:\Users\Docking\Desktop\test protocol\1iep_ligandH.pdb
REMARK  8 active torsions:
REMARK  status: ('A' for Active; 'I' for Inactive)
REMARK    1  A    between atoms: _5  and  _11
REMARK    2  A    between atoms: _19  and  _21
REMARK    3  A    between atoms: _22  and  _66
REMARK    4  A    between atoms: _27  and  _30
REMARK    5  A    between atoms: _32  and  _33
REMARK    6  A    between atoms: _38  and  _43
REMARK    7  A    between atoms: _43  and  _46
REMARK    8  A    between atoms: _53  and  _55
REMARK                            x       y       z     vdW  Elec       q    Type
REMARK                         _______ _______ _______ _____ _____    ______ ____
ROOT
ATOM     10  C   UNL     1       7.670 143.834  92.643  0.00  0.00    +0.038 A 
ATOM     11  C   UNL     1       6.475 144.597  92.597  0.00  0.00    +0.047 A 
ATOM     12  C   UNL     1       5.172 143.951  92.546  0.00  0.00    +0.035 A 
ATOM     32  C   UNL     1       5.123 142.527  92.546  0.00  0.00    +0.024 A 
ATOM     33  C   UNL     1       6.328 141.736  92.591  0.00  0.00    +0.007 A 
ATOM     34  C   UNL     1       7.616 142.367  92.639  0.00  0.00    -0.029 A 
ATOM     35  C   UNL     1       8.875 141.470  92.680  0.00  0.00    +0.045 C 
ENDROOT
BRANCH  10   9
ATOM      4  C   UNL     1      10.679 147.261  91.147  0.00  0.00    +0.077 A 
ATOM      5  C   UNL     1       9.744 147.738  90.169  0.00  0.00    +0.048 A 
ATOM      6  C   UNL     1       8.503 147.068  90.078  0.00  0.00    +0.116 A 
ATOM      7  N   UNL     1       8.228 146.004  90.908  0.00  0.00    -0.223 NA
ATOM      8  C   UNL     1       9.152 145.569  91.840  0.00  0.00    +0.220 A 
ATOM      9  N   UNL     1       8.894 144.506  92.691  0.00  0.00    -0.283 N 
ATOM     36  H   UNL     1       9.605 144.211  93.360  0.00  0.00    +0.155 HD
ATOM     37  N   UNL     1      10.345 146.190  91.946  0.00  0.00    -0.214 NA
BRANCH   4   3
ATOM      1  C   UNL     1      14.342 148.515  90.592  0.00  0.00    +0.020 A 
ATOM      2  C   UNL     1      13.053 147.919  90.329  0.00  0.00    +0.013 A 
ATOM      3  C   UNL     1      12.031 147.866  91.366  0.00  0.00    +0.019 A 
ATOM     38  C   UNL     1      12.348 148.431  92.670  0.00  0.00    +0.120 A 
ATOM     39  N   UNL     1      13.598 148.997  92.895  0.00  0.00    -0.263 NA
ATOM     40  C   UNL     1      14.591 149.052  91.904  0.00  0.00    +0.111 A 
ENDBRANCH   4   3
ENDBRANCH  10   9
BRANCH  12  13
ATOM     13  N   UNL     1       3.925 144.673  92.490  0.00  0.00    -0.281 N 
ATOM     14  C   UNL     1       3.191 145.019  91.368  0.00  0.00    +0.248 C 
ATOM     30  O   UNL     1       3.606 144.945  90.221  0.00  0.00    -0.270 OA
ATOM     31  H   UNL     1       3.537 144.965  93.387  0.00  0.00    +0.155 HD
BRANCH  14  15
ATOM     15  C   UNL     1       1.800 145.535  91.546  0.00  0.00    +0.037 A 
ATOM     16  C   UNL     1       1.108 145.427  92.833  0.00  0.00    +0.013 A 
ATOM     17  C   UNL     1      -0.240 145.918  92.973  0.00  0.00    +0.005 A 
ATOM     18  C   UNL     1      -0.905 146.523  91.821  0.00  0.00    -0.033 A 
ATOM     28  C   UNL     1      -0.194 146.622  90.557  0.00  0.00    +0.005 A 
ATOM     29  C   UNL     1       1.127 146.141  90.416  0.00  0.00    +0.013 A 
BRANCH  18  19
ATOM     19  C   UNL     1      -2.350 147.054  91.873  0.00  0.00    +0.119 C 
BRANCH  19  20
ATOM     20  N   UNL     1      -2.743 148.068  90.850  0.00  0.00    -0.302 NA
ATOM     21  C   UNL     1      -2.781 149.484  91.431  0.00  0.00    +0.066 C 
ATOM     22  C   UNL     1      -3.172 150.536  90.341  0.00  0.00    -0.064 C 
ATOM     23  N   UNL     1      -4.527 150.161  89.738  0.00  0.00    +0.379 N 
ATOM     24  C   UNL     1      -4.925 151.179  88.755  0.00  0.00    -0.096 C 
ATOM     25  H   UNL     1      -5.279 150.174  90.562  0.00  0.00    -0.082 HD
ATOM     26  C   UNL     1      -4.499 148.753  89.161  0.00  0.00    -0.064 C 
ATOM     27  C   UNL     1      -4.081 147.720  90.245  0.00  0.00    +0.066 C 
ENDBRANCH  19  20
ENDBRANCH  18  19
ENDBRANCH  14  15
ENDBRANCH  12  13
TORSDOF 6
ENDMDL
MODEL 4
REMARK VINA RESULT:      -8.7     23.276     26.014
REMARK  Name = C:\Users\Docking\Desktop\test protocol\1iep_ligandH.pdb
REMARK  8 active torsions:
REMARK  status: ('A' for Active; 'I' for Inactive)
REMARK    1  A    between atoms: _5  and  _11
REMARK    2  A    between atoms: _19  and  _21
REMARK    3  A    between atoms: _22  and  _66
REMARK    4  A    between atoms: _27  and  _30
REMARK    5  A    between atoms: _32  and  _33
REMARK    6  A    between atoms: _38  and  _43
REMARK    7  A    between atoms: _43  and  _46
REMARK    8  A    between atoms: _53  and  _55
REMARK                            x       y       z     vdW  Elec       q    Type
REMARK                         _______ _______ _______ _____ _____    ______ ____
ROOT
ATOM     10  C   UNL     1       2.585 154.571 110.722  0.00  0.00    +0.038 A 
ATOM     11  C   UNL     1       2.642 153.356 111.451  0.00  0.00    +0.047 A 
ATOM     12  C   UNL     1       3.505 153.217 112.614  0.00  0.00    +0.035 A 
ATOM     32  C   UNL     1       4.294 154.337 113.008  0.00  0.00    +0.024 A 
ATOM     33  C   UNL     1       4.249 155.579 112.277  0.00  0.00    +0.007 A 
ATOM     34  C   UNL     1       3.402 155.721 111.127  0.00  0.00    -0.029 A 
ATOM     35  C   UNL     1       3.398 157.073 110.378  0.00  0.00    +0.045 C 
ENDROOT
BRANCH  10   9
ATOM      4  C   UNL     1      -1.616 155.662 108.671  0.00  0.00    +0.077 A 
ATOM      5  C   UNL     1      -2.182 156.087 109.919  0.00  0.00    +0.048 A 
ATOM      6  C   UNL     1      -1.361 156.002 111.066  0.00  0.00    +0.116 A 
ATOM      7  N   UNL     1      -0.072 155.527 110.961  0.00  0.00    -0.223 NA
ATOM      8  C   UNL     1       0.442 155.123 109.743  0.00  0.00    +0.220 A 
ATOM      9  N   UNL     1       1.739 154.649 109.613  0.00  0.00    -0.283 N 
ATOM     36  H   UNL     1       2.078 154.354 108.698  0.00  0.00    +0.155 HD
ATOM     37  N   UNL     1      -0.322 155.193 108.633  0.00  0.00    -0.214 NA
BRANCH   4   3
ATOM      1  C   UNL     1      -3.847 154.656 105.620  0.00  0.00    +0.020 A 
ATOM      2  C   UNL     1      -3.151 154.574 106.883  0.00  0.00    +0.013 A 
ATOM      3  C   UNL     1      -2.356 155.694 107.370  0.00  0.00    +0.019 A 
ATOM     38  C   UNL     1      -2.287 156.893 106.549  0.00  0.00    +0.120 A 
ATOM     39  N   UNL     1      -2.967 156.944 105.336  0.00  0.00    -0.263 NA
ATOM     40  C   UNL     1      -3.733 155.871 104.856  0.00  0.00    +0.111 A 
ENDBRANCH   4   3
ENDBRANCH  10   9
BRANCH  12  13
ATOM     13  N   UNL     1       3.611 152.006 113.390  0.00  0.00    -0.281 N 
ATOM     14  C   UNL     1       3.082 151.749 114.644  0.00  0.00    +0.248 C 
ATOM     30  O   UNL     1       2.616 152.601 115.385  0.00  0.00    -0.270 OA
ATOM     31  H   UNL     1       4.139 151.246 112.962  0.00  0.00    +0.155 HD
BRANCH  14  15
ATOM     15  C   UNL     1       3.085 150.344 115.155  0.00  0.00    +0.037 A 
ATOM     16  C   UNL     1       1.911 149.480 115.011  0.00  0.00    +0.013 A 
ATOM     17  C   UNL     1       1.934 148.135 115.528  0.00  0.00    +0.005 A 
ATOM     18  C   UNL     1       3.139 147.645 116.193  0.00  0.00    -0.033 A 
ATOM     28  C   UNL     1       4.292 148.521 116.318  0.00  0.00    +0.005 A 
ATOM     29  C   UNL     1       4.272 149.841 115.813  0.00  0.00    +0.013 A 
BRANCH  18  19
ATOM     19  C   UNL     1       3.246 146.230 116.794  0.00  0.00    +0.119 C 
BRANCH  19  20
ATOM     20  N   UNL     1       4.217 145.290 116.159  0.00  0.00    -0.302 NA
ATOM     21  C   UNL     1       3.875 145.014 114.692  0.00  0.00    +0.066 C 
ATOM     22  C   UNL     1       4.914 144.046 114.038  0.00  0.00    -0.064 C 
ATOM     23  N   UNL     1       4.966 142.742 114.837  0.00  0.00    +0.379 N 
ATOM     24  C   UNL     1       5.899 141.808 114.191  0.00  0.00    -0.096 C 
ATOM     25  H   UNL     1       3.950 142.284 114.802  0.00  0.00    -0.082 HD
ATOM     26  C   UNL     1       5.303 143.008 116.297  0.00  0.00    -0.064 C 
ATOM     27  C   UNL     1       4.281 143.994 116.930  0.00  0.00    +0.066 C 
ENDBRANCH  19  20
ENDBRANCH  18  19
ENDBRANCH  14  15
ENDBRANCH  12  13
TORSDOF 6
ENDMDL
MODEL 5
REMARK VINA RESULT:      -8.6      2.996      6.307
REMARK  Name = C:\Users\Docking\Desktop\test protocol\1iep_ligandH.pdb
REMARK  8 active torsions:
REMARK  status: ('A' for Active; 'I' for Inactive)
REMARK    1  A    between atoms: _5  and  _11
REMARK    2  A    between atoms: _19  and  _21
REMARK    3  A    between atoms: _22  and  _66
REMARK    4  A    between atoms: _27  and  _30
REMARK    5  A    between atoms: _32  and  _33
REMARK    6  A    between atoms: _38  and  _43
REMARK    7  A    between atoms: _43  and  _46
REMARK    8  A    between atoms: _53  and  _55
REMARK                            x       y       z     vdW  Elec       q    Type
REMARK                         _______ _______ _______ _____ _____    ______ ____
ROOT
ATOM     10  C   UNL     1      20.215 145.590  91.986  0.00  0.00    +0.038 A 
ATOM     11  C   UNL     1      18.846 145.940  91.860  0.00  0.00    +0.047 A 
ATOM     12  C   UNL     1      18.279 147.045  92.617  0.00  0.00    +0.035 A 
ATOM     32  C   UNL     1      19.136 147.775  93.492  0.00  0.00    +0.024 A 
ATOM     33  C   UNL     1      20.529 147.432  93.633  0.00  0.00    +0.007 A 
ATOM     34  C   UNL     1      21.094 146.342  92.891  0.00  0.00    -0.029 A 
ATOM     35  C   UNL     1      22.593 146.015  93.087  0.00  0.00    +0.045 C 
ENDROOT
BRANCH  10   9
ATOM      4  C   UNL     1      22.026 143.731  87.949  0.00  0.00    +0.077 A 
ATOM      5  C   UNL     1      21.962 144.993  87.269  0.00  0.00    +0.048 A 
ATOM      6  C   UNL     1      21.450 146.094  87.992  0.00  0.00    +0.116 A 
ATOM      7  N   UNL     1      21.036 145.934  89.296  0.00  0.00    -0.223 NA
ATOM      8  C   UNL     1      21.110 144.703  89.922  0.00  0.00    +0.220 A 
ATOM      9  N   UNL     1      20.707 144.520  91.236  0.00  0.00    -0.283 N 
ATOM     36  H   UNL     1      20.770 143.595  91.658  0.00  0.00    +0.155 HD
ATOM     37  N   UNL     1      21.594 143.635  89.253  0.00  0.00    -0.214 NA
BRANCH   4   3
ATOM      1  C   UNL     1      23.434 141.158  85.361  0.00  0.00    +0.020 A 
ATOM      2  C   UNL     1      22.938 142.395  85.919  0.00  0.00    +0.013 A 
ATOM      3  C   UNL     1      22.546 142.476  87.320  0.00  0.00    +0.019 A 
ATOM     38  C   UNL     1      22.670 141.278  88.137  0.00  0.00    +0.120 A 
ATOM     39  N   UNL     1      23.149 140.100  87.572  0.00  0.00    -0.263 NA
ATOM     40  C   UNL     1      23.528 140.010  86.224  0.00  0.00    +0.111 A 
ENDBRANCH   4   3
ENDBRANCH  10   9
BRANCH  12  13
ATOM     13  N   UNL     1      16.895 147.441  92.537  0.00  0.00    -0.281 N 
ATOM     14  C   UNL     1      16.288 148.221  91.566  0.00  0.00    +0.248 C 
ATOM     30  O   UNL     1      16.891 148.878  90.730  0.00  0.00    -0.270 OA
ATOM     31  H   UNL     1      16.290 147.106  93.286  0.00  0.00    +0.155 HD
BRANCH  14  15
ATOM     15  C   UNL     1      14.795 148.294  91.528  0.00  0.00    +0.037 A 
ATOM     16  C   UNL     1      14.029 148.792  92.674  0.00  0.00    +0.013 A 
ATOM     17  C   UNL     1      12.590 148.836  92.617  0.00  0.00    +0.005 A 
ATOM     18  C   UNL     1      11.907 148.381  91.408  0.00  0.00    -0.033 A 
ATOM     28  C   UNL     1      12.691 147.897  90.285  0.00  0.00    +0.005 A 
ATOM     29  C   UNL     1      14.102 147.852  90.337  0.00  0.00    +0.013 A 
BRANCH  18  19
ATOM     19  C   UNL     1      10.373 148.373  91.268  0.00  0.00    +0.119 C 
BRANCH  19  20
ATOM     20  N   UNL     1       9.697 147.042  91.231  0.00  0.00    -0.302 NA
ATOM     21  C   UNL     1       8.211 147.162  90.883  0.00  0.00    +0.066 C 
ATOM     22  C   UNL     1       7.524 145.758  90.826  0.00  0.00    -0.064 C 
ATOM     23  N   UNL     1       7.711 145.048  92.168  0.00  0.00    +0.379 N 
ATOM     24  C   UNL     1       7.017 143.752  92.138  0.00  0.00    -0.096 C 
ATOM     25  H   UNL     1       7.225 145.674  92.952  0.00  0.00    -0.082 HD
ATOM     26  C   UNL     1       9.186 144.927  92.523  0.00  0.00    -0.064 C 
ATOM     27  C   UNL     1       9.865 146.325  92.547  0.00  0.00    +0.066 C 
ENDBRANCH  19  20
ENDBRANCH  18  19
ENDBRANCH  14  15
ENDBRANCH  12  13
TORSDOF 6
ENDMDL
