MODEL 1
REMARK VINA RESULT:      -8.2      0.000      0.000
REMARK  Name = C:\Users\Docking\Desktop\test protocol\1iep_ligandH.pdb
REMARK  8 active torsions:
REMARK  status: ('A' for Active; 'I' for Inactive)
REMARK    1  A    between atoms: _5  and  _11
REMARK    2  A    between atoms: _19  and  _21
REMARK    3  A    between atoms: _22  and  _66
REMARK    4  A    between atoms: _27  and  _30
REMARK    5  A    between atoms: _32  and  _33
REMARK    6  A    between atoms: _38  and  _43
REMARK    7  A    between atoms: _43  and  _46
REMARK    8  A    between atoms: _53  and  _55
REMARK                            x       y       z     vdW  Elec       q    Type
REMARK                         _______ _______ _______ _____ _____    ______ ____
ROOT
ATOM     10  C   UNL     1      -7.683  14.885  -5.893  0.00  0.00    +0.038 A 
ATOM     11  C   UNL     1      -6.887  14.862  -7.066  0.00  0.00    +0.047 A 
ATOM     12  C   UNL     1      -7.055  15.862  -8.109  0.00  0.00    +0.035 A 
ATOM     32  C   UNL     1      -8.041  16.874  -7.922  0.00  0.00    +0.024 A 
ATOM     33  C   UNL     1      -8.860  16.912  -6.736  0.00  0.00    +0.007 A 
ATOM     34  C   UNL     1      -8.701  15.926  -5.705  0.00  0.00    -0.029 A 
ATOM     35  C   UNL     1      -9.610  16.012  -4.458  0.00  0.00    +0.045 C 
ENDROOT
BRANCH  10   9
ATOM      4  C   UNL     1      -8.964  10.858  -3.617  0.00  0.00    +0.077 A 
ATOM      5  C   UNL     1     -10.153  10.719  -4.407  0.00  0.00    +0.048 A 
ATOM      6  C   UNL     1     -10.402  11.710  -5.384  0.00  0.00    +0.116 A 
ATOM      7  N   UNL     1      -9.521  12.756  -5.549  0.00  0.00    -0.223 NA
ATOM      8  C   UNL     1      -8.384  12.861  -4.769  0.00  0.00    +0.220 A 
ATOM      9  N   UNL     1      -7.480  13.900  -4.924  0.00  0.00    -0.283 N 
ATOM     36  H   UNL     1      -6.657  13.946  -4.323  0.00  0.00    +0.155 HD
ATOM     37  N   UNL     1      -8.124  11.929  -3.829  0.00  0.00    -0.214 NA
BRANCH   4   3
ATOM      1  C   UNL     1      -8.540   7.596  -1.501  0.00  0.00    +0.020 A 
ATOM      2  C   UNL     1      -8.956   8.488  -2.558  0.00  0.00    +0.013 A 
ATOM      3  C   UNL     1      -8.561   9.891  -2.547  0.00  0.00    +0.019 A 
ATOM     38  C   UNL     1      -7.738  10.363  -1.444  0.00  0.00    +0.120 A 
ATOM     39  N   UNL     1      -7.354   9.480  -0.439  0.00  0.00    -0.263 NA
ATOM     40  C   UNL     1      -7.729   8.129  -0.438  0.00  0.00    +0.111 A 
ENDBRANCH   4   3
ENDBRANCH  10   9
BRANCH  12  13
ATOM     13  N   UNL     1      -6.281  15.885  -9.326  0.00  0.00    -0.281 N 
ATOM     14  C   UNL     1      -5.091  16.552  -9.566  0.00  0.00    +0.248 C 
ATOM     30  O   UNL     1      -4.619  17.409  -8.833  0.00  0.00    -0.270 OA
ATOM     31  H   UNL     1      -6.656  15.343 -10.104  0.00  0.00    +0.155 HD
BRANCH  14  15
ATOM     15  C   UNL     1      -4.322  16.232 -10.807  0.00  0.00    +0.037 A 
ATOM     16  C   UNL     1      -3.737  14.906 -11.017  0.00  0.00    +0.013 A 
ATOM     17  C   UNL     1      -2.985  14.629 -12.216  0.00  0.00    +0.005 A 
ATOM     18  C   UNL     1      -2.815  15.682 -13.214  0.00  0.00    -0.033 A 
ATOM     28  C   UNL     1      -3.410  16.987 -12.982  0.00  0.00    +0.005 A 
ATOM     29  C   UNL     1      -4.147  17.263 -11.808  0.00  0.00    +0.013 A 
BRANCH  18  19
ATOM     19  C   UNL     1      -2.010  15.482 -14.512  0.00  0.00    +0.119 C 
BRANCH  19  20
ATOM     20  N   UNL     1      -2.374  14.313 -15.368  0.00  0.00    -0.302 NA
ATOM     21  C   UNL     1      -1.248  13.277 -15.434  0.00  0.00    +0.066 C 
ATOM     22  C   UNL     1      -1.654  12.051 -16.315  0.00  0.00    -0.064 C 
ATOM     23  N   UNL     1      -2.026  12.536 -17.718  0.00  0.00    +0.379 N 
ATOM     24  C   UNL     1      -2.352  11.380 -18.566  0.00  0.00    -0.096 C 
ATOM     25  H   UNL     1      -1.128  13.033 -18.153  0.00  0.00    -0.082 HD
ATOM     26  C   UNL     1      -3.142  13.569 -17.662  0.00  0.00    -0.064 C 
ATOM     27  C   UNL     1      -2.741  14.769 -16.759  0.00  0.00    +0.066 C 
ENDBRANCH  19  20
ENDBRANCH  18  19
ENDBRANCH  14  15
ENDBRANCH  12  13
TORSDOF 6
ENDMDL
MODEL 2
REMARK VINA RESULT:      -8.0      9.964     15.640
REMARK  Name = C:\Users\Docking\Desktop\test protocol\1iep_ligandH.pdb
REMARK  8 active torsions:
REMARK  status: ('A' for Active; 'I' for Inactive)
REMARK    1  A    between atoms: _5  and  _11
REMARK    2  A    between atoms: _19  and  _21
REMARK    3  A    between atoms: _22  and  _66
REMARK    4  A    between atoms: _27  and  _30
REMARK    5  A    between atoms: _32  and  _33
REMARK    6  A    between atoms: _38  and  _43
REMARK    7  A    between atoms: _43  and  _46
REMARK    8  A    between atoms: _53  and  _55
REMARK                            x       y       z     vdW  Elec       q    Type
REMARK                         _______ _______ _______ _____ _____    ______ ____
ROOT
ATOM     10  C   UNL     1     -15.217  20.281   2.666  0.00  0.00    +0.038 A 
ATOM     11  C   UNL     1     -14.482  19.364   1.872  0.00  0.00    +0.047 A 
ATOM     12  C   UNL     1     -13.626  18.358   2.480  0.00  0.00    +0.035 A 
ATOM     32  C   UNL     1     -13.543  18.312   3.903  0.00  0.00    +0.024 A 
ATOM     33  C   UNL     1     -14.282  19.237   4.726  0.00  0.00    +0.007 A 
ATOM     34  C   UNL     1     -15.126  20.233   4.131  0.00  0.00    -0.029 A 
ATOM     35  C   UNL     1     -15.890  21.203   5.062  0.00  0.00    +0.045 C 
ENDROOT
BRANCH  10   9
ATOM      4  C   UNL     1     -16.139  24.755   1.195  0.00  0.00    +0.077 A 
ATOM      5  C   UNL     1     -14.923  25.257   1.768  0.00  0.00    +0.048 A 
ATOM      6  C   UNL     1     -14.092  24.333   2.439  0.00  0.00    +0.116 A 
ATOM      7  N   UNL     1     -14.459  23.007   2.524  0.00  0.00    -0.223 NA
ATOM      8  C   UNL     1     -15.639  22.556   1.962  0.00  0.00    +0.220 A 
ATOM      9  N   UNL     1     -16.024  21.226   2.029  0.00  0.00    -0.283 N 
ATOM     36  H   UNL     1     -16.905  20.934   1.608  0.00  0.00    +0.155 HD
ATOM     37  N   UNL     1     -16.451  23.419   1.317  0.00  0.00    -0.214 NA
BRANCH   4   3
ATOM      1  C   UNL     1     -18.604  26.101  -1.527  0.00  0.00    +0.020 A 
ATOM      2  C   UNL     1     -17.658  25.243  -0.852  0.00  0.00    +0.013 A 
ATOM      3  C   UNL     1     -17.120  25.608   0.452  0.00  0.00    +0.019 A 
ATOM     38  C   UNL     1     -17.564  26.857   1.051  0.00  0.00    +0.120 A 
ATOM     39  N   UNL     1     -18.474  27.665   0.377  0.00  0.00    -0.263 NA
ATOM     40  C   UNL     1     -18.997  27.325  -0.880  0.00  0.00    +0.111 A 
ENDBRANCH   4   3
ENDBRANCH  10   9
BRANCH  12  13
ATOM     13  N   UNL     1     -12.851  17.406   1.724  0.00  0.00    -0.281 N 
ATOM     14  C   UNL     1     -13.107  16.057   1.535  0.00  0.00    +0.248 C 
ATOM     30  O   UNL     1     -13.932  15.415   2.167  0.00  0.00    -0.270 OA
ATOM     31  H   UNL     1     -12.011  17.770   1.274  0.00  0.00    +0.155 HD
BRANCH  14  15
ATOM     15  C   UNL     1     -12.323  15.311   0.504  0.00  0.00    +0.037 A 
ATOM     16  C   UNL     1     -10.978  15.742   0.113  0.00  0.00    +0.013 A 
ATOM     17  C   UNL     1     -10.250  15.014  -0.896  0.00  0.00    +0.005 A 
ATOM     18  C   UNL     1     -10.866  13.846  -1.520  0.00  0.00    -0.033 A 
ATOM     28  C   UNL     1     -12.199  13.437  -1.110  0.00  0.00    +0.005 A 
ATOM     29  C   UNL     1     -12.916  14.149  -0.122  0.00  0.00    +0.013 A 
BRANCH  18  19
ATOM     19  C   UNL     1     -10.172  13.022  -2.621  0.00  0.00    +0.119 C 
BRANCH  19  20
ATOM     20  N   UNL     1     -10.069  11.547  -2.409  0.00  0.00    -0.302 NA
ATOM     21  C   UNL     1      -9.139  11.197  -1.245  0.00  0.00    +0.066 C 
ATOM     22  C   UNL     1      -9.061   9.652  -1.023  0.00  0.00    -0.064 C 
ATOM     23  N   UNL     1      -8.592   8.977  -2.313  0.00  0.00    +0.379 N 
ATOM     24  C   UNL     1      -8.462   7.530  -2.091  0.00  0.00    -0.096 C 
ATOM     25  H   UNL     1      -7.578   9.375  -2.553  0.00  0.00    -0.082 HD
ATOM     26  C   UNL     1      -9.510   9.322  -3.477  0.00  0.00    -0.064 C 
ATOM     27  C   UNL     1      -9.603  10.862  -3.670  0.00  0.00    +0.066 C 
ENDBRANCH  19  20
ENDBRANCH  18  19
ENDBRANCH  14  15
ENDBRANCH  12  13
TORSDOF 6
ENDMDL
MODEL 3
REMARK VINA RESULT:      -7.9      0.986      1.586
REMARK  Name = C:\Users\Docking\Desktop\test protocol\1iep_ligandH.pdb
REMARK  8 active torsions:
REMARK  status: ('A' for Active; 'I' for Inactive)
REMARK    1  A    between atoms: _5  and  _11
REMARK    2  A    between atoms: _19  and  _21
REMARK    3  A    between atoms: _22  and  _66
REMARK    4  A    between atoms: _27  and  _30
REMARK    5  A    between atoms: _32  and  _33
REMARK    6  A    between atoms: _38  and  _43
REMARK    7  A    between atoms: _43  and  _46
REMARK    8  A    between atoms: _53  and  _55
REMARK                            x       y       z     vdW  Elec       q    Type
REMARK                         _______ _______ _______ _____ _____    ______ ____
ROOT
ATOM     10  C   UNL     1      -7.711  14.871  -5.842  0.00  0.00    +0.038 A 
ATOM     11  C   UNL     1      -6.924  14.884  -7.021  0.00  0.00    +0.047 A 
ATOM     12  C   UNL     1      -7.112  15.905  -8.041  0.00  0.00    +0.035 A 
ATOM     32  C   UNL     1      -8.110  16.900  -7.824  0.00  0.00    +0.024 A 
ATOM     33  C   UNL     1      -8.920  16.901  -6.632  0.00  0.00    +0.007 A 
ATOM     34  C   UNL     1      -8.740  15.895  -5.624  0.00  0.00    -0.029 A 
ATOM     35  C   UNL     1      -9.642  15.942  -4.368  0.00  0.00    +0.045 C 
ENDROOT
BRANCH  10   9
ATOM      4  C   UNL     1      -8.925  10.779  -3.647  0.00  0.00    +0.077 A 
ATOM      5  C   UNL     1     -10.118  10.643  -4.431  0.00  0.00    +0.048 A 
ATOM      6  C   UNL     1     -10.387  11.651  -5.384  0.00  0.00    +0.116 A 
ATOM      7  N   UNL     1      -9.520  12.712  -5.533  0.00  0.00    -0.223 NA
ATOM      8  C   UNL     1      -8.378  12.814  -4.758  0.00  0.00    +0.220 A 
ATOM      9  N   UNL     1      -7.488  13.868  -4.896  0.00  0.00    -0.283 N 
ATOM     36  H   UNL     1      -6.662  13.911  -4.301  0.00  0.00    +0.155 HD
ATOM     37  N   UNL     1      -8.100  11.865  -3.841  0.00  0.00    -0.214 NA
BRANCH   4   3
ATOM      1  C   UNL     1      -8.568   7.517  -1.518  0.00  0.00    +0.020 A 
ATOM      2  C   UNL     1      -9.009   8.429  -2.549  0.00  0.00    +0.013 A 
ATOM      3  C   UNL     1      -8.502   9.794  -2.601  0.00  0.00    +0.019 A 
ATOM     38  C   UNL     1      -7.542  10.208  -1.590  0.00  0.00    +0.120 A 
ATOM     39  N   UNL     1      -7.136   9.308  -0.609  0.00  0.00    -0.263 NA
ATOM     40  C   UNL     1      -7.619   7.993  -0.547  0.00  0.00    +0.111 A 
ENDBRANCH   4   3
ENDBRANCH  10   9
BRANCH  12  13
ATOM     13  N   UNL     1      -6.348  15.964  -9.262  0.00  0.00    -0.281 N 
ATOM     14  C   UNL     1      -5.156  16.633  -9.490  0.00  0.00    +0.248 C 
ATOM     30  O   UNL     1      -4.674  17.462  -8.733  0.00  0.00    -0.270 OA
ATOM     31  H   UNL     1      -6.732  15.450 -10.055  0.00  0.00    +0.155 HD
BRANCH  14  15
ATOM     15  C   UNL     1      -4.399  16.350 -10.747  0.00  0.00    +0.037 A 
ATOM     16  C   UNL     1      -4.150  17.401 -11.737  0.00  0.00    +0.013 A 
ATOM     17  C   UNL     1      -3.431  17.098 -12.949  0.00  0.00    +0.005 A 
ATOM     18  C   UNL     1      -2.954  15.736 -13.177  0.00  0.00    -0.033 A 
ATOM     28  C   UNL     1      -3.210  14.714 -12.175  0.00  0.00    +0.005 A 
ATOM     29  C   UNL     1      -3.915  15.007 -10.987  0.00  0.00    +0.013 A 
BRANCH  18  19
ATOM     19  C   UNL     1      -2.197  15.317 -14.451  0.00  0.00    +0.119 C 
BRANCH  19  20
ATOM     20  N   UNL     1      -1.503  13.995 -14.430  0.00  0.00    -0.302 NA
ATOM     21  C   UNL     1      -0.012  14.133 -14.114  0.00  0.00    +0.066 C 
ATOM     22  C   UNL     1       0.694  12.738 -14.075  0.00  0.00    -0.064 C 
ATOM     23  N   UNL     1       0.487  12.028 -15.413  0.00  0.00    +0.379 N 
ATOM     24  C   UNL     1       1.198  10.741 -15.400  0.00  0.00    -0.096 C 
ATOM     25  H   UNL     1       0.949  12.661 -16.207  0.00  0.00    -0.082 HD
ATOM     26  C   UNL     1      -0.993  11.888 -15.737  0.00  0.00    -0.064 C 
ATOM     27  C   UNL     1      -1.691  13.277 -15.745  0.00  0.00    +0.066 C 
ENDBRANCH  19  20
ENDBRANCH  18  19
ENDBRANCH  14  15
ENDBRANCH  12  13
TORSDOF 6
ENDMDL
MODEL 4
REMARK VINA RESULT:      -7.9      9.694     14.728
REMARK  Name = C:\Users\Docking\Desktop\test protocol\1iep_ligandH.pdb
REMARK  8 active torsions:
REMARK  status: ('A' for Active; 'I' for Inactive)
REMARK    1  A    between atoms: _5  and  _11
REMARK    2  A    between atoms: _19  and  _21
REMARK    3  A    between atoms: _22  and  _66
REMARK    4  A    between atoms: _27  and  _30
REMARK    5  A    between atoms: _32  and  _33
REMARK    6  A    between atoms: _38  and  _43
REMARK    7  A    between atoms: _43  and  _46
REMARK    8  A    between atoms: _53  and  _55
REMARK                            x       y       z     vdW  Elec       q    Type
REMARK                         _______ _______ _______ _____ _____    ______ ____
ROOT
ATOM     10  C   UNL     1     -15.093  20.070   2.455  0.00  0.00    +0.038 A 
ATOM     11  C   UNL     1     -14.194  19.296   1.678  0.00  0.00    +0.047 A 
ATOM     12  C   UNL     1     -13.354  18.279   2.291  0.00  0.00    +0.035 A 
ATOM     32  C   UNL     1     -13.458  18.075   3.698  0.00  0.00    +0.024 A 
ATOM     33  C   UNL     1     -14.366  18.853   4.503  0.00  0.00    +0.007 A 
ATOM     34  C   UNL     1     -15.195  19.860   3.904  0.00  0.00    -0.029 A 
ATOM     35  C   UNL     1     -16.146  20.669   4.816  0.00  0.00    +0.045 C 
ENDROOT
BRANCH  10   9
ATOM      4  C   UNL     1     -16.064  24.611   1.239  0.00  0.00    +0.077 A 
ATOM      5  C   UNL     1     -14.931  25.109   1.963  0.00  0.00    +0.048 A 
ATOM      6  C   UNL     1     -14.127  24.165   2.641  0.00  0.00    +0.116 A 
ATOM      7  N   UNL     1     -14.443  22.825   2.591  0.00  0.00    -0.223 NA
ATOM      8  C   UNL     1     -15.544  22.377   1.885  0.00  0.00    +0.220 A 
ATOM      9  N   UNL     1     -15.876  21.033   1.814  0.00  0.00    -0.283 N 
ATOM     36  H   UNL     1     -16.701  20.744   1.289  0.00  0.00    +0.155 HD
ATOM     37  N   UNL     1     -16.328  23.259   1.230  0.00  0.00    -0.214 NA
BRANCH   4   3
ATOM      1  C   UNL     1     -18.505  27.499   0.241  0.00  0.00    +0.020 A 
ATOM      2  C   UNL     1     -17.602  26.691   1.027  0.00  0.00    +0.013 A 
ATOM      3  C   UNL     1     -17.006  25.483   0.469  0.00  0.00    +0.019 A 
ATOM     38  C   UNL     1     -17.348  25.119  -0.897  0.00  0.00    +0.120 A 
ATOM     39  N   UNL     1     -18.222  25.916  -1.630  0.00  0.00    -0.263 NA
ATOM     40  C   UNL     1     -18.803  27.079  -1.103  0.00  0.00    +0.111 A 
ENDBRANCH   4   3
ENDBRANCH  10   9
BRANCH  12  13
ATOM     13  N   UNL     1     -12.416  17.468   1.555  0.00  0.00    -0.281 N 
ATOM     14  C   UNL     1     -12.547  16.139   1.184  0.00  0.00    +0.248 C 
ATOM     30  O   UNL     1     -13.403  15.382   1.616  0.00  0.00    -0.270 OA
ATOM     31  H   UNL     1     -11.551  17.929   1.274  0.00  0.00    +0.155 HD
BRANCH  14  15
ATOM     15  C   UNL     1     -11.578  15.565   0.202  0.00  0.00    +0.037 A 
ATOM     16  C   UNL     1     -10.311  16.239  -0.099  0.00  0.00    +0.013 A 
ATOM     17  C   UNL     1      -9.402  15.672  -1.063  0.00  0.00    +0.005 A 
ATOM     18  C   UNL     1      -9.756  14.423  -1.733  0.00  0.00    -0.033 A 
ATOM     28  C   UNL     1     -11.016  13.774  -1.413  0.00  0.00    +0.005 A 
ATOM     29  C   UNL     1     -11.910  14.327  -0.469  0.00  0.00    +0.013 A 
BRANCH  18  19
ATOM     19  C   UNL     1      -8.856  13.758  -2.792  0.00  0.00    +0.119 C 
BRANCH  19  20
ATOM     20  N   UNL     1      -8.523  14.559  -4.008  0.00  0.00    -0.302 NA
ATOM     21  C   UNL     1      -9.760  15.233  -4.607  0.00  0.00    +0.066 C 
ATOM     22  C   UNL     1      -9.391  16.085  -5.865  0.00  0.00    -0.064 C 
ATOM     23  N   UNL     1      -8.706  15.191  -6.900  0.00  0.00    +0.379 N 
ATOM     24  C   UNL     1      -8.409  15.976  -8.107  0.00  0.00    -0.096 C 
ATOM     25  H   UNL     1      -9.428  14.391  -7.186  0.00  0.00    -0.082 HD
ATOM     26  C   UNL     1      -7.476  14.514  -6.311  0.00  0.00    -0.064 C 
ATOM     27  C   UNL     1      -7.850  13.694  -5.045  0.00  0.00    +0.066 C 
ENDBRANCH  19  20
ENDBRANCH  18  19
ENDBRANCH  14  15
ENDBRANCH  12  13
TORSDOF 6
ENDMDL
MODEL 5
REMARK VINA RESULT:      -7.8     22.999     26.965
REMARK  Name = C:\Users\Docking\Desktop\test protocol\1iep_ligandH.pdb
REMARK  8 active torsions:
REMARK  status: ('A' for Active; 'I' for Inactive)
REMARK    1  A    between atoms: _5  and  _11
REMARK    2  A    between atoms: _19  and  _21
REMARK    3  A    between atoms: _22  and  _66
REMARK    4  A    between atoms: _27  and  _30
REMARK    5  A    between atoms: _32  and  _33
REMARK    6  A    between atoms: _38  and  _43
REMARK    7  A    between atoms: _43  and  _46
REMARK    8  A    between atoms: _53  and  _55
REMARK                            x       y       z     vdW  Elec       q    Type
REMARK                         _______ _______ _______ _____ _____    ______ ____
ROOT
ATOM     10  C   UNL     1     -22.835  29.663  -5.555  0.00  0.00    +0.038 A 
ATOM     11  C   UNL     1     -22.215  29.994  -4.323  0.00  0.00    +0.047 A 
ATOM     12  C   UNL     1     -22.329  29.121  -3.165  0.00  0.00    +0.035 A 
ATOM     32  C   UNL     1     -23.081  27.917  -3.298  0.00  0.00    +0.024 A 
ATOM     33  C   UNL     1     -23.718  27.566  -4.542  0.00  0.00    +0.007 A 
ATOM     34  C   UNL     1     -23.611  28.424  -5.688  0.00  0.00    -0.029 A 
ATOM     35  C   UNL     1     -24.321  28.000  -6.995  0.00  0.00    +0.045 C 
ENDROOT
BRANCH  10   9
ATOM      4  C   UNL     1     -24.108  33.571  -8.033  0.00  0.00    +0.077 A 
ATOM      5  C   UNL     1     -25.164  33.883  -7.113  0.00  0.00    +0.048 A 
ATOM      6  C   UNL     1     -25.351  33.008  -6.019  0.00  0.00    +0.116 A 
ATOM      7  N   UNL     1     -24.536  31.907  -5.867  0.00  0.00    -0.223 NA
ATOM      8  C   UNL     1     -23.528  31.635  -6.773  0.00  0.00    +0.220 A 
ATOM      9  N   UNL     1     -22.692  30.537  -6.635  0.00  0.00    -0.283 N 
ATOM     36  H   UNL     1     -21.965  30.367  -7.329  0.00  0.00    +0.155 HD
ATOM     37  N   UNL     1     -23.330  32.454  -7.827  0.00  0.00    -0.214 NA
BRANCH   4   3
ATOM      1  C   UNL     1     -24.436  35.861 -11.188  0.00  0.00    +0.020 A 
ATOM      2  C   UNL     1     -24.803  35.070 -10.035  0.00  0.00    +0.013 A 
ATOM      3  C   UNL     1     -23.784  34.402  -9.236  0.00  0.00    +0.019 A 
ATOM     38  C   UNL     1     -22.392  34.555  -9.633  0.00  0.00    +0.120 A 
ATOM     39  N   UNL     1     -22.069  35.321 -10.748  0.00  0.00    -0.263 NA
ATOM     40  C   UNL     1     -23.042  35.968 -11.526  0.00  0.00    +0.111 A 
ENDBRANCH   4   3
ENDBRANCH  10   9
BRANCH  12  13
ATOM     13  N   UNL     1     -21.729  29.409  -1.886  0.00  0.00    -0.281 N 
ATOM     14  C   UNL     1     -20.843  28.624  -1.165  0.00  0.00    +0.248 C 
ATOM     30  O   UNL     1     -20.598  27.453  -1.414  0.00  0.00    -0.270 OA
ATOM     31  H   UNL     1     -21.988  30.299  -1.461  0.00  0.00    +0.155 HD
BRANCH  14  15
ATOM     15  C   UNL     1     -20.140  29.222   0.010  0.00  0.00    +0.037 A 
ATOM     16  C   UNL     1     -19.091  28.488   0.723  0.00  0.00    +0.013 A 
ATOM     17  C   UNL     1     -18.441  29.082   1.864  0.00  0.00    +0.005 A 
ATOM     18  C   UNL     1     -18.836  30.419   2.298  0.00  0.00    -0.033 A 
ATOM     28  C   UNL     1     -19.876  31.127   1.569  0.00  0.00    +0.005 A 
ATOM     29  C   UNL     1     -20.517  30.548   0.451  0.00  0.00    +0.013 A 
BRANCH  18  19
ATOM     19  C   UNL     1     -18.211  31.122   3.518  0.00  0.00    +0.119 C 
BRANCH  19  20
ATOM     20  N   UNL     1     -17.984  30.295   4.741  0.00  0.00    -0.302 NA
ATOM     21  C   UNL     1     -19.207  30.285   5.662  0.00  0.00    +0.066 C 
ATOM     22  C   UNL     1     -18.961  29.398   6.925  0.00  0.00    -0.064 C 
ATOM     23  N   UNL     1     -17.726  29.908   7.670  0.00  0.00    +0.379 N 
ATOM     24  C   UNL     1     -17.526  29.112   8.890  0.00  0.00    -0.096 C 
ATOM     25  H   UNL     1     -17.930  30.959   7.982  0.00  0.00    -0.082 HD
ATOM     26  C   UNL     1     -16.506  29.924   6.761  0.00  0.00    -0.064 C 
ATOM     27  C   UNL     1     -16.772  30.784   5.494  0.00  0.00    +0.066 C 
ENDBRANCH  19  20
ENDBRANCH  18  19
ENDBRANCH  14  15
ENDBRANCH  12  13
TORSDOF 6
ENDMDL
