MODEL 1
REMARK VINA RESULT:      -8.2      0.000      0.000
REMARK  Name = C:\Users\Docking\Desktop\test protocol\1iep_ligandH.pdb
REMARK  8 active torsions:
REMARK  status: ('A' for Active; 'I' for Inactive)
REMARK    1  A    between atoms: _5  and  _11
REMARK    2  A    between atoms: _19  and  _21
REMARK    3  A    between atoms: _22  and  _66
REMARK    4  A    between atoms: _27  and  _30
REMARK    5  A    between atoms: _32  and  _33
REMARK    6  A    between atoms: _38  and  _43
REMARK    7  A    between atoms: _43  and  _46
REMARK    8  A    between atoms: _53  and  _55
REMARK                            x       y       z     vdW  Elec       q    Type
REMARK                         _______ _______ _______ _____ _____    ______ ____
ROOT
ATOM     10  C   UNL     1      -9.912  23.254  -2.675  0.00  0.00    +0.038 A 
ATOM     11  C   UNL     1      -9.620  22.125  -1.868  0.00  0.00    +0.047 A 
ATOM     12  C   UNL     1      -9.170  20.874  -2.458  0.00  0.00    +0.035 A 
ATOM     32  C   UNL     1      -9.025  20.809  -3.874  0.00  0.00    +0.024 A 
ATOM     33  C   UNL     1      -9.318  21.946  -4.710  0.00  0.00    +0.007 A 
ATOM     34  C   UNL     1      -9.765  23.182  -4.134  0.00  0.00    -0.029 A 
ATOM     35  C   UNL     1     -10.070  24.367  -5.079  0.00  0.00    +0.045 C 
ENDROOT
BRANCH  10   9
ATOM      4  C   UNL     1     -13.350  26.333  -1.358  0.00  0.00    +0.077 A 
ATOM      5  C   UNL     1     -14.375  25.546  -1.980  0.00  0.00    +0.048 A 
ATOM      6  C   UNL     1     -13.975  24.359  -2.635  0.00  0.00    +0.116 A 
ATOM      7  N   UNL     1     -12.646  23.997  -2.659  0.00  0.00    -0.223 NA
ATOM      8  C   UNL     1     -11.682  24.779  -2.051  0.00  0.00    +0.220 A 
ATOM      9  N   UNL     1     -10.341  24.430  -2.056  0.00  0.00    -0.283 N 
ATOM     36  H   UNL     1      -9.659  25.038  -1.602  0.00  0.00    +0.155 HD
ATOM     37  N   UNL     1     -12.039  25.918  -1.420  0.00  0.00    -0.214 NA
BRANCH   4   3
ATOM      1  C   UNL     1     -13.283  29.184   1.319  0.00  0.00    +0.020 A 
ATOM      2  C   UNL     1     -12.994  27.935   0.653  0.00  0.00    +0.013 A 
ATOM      3  C   UNL     1     -13.615  27.611  -0.625  0.00  0.00    +0.019 A 
ATOM     38  C   UNL     1     -14.532  28.580  -1.207  0.00  0.00    +0.120 A 
ATOM     39  N   UNL     1     -14.793  29.774  -0.541  0.00  0.00    -0.263 NA
ATOM     40  C   UNL     1     -14.202  30.096   0.690  0.00  0.00    +0.111 A 
ENDBRANCH   4   3
ENDBRANCH  10   9
BRANCH  12  13
ATOM     13  N   UNL     1      -8.867  19.692  -1.690  0.00  0.00    -0.281 N 
ATOM     14  C   UNL     1      -7.620  19.167  -1.391  0.00  0.00    +0.248 C 
ATOM     30  O   UNL     1      -6.577  19.517  -1.923  0.00  0.00    -0.270 OA
ATOM     31  H   UNL     1      -9.669  19.180  -1.321  0.00  0.00    +0.155 HD
BRANCH  14  15
ATOM     15  C   UNL     1      -7.519  18.085  -0.364  0.00  0.00    +0.037 A 
ATOM     16  C   UNL     1      -6.249  17.787   0.303  0.00  0.00    +0.013 A 
ATOM     17  C   UNL     1      -6.175  16.728   1.277  0.00  0.00    +0.005 A 
ATOM     18  C   UNL     1      -7.377  15.959   1.592  0.00  0.00    -0.033 A 
ATOM     28  C   UNL     1      -8.625  16.280   0.919  0.00  0.00    +0.005 A 
ATOM     29  C   UNL     1      -8.701  17.317  -0.037  0.00  0.00    +0.013 A 
BRANCH  18  19
ATOM     19  C   UNL     1      -7.386  14.797   2.603  0.00  0.00    +0.119 C 
BRANCH  19  20
ATOM     20  N   UNL     1      -8.196  14.978   3.845  0.00  0.00    -0.302 NA
ATOM     21  C   UNL     1      -7.828  16.265   4.589  0.00  0.00    +0.066 C 
ATOM     22  C   UNL     1      -8.700  16.449   5.873  0.00  0.00    -0.064 C 
ATOM     23  N   UNL     1      -8.530  15.230   6.782  0.00  0.00    +0.379 N 
ATOM     24  C   UNL     1      -9.303  15.426   8.016  0.00  0.00    -0.096 C 
ATOM     25  H   UNL     1      -7.453  15.166   7.063  0.00  0.00    -0.082 HD
ATOM     26  C   UNL     1      -8.892  13.946   6.049  0.00  0.00    -0.064 C 
ATOM     27  C   UNL     1      -8.040  13.787   4.758  0.00  0.00    +0.066 C 
ENDBRANCH  19  20
ENDBRANCH  18  19
ENDBRANCH  14  15
ENDBRANCH  12  13
TORSDOF 6
ENDMDL
MODEL 2
REMARK VINA RESULT:      -8.1      3.638     12.990
REMARK  Name = C:\Users\Docking\Desktop\test protocol\1iep_ligandH.pdb
REMARK  8 active torsions:
REMARK  status: ('A' for Active; 'I' for Inactive)
REMARK    1  A    between atoms: _5  and  _11
REMARK    2  A    between atoms: _19  and  _21
REMARK    3  A    between atoms: _22  and  _66
REMARK    4  A    between atoms: _27  and  _30
REMARK    5  A    between atoms: _32  and  _33
REMARK    6  A    between atoms: _38  and  _43
REMARK    7  A    between atoms: _43  and  _46
REMARK    8  A    between atoms: _53  and  _55
REMARK                            x       y       z     vdW  Elec       q    Type
REMARK                         _______ _______ _______ _____ _____    ______ ____
ROOT
ATOM     10  C   UNL     1     -11.451  21.939  -2.179  0.00  0.00    +0.038 A 
ATOM     11  C   UNL     1     -11.575  23.282  -1.742  0.00  0.00    +0.047 A 
ATOM     12  C   UNL     1     -12.490  24.205  -2.396  0.00  0.00    +0.035 A 
ATOM     32  C   UNL     1     -13.266  23.724  -3.491  0.00  0.00    +0.024 A 
ATOM     33  C   UNL     1     -13.152  22.361  -3.949  0.00  0.00    +0.007 A 
ATOM     34  C   UNL     1     -12.249  21.448  -3.309  0.00  0.00    -0.029 A 
ATOM     35  C   UNL     1     -12.162  20.000  -3.846  0.00  0.00    +0.045 C 
ENDROOT
BRANCH  10   9
ATOM      4  C   UNL     1      -7.248  19.645  -1.847  0.00  0.00    +0.077 A 
ATOM      5  C   UNL     1      -6.807  20.145  -3.117  0.00  0.00    +0.048 A 
ATOM      6  C   UNL     1      -7.695  20.984  -3.828  0.00  0.00    +0.116 A 
ATOM      7  N   UNL     1      -8.929  21.293  -3.297  0.00  0.00    -0.223 NA
ATOM      8  C   UNL     1      -9.323  20.792  -2.070  0.00  0.00    +0.220 A 
ATOM      9  N   UNL     1     -10.556  21.097  -1.514  0.00  0.00    -0.283 N 
ATOM     36  H   UNL     1     -10.813  20.701  -0.610  0.00  0.00    +0.155 HD
ATOM     37  N   UNL     1      -8.494  19.988  -1.373  0.00  0.00    -0.214 NA
BRANCH   4   3
ATOM      1  C   UNL     1      -4.216  17.822  -0.177  0.00  0.00    +0.020 A 
ATOM      2  C   UNL     1      -4.967  18.704  -1.041  0.00  0.00    +0.013 A 
ATOM      3  C   UNL     1      -6.422  18.750  -0.976  0.00  0.00    +0.019 A 
ATOM     38  C   UNL     1      -7.093  17.884  -0.018  0.00  0.00    +0.120 A 
ATOM     39  N   UNL     1      -6.344  17.044   0.800  0.00  0.00    -0.263 NA
ATOM     40  C   UNL     1      -4.943  16.990   0.746  0.00  0.00    +0.111 A 
ENDBRANCH   4   3
ENDBRANCH  10   9
BRANCH  12  13
ATOM     13  N   UNL     1     -12.653  25.582  -2.002  0.00  0.00    -0.281 N 
ATOM     14  C   UNL     1     -13.812  26.218  -1.588  0.00  0.00    +0.248 C 
ATOM     30  O   UNL     1     -14.935  25.749  -1.698  0.00  0.00    -0.270 OA
ATOM     31  H   UNL     1     -11.812  26.158  -2.032  0.00  0.00    +0.155 HD
BRANCH  14  15
ATOM     15  C   UNL     1     -13.710  27.578  -0.975  0.00  0.00    +0.037 A 
ATOM     16  C   UNL     1     -14.717  28.608  -1.241  0.00  0.00    +0.013 A 
ATOM     17  C   UNL     1     -14.586  29.917  -0.651  0.00  0.00    +0.005 A 
ATOM     18  C   UNL     1     -13.443  30.202   0.212  0.00  0.00    -0.033 A 
ATOM     28  C   UNL     1     -12.461  29.159   0.463  0.00  0.00    +0.005 A 
ATOM     29  C   UNL     1     -12.586  27.876  -0.114  0.00  0.00    +0.013 A 
BRANCH  18  19
ATOM     19  C   UNL     1     -13.211  31.577   0.867  0.00  0.00    +0.119 C 
BRANCH  19  20
ATOM     20  N   UNL     1     -14.420  32.384   1.207  0.00  0.00    -0.302 NA
ATOM     21  C   UNL     1     -14.933  33.184   0.005  0.00  0.00    +0.066 C 
ATOM     22  C   UNL     1     -16.212  34.005   0.373  0.00  0.00    -0.064 C 
ATOM     23  N   UNL     1     -15.898  34.934   1.547  0.00  0.00    +0.379 N 
ATOM     24  C   UNL     1     -17.081  35.750   1.857  0.00  0.00    -0.096 C 
ATOM     25  H   UNL     1     -15.085  35.625   1.223  0.00  0.00    -0.082 HD
ATOM     26  C   UNL     1     -15.384  34.148   2.745  0.00  0.00    -0.064 C 
ATOM     27  C   UNL     1     -14.131  33.312   2.361  0.00  0.00    +0.066 C 
ENDBRANCH  19  20
ENDBRANCH  18  19
ENDBRANCH  14  15
ENDBRANCH  12  13
TORSDOF 6
ENDMDL
MODEL 3
REMARK VINA RESULT:      -8.1      9.670     14.425
REMARK  Name = C:\Users\Docking\Desktop\test protocol\1iep_ligandH.pdb
REMARK  8 active torsions:
REMARK  status: ('A' for Active; 'I' for Inactive)
REMARK    1  A    between atoms: _5  and  _11
REMARK    2  A    between atoms: _19  and  _21
REMARK    3  A    between atoms: _22  and  _66
REMARK    4  A    between atoms: _27  and  _30
REMARK    5  A    between atoms: _32  and  _33
REMARK    6  A    between atoms: _38  and  _43
REMARK    7  A    between atoms: _43  and  _46
REMARK    8  A    between atoms: _53  and  _55
REMARK                            x       y       z     vdW  Elec       q    Type
REMARK                         _______ _______ _______ _____ _____    ______ ____
ROOT
ATOM     10  C   UNL     1      -8.609  14.616   5.555  0.00  0.00    +0.038 A 
ATOM     11  C   UNL     1      -9.135  13.790   6.581  0.00  0.00    +0.047 A 
ATOM     12  C   UNL     1      -9.713  14.364   7.787  0.00  0.00    +0.035 A 
ATOM     32  C   UNL     1      -9.741  15.783   7.913  0.00  0.00    +0.024 A 
ATOM     33  C   UNL     1      -9.210  16.638   6.881  0.00  0.00    +0.007 A 
ATOM     34  C   UNL     1      -8.636  16.078   5.690  0.00  0.00    -0.029 A 
ATOM     35  C   UNL     1      -8.076  17.042   4.619  0.00  0.00    +0.045 C 
ENDROOT
BRANCH  10   9
ATOM      4  C   UNL     1      -4.879  13.231   2.871  0.00  0.00    +0.077 A 
ATOM      5  C   UNL     1      -3.932  13.781   3.798  0.00  0.00    +0.048 A 
ATOM      6  C   UNL     1      -4.446  14.419   4.950  0.00  0.00    +0.116 A 
ATOM      7  N   UNL     1      -5.807  14.494   5.149  0.00  0.00    -0.223 NA
ATOM      8  C   UNL     1      -6.693  13.955   4.235  0.00  0.00    +0.220 A 
ATOM      9  N   UNL     1      -8.066  14.012   4.419  0.00  0.00    -0.283 N 
ATOM     36  H   UNL     1      -8.686  13.609   3.718  0.00  0.00    +0.155 HD
ATOM     37  N   UNL     1      -6.227  13.342   3.126  0.00  0.00    -0.214 NA
BRANCH   4   3
ATOM      1  C   UNL     1      -2.819  11.354   0.126  0.00  0.00    +0.020 A 
ATOM      2  C   UNL     1      -3.142  12.031   1.361  0.00  0.00    +0.013 A 
ATOM      3  C   UNL     1      -4.490  12.524   1.610  0.00  0.00    +0.019 A 
ATOM     38  C   UNL     1      -5.497  12.315   0.581  0.00  0.00    +0.120 A 
ATOM     39  N   UNL     1      -5.157  11.662  -0.600  0.00  0.00    -0.263 NA
ATOM     40  C   UNL     1      -3.862  11.183  -0.851  0.00  0.00    +0.111 A 
ENDBRANCH   4   3
ENDBRANCH  10   9
BRANCH  12  13
ATOM     13  N   UNL     1     -10.255  13.575   8.866  0.00  0.00    -0.281 N 
ATOM     14  C   UNL     1     -11.451  12.878   8.893  0.00  0.00    +0.248 C 
ATOM     30  O   UNL     1     -12.342  13.001   8.066  0.00  0.00    -0.270 OA
ATOM     31  H   UNL     1      -9.687  13.525   9.712  0.00  0.00    +0.155 HD
BRANCH  14  15
ATOM     15  C   UNL     1     -11.700  11.914  10.008  0.00  0.00    +0.037 A 
ATOM     16  C   UNL     1     -12.549  12.273  11.147  0.00  0.00    +0.013 A 
ATOM     17  C   UNL     1     -12.759  11.331  12.218  0.00  0.00    +0.005 A 
ATOM     18  C   UNL     1     -12.119  10.019  12.154  0.00  0.00    -0.033 A 
ATOM     28  C   UNL     1     -11.285   9.688  11.010  0.00  0.00    +0.005 A 
ATOM     29  C   UNL     1     -11.077  10.609   9.959  0.00  0.00    +0.013 A 
BRANCH  18  19
ATOM     19  C   UNL     1     -12.270   8.960  13.261  0.00  0.00    +0.119 C 
BRANCH  19  20
ATOM     20  N   UNL     1     -11.107   8.756  14.176  0.00  0.00    -0.302 NA
ATOM     21  C   UNL     1     -10.383   7.435  13.900  0.00  0.00    +0.066 C 
ATOM     22  C   UNL     1      -9.156   7.248  14.850  0.00  0.00    -0.064 C 
ATOM     23  N   UNL     1      -9.626   7.315  16.304  0.00  0.00    +0.379 N 
ATOM     24  C   UNL     1      -8.484   7.082  17.200  0.00  0.00    -0.096 C 
ATOM     25  H   UNL     1     -10.355   6.486  16.462  0.00  0.00    -0.082 HD
ATOM     26  C   UNL     1     -10.349   8.625  16.587  0.00  0.00    -0.064 C 
ATOM     27  C   UNL     1     -11.549   8.814  15.617  0.00  0.00    +0.066 C 
ENDBRANCH  19  20
ENDBRANCH  18  19
ENDBRANCH  14  15
ENDBRANCH  12  13
TORSDOF 6
ENDMDL
MODEL 4
REMARK VINA RESULT:      -8.0      2.063      2.891
REMARK  Name = C:\Users\Docking\Desktop\test protocol\1iep_ligandH.pdb
REMARK  8 active torsions:
REMARK  status: ('A' for Active; 'I' for Inactive)
REMARK    1  A    between atoms: _5  and  _11
REMARK    2  A    between atoms: _19  and  _21
REMARK    3  A    between atoms: _22  and  _66
REMARK    4  A    between atoms: _27  and  _30
REMARK    5  A    between atoms: _32  and  _33
REMARK    6  A    between atoms: _38  and  _43
REMARK    7  A    between atoms: _43  and  _46
REMARK    8  A    between atoms: _53  and  _55
REMARK                            x       y       z     vdW  Elec       q    Type
REMARK                         _______ _______ _______ _____ _____    ______ ____
ROOT
ATOM     10  C   UNL     1     -10.127  23.329  -2.725  0.00  0.00    +0.038 A 
ATOM     11  C   UNL     1      -9.642  22.287  -1.894  0.00  0.00    +0.047 A 
ATOM     12  C   UNL     1      -9.224  21.011  -2.453  0.00  0.00    +0.035 A 
ATOM     32  C   UNL     1      -9.311  20.831  -3.864  0.00  0.00    +0.024 A 
ATOM     33  C   UNL     1      -9.802  21.879  -4.724  0.00  0.00    +0.007 A 
ATOM     34  C   UNL     1     -10.218  23.139  -4.177  0.00  0.00    -0.029 A 
ATOM     35  C   UNL     1     -10.743  24.224  -5.146  0.00  0.00    +0.045 C 
ENDROOT
BRANCH  10   9
ATOM      4  C   UNL     1     -13.472  26.482  -1.345  0.00  0.00    +0.077 A 
ATOM      5  C   UNL     1     -14.535  25.674  -1.868  0.00  0.00    +0.048 A 
ATOM      6  C   UNL     1     -14.178  24.457  -2.491  0.00  0.00    +0.116 A 
ATOM      7  N   UNL     1     -12.854  24.086  -2.578  0.00  0.00    -0.223 NA
ATOM      8  C   UNL     1     -11.853  24.890  -2.065  0.00  0.00    +0.220 A 
ATOM      9  N   UNL     1     -10.515  24.534  -2.134  0.00  0.00    -0.283 N 
ATOM     36  H   UNL     1      -9.806  25.158  -1.750  0.00  0.00    +0.155 HD
ATOM     37  N   UNL     1     -12.167  26.058  -1.466  0.00  0.00    -0.214 NA
BRANCH   4   3
ATOM      1  C   UNL     1     -13.205  29.468   1.168  0.00  0.00    +0.020 A 
ATOM      2  C   UNL     1     -12.957  28.190   0.541  0.00  0.00    +0.013 A 
ATOM      3  C   UNL     1     -13.689  27.794  -0.655  0.00  0.00    +0.019 A 
ATOM     38  C   UNL     1     -14.670  28.721  -1.197  0.00  0.00    +0.120 A 
ATOM     39  N   UNL     1     -14.888  29.944  -0.572  0.00  0.00    -0.263 NA
ATOM     40  C   UNL     1     -14.192  30.336   0.582  0.00  0.00    +0.111 A 
ENDBRANCH   4   3
ENDBRANCH  10   9
BRANCH  12  13
ATOM     13  N   UNL     1      -8.732  19.913  -1.658  0.00  0.00    -0.281 N 
ATOM     14  C   UNL     1      -7.464  19.355  -1.670  0.00  0.00    +0.248 C 
ATOM     30  O   UNL     1      -6.619  19.577  -2.524  0.00  0.00    -0.270 OA
ATOM     31  H   UNL     1      -9.398  19.498  -1.007  0.00  0.00    +0.155 HD
BRANCH  14  15
ATOM     15  C   UNL     1      -7.085  18.400  -0.584  0.00  0.00    +0.037 A 
ATOM     16  C   UNL     1      -8.078  17.515   0.030  0.00  0.00    +0.013 A 
ATOM     17  C   UNL     1      -7.689  16.616   1.088  0.00  0.00    +0.005 A 
ATOM     18  C   UNL     1      -6.299  16.597   1.537  0.00  0.00    -0.033 A 
ATOM     28  C   UNL     1      -5.334  17.482   0.906  0.00  0.00    +0.005 A 
ATOM     29  C   UNL     1      -5.711  18.365  -0.130  0.00  0.00    +0.013 A 
BRANCH  18  19
ATOM     19  C   UNL     1      -5.800  15.685   2.673  0.00  0.00    +0.119 C 
BRANCH  19  20
ATOM     20  N   UNL     1      -5.140  14.403   2.282  0.00  0.00    -0.302 NA
ATOM     21  C   UNL     1      -6.159  13.303   1.972  0.00  0.00    +0.066 C 
ATOM     22  C   UNL     1      -5.452  11.977   1.543  0.00  0.00    -0.064 C 
ATOM     23  N   UNL     1      -4.494  11.532   2.649  0.00  0.00    +0.379 N 
ATOM     24  C   UNL     1      -3.871  10.254   2.274  0.00  0.00    -0.096 C 
ATOM     25  H   UNL     1      -5.098  11.356   3.569  0.00  0.00    -0.082 HD
ATOM     26  C   UNL     1      -3.479  12.621   2.965  0.00  0.00    -0.064 C 
ATOM     27  C   UNL     1      -4.192  13.943   3.362  0.00  0.00    +0.066 C 
ENDBRANCH  19  20
ENDBRANCH  18  19
ENDBRANCH  14  15
ENDBRANCH  12  13
TORSDOF 6
ENDMDL
MODEL 5
REMARK VINA RESULT:      -7.8      2.429     12.397
REMARK  Name = C:\Users\Docking\Desktop\test protocol\1iep_ligandH.pdb
REMARK  8 active torsions:
REMARK  status: ('A' for Active; 'I' for Inactive)
REMARK    1  A    between atoms: _5  and  _11
REMARK    2  A    between atoms: _19  and  _21
REMARK    3  A    between atoms: _22  and  _66
REMARK    4  A    between atoms: _27  and  _30
REMARK    5  A    between atoms: _32  and  _33
REMARK    6  A    between atoms: _38  and  _43
REMARK    7  A    between atoms: _43  and  _46
REMARK    8  A    between atoms: _53  and  _55
REMARK                            x       y       z     vdW  Elec       q    Type
REMARK                         _______ _______ _______ _____ _____    ______ ____
ROOT
ATOM     10  C   UNL     1      -7.076  14.414   3.789  0.00  0.00    +0.038 A 
ATOM     11  C   UNL     1      -7.515  15.324   2.794  0.00  0.00    +0.047 A 
ATOM     12  C   UNL     1      -6.565  16.035   1.951  0.00  0.00    +0.035 A 
ATOM     32  C   UNL     1      -5.174  15.792   2.148  0.00  0.00    +0.024 A 
ATOM     33  C   UNL     1      -4.710  14.871   3.156  0.00  0.00    +0.007 A 
ATOM     34  C   UNL     1      -5.643  14.169   3.991  0.00  0.00    -0.029 A 
ATOM     35  C   UNL     1      -5.089  13.199   5.060  0.00  0.00    +0.045 C 
ENDROOT
BRANCH  10   9
ATOM      4  C   UNL     1      -9.969  14.162   7.610  0.00  0.00    +0.077 A 
ATOM      5  C   UNL     1      -9.519  15.430   8.109  0.00  0.00    +0.048 A 
ATOM      6  C   UNL     1      -8.536  16.111   7.356  0.00  0.00    +0.116 A 
ATOM      7  N   UNL     1      -8.048  15.557   6.192  0.00  0.00    -0.223 NA
ATOM      8  C   UNL     1      -8.503  14.332   5.740  0.00  0.00    +0.220 A 
ATOM      9  N   UNL     1      -8.031  13.760   4.569  0.00  0.00    -0.283 N 
ATOM     36  H   UNL     1      -8.387  12.851   4.273  0.00  0.00    +0.155 HD
ATOM     37  N   UNL     1      -9.439  13.660   6.442  0.00  0.00    -0.214 NA
BRANCH   4   3
ATOM      1  C   UNL     1     -11.903  11.116   9.121  0.00  0.00    +0.020 A 
ATOM      2  C   UNL     1     -10.874  11.880   8.455  0.00  0.00    +0.013 A 
ATOM      3  C   UNL     1     -11.005  13.323   8.292  0.00  0.00    +0.019 A 
ATOM     38  C   UNL     1     -12.198  13.967   8.820  0.00  0.00    +0.120 A 
ATOM     39  N   UNL     1     -13.173  13.205   9.456  0.00  0.00    -0.263 NA
ATOM     40  C   UNL     1     -13.059  11.816   9.617  0.00  0.00    +0.111 A 
ENDBRANCH   4   3
ENDBRANCH  10   9
BRANCH  12  13
ATOM     13  N   UNL     1      -6.952  16.977   0.930  0.00  0.00    -0.281 N 
ATOM     14  C   UNL     1      -7.883  16.802  -0.080  0.00  0.00    +0.248 C 
ATOM     30  O   UNL     1      -8.374  15.727  -0.390  0.00  0.00    -0.270 OA
ATOM     31  H   UNL     1      -6.481  17.881   0.956  0.00  0.00    +0.155 HD
BRANCH  14  15
ATOM     15  C   UNL     1      -8.322  17.993  -0.870  0.00  0.00    +0.037 A 
ATOM     16  C   UNL     1      -9.738  18.232  -1.160  0.00  0.00    +0.013 A 
ATOM     17  C   UNL     1     -10.134  19.379  -1.939  0.00  0.00    +0.005 A 
ATOM     18  C   UNL     1      -9.110  20.297  -2.432  0.00  0.00    -0.033 A 
ATOM     28  C   UNL     1      -7.713  20.039  -2.125  0.00  0.00    +0.005 A 
ATOM     29  C   UNL     1      -7.321  18.915  -1.363  0.00  0.00    +0.013 A 
BRANCH  18  19
ATOM     19  C   UNL     1      -9.438  21.534  -3.288  0.00  0.00    +0.119 C 
BRANCH  19  20
ATOM     20  N   UNL     1     -10.600  22.371  -2.864  0.00  0.00    -0.302 NA
ATOM     21  C   UNL     1     -10.721  23.650  -3.696  0.00  0.00    +0.066 C 
ATOM     22  C   UNL     1     -11.955  24.502  -3.253  0.00  0.00    -0.064 C 
ATOM     23  N   UNL     1     -11.835  24.834  -1.765  0.00  0.00    +0.379 N 
ATOM     24  C   UNL     1     -12.964  25.683  -1.359  0.00  0.00    -0.096 C 
ATOM     25  H   UNL     1     -10.900  25.424  -1.625  0.00  0.00    -0.082 HD
ATOM     26  C   UNL     1     -11.711  23.567  -0.930  0.00  0.00    -0.064 C 
ATOM     27  C   UNL     1     -10.499  22.713  -1.398  0.00  0.00    +0.066 C 
ENDBRANCH  19  20
ENDBRANCH  18  19
ENDBRANCH  14  15
ENDBRANCH  12  13
TORSDOF 6
ENDMDL
