MODEL 1
REMARK VINA RESULT:      -7.9      0.000      0.000
REMARK  Name = C:\Users\Docking\Desktop\test protocol\1iep_ligandH.pdb
REMARK  8 active torsions:
REMARK  status: ('A' for Active; 'I' for Inactive)
REMARK    1  A    between atoms: _5  and  _11
REMARK    2  A    between atoms: _19  and  _21
REMARK    3  A    between atoms: _22  and  _66
REMARK    4  A    between atoms: _27  and  _30
REMARK    5  A    between atoms: _32  and  _33
REMARK    6  A    between atoms: _38  and  _43
REMARK    7  A    between atoms: _43  and  _46
REMARK    8  A    between atoms: _53  and  _55
REMARK                            x       y       z     vdW  Elec       q    Type
REMARK                         _______ _______ _______ _____ _____    ______ ____
ROOT
ATOM     10  C   UNL     1      20.994   8.005 -23.191  0.00  0.00    +0.038 A 
ATOM     11  C   UNL     1      20.997   6.690 -23.721  0.00  0.00    +0.047 A 
ATOM     12  C   UNL     1      22.185   6.133 -24.348  0.00  0.00    +0.035 A 
ATOM     32  C   UNL     1      23.355   6.945 -24.417  0.00  0.00    +0.024 A 
ATOM     33  C   UNL     1      23.370   8.285 -23.885  0.00  0.00    +0.007 A 
ATOM     34  C   UNL     1      22.200   8.839 -23.267  0.00  0.00    -0.029 A 
ATOM     35  C   UNL     1      22.270  10.284 -22.719  0.00  0.00    +0.045 C 
ENDROOT
BRANCH  10   9
ATOM      4  C   UNL     1      16.679  10.093 -23.431  0.00  0.00    +0.077 A 
ATOM      5  C   UNL     1      16.773  10.260 -24.853  0.00  0.00    +0.048 A 
ATOM      6  C   UNL     1      17.951   9.801 -25.483  0.00  0.00    +0.116 A 
ATOM      7  N   UNL     1      18.954   9.220 -24.738  0.00  0.00    -0.223 NA
ATOM      8  C   UNL     1      18.832   9.077 -23.368  0.00  0.00    +0.220 A 
ATOM      9  N   UNL     1      19.825   8.489 -22.599  0.00  0.00    -0.283 N 
ATOM     36  H   UNL     1      19.700   8.408 -21.590  0.00  0.00    +0.155 HD
ATOM     37  N   UNL     1      17.718   9.508 -22.742  0.00  0.00    -0.214 NA
BRANCH   4   3
ATOM      1  C   UNL     1      13.603  10.078 -21.014  0.00  0.00    +0.020 A 
ATOM      2  C   UNL     1      14.738   9.610 -21.776  0.00  0.00    +0.013 A 
ATOM      3  C   UNL     1      15.496  10.525 -22.622  0.00  0.00    +0.019 A 
ATOM     38  C   UNL     1      15.075  11.917 -22.674  0.00  0.00    +0.120 A 
ATOM     39  N   UNL     1      13.977  12.338 -21.930  0.00  0.00    -0.263 NA
ATOM     40  C   UNL     1      13.240  11.467 -21.114  0.00  0.00    +0.111 A 
ENDBRANCH   4   3
ENDBRANCH  10   9
BRANCH  12  13
ATOM     13  N   UNL     1      22.245   4.807 -24.911  0.00  0.00    -0.281 N 
ATOM     14  C   UNL     1      21.467   4.277 -25.927  0.00  0.00    +0.248 C 
ATOM     30  O   UNL     1      20.452   4.799 -26.364  0.00  0.00    -0.270 OA
ATOM     31  H   UNL     1      22.946   4.183 -24.511  0.00  0.00    +0.155 HD
BRANCH  14  15
ATOM     15  C   UNL     1      21.866   2.972 -26.537  0.00  0.00    +0.037 A 
ATOM     16  C   UNL     1      20.940   1.838 -26.578  0.00  0.00    +0.013 A 
ATOM     17  C   UNL     1      21.356   0.585 -27.156  0.00  0.00    +0.005 A 
ATOM     18  C   UNL     1      22.706   0.460 -27.699  0.00  0.00    -0.033 A 
ATOM     28  C   UNL     1      23.603   1.603 -27.651  0.00  0.00    +0.005 A 
ATOM     29  C   UNL     1      23.199   2.833 -27.084  0.00  0.00    +0.013 A 
BRANCH  18  19
ATOM     19  C   UNL     1      23.243  -0.845 -28.316  0.00  0.00    +0.119 C 
BRANCH  19  20
ATOM     20  N   UNL     1      23.594  -0.822 -29.767  0.00  0.00    -0.302 NA
ATOM     21  C   UNL     1      22.637   0.058 -30.576  0.00  0.00    +0.066 C 
ATOM     22  C   UNL     1      23.033   0.089 -32.089  0.00  0.00    -0.064 C 
ATOM     23  N   UNL     1      23.051  -1.338 -32.638  0.00  0.00    +0.379 N 
ATOM     24  C   UNL     1      23.366  -1.308 -34.073  0.00  0.00    -0.096 C 
ATOM     25  H   UNL     1      22.024  -1.756 -32.525  0.00  0.00    -0.082 HD
ATOM     26  C   UNL     1      23.998  -2.221 -31.837  0.00  0.00    -0.064 C 
ATOM     27  C   UNL     1      23.614  -2.221 -30.331  0.00  0.00    +0.066 C 
ENDBRANCH  19  20
ENDBRANCH  18  19
ENDBRANCH  14  15
ENDBRANCH  12  13
TORSDOF 6
ENDMDL
MODEL 2
REMARK VINA RESULT:      -7.9      1.159      1.553
REMARK  Name = C:\Users\Docking\Desktop\test protocol\1iep_ligandH.pdb
REMARK  8 active torsions:
REMARK  status: ('A' for Active; 'I' for Inactive)
REMARK    1  A    between atoms: _5  and  _11
REMARK    2  A    between atoms: _19  and  _21
REMARK    3  A    between atoms: _22  and  _66
REMARK    4  A    between atoms: _27  and  _30
REMARK    5  A    between atoms: _32  and  _33
REMARK    6  A    between atoms: _38  and  _43
REMARK    7  A    between atoms: _43  and  _46
REMARK    8  A    between atoms: _53  and  _55
REMARK                            x       y       z     vdW  Elec       q    Type
REMARK                         _______ _______ _______ _____ _____    ______ ____
ROOT
ATOM     10  C   UNL     1      21.156   7.703 -23.292  0.00  0.00    +0.038 A 
ATOM     11  C   UNL     1      21.122   6.423 -23.901  0.00  0.00    +0.047 A 
ATOM     12  C   UNL     1      22.307   5.854 -24.523  0.00  0.00    +0.035 A 
ATOM     32  C   UNL     1      23.512   6.615 -24.504  0.00  0.00    +0.024 A 
ATOM     33  C   UNL     1      23.564   7.919 -23.890  0.00  0.00    +0.007 A 
ATOM     34  C   UNL     1      22.397   8.486 -23.277  0.00  0.00    -0.029 A 
ATOM     35  C   UNL     1      22.509   9.890 -22.639  0.00  0.00    +0.045 C 
ENDROOT
BRANCH  10   9
ATOM      4  C   UNL     1      16.935   9.975 -23.546  0.00  0.00    +0.077 A 
ATOM      5  C   UNL     1      17.082  10.214 -24.953  0.00  0.00    +0.048 A 
ATOM      6  C   UNL     1      18.261   9.743 -25.572  0.00  0.00    +0.116 A 
ATOM      7  N   UNL     1      19.216   9.082 -24.829  0.00  0.00    -0.223 NA
ATOM      8  C   UNL     1      19.044   8.870 -23.474  0.00  0.00    +0.220 A 
ATOM      9  N   UNL     1      19.988   8.201 -22.709  0.00  0.00    -0.283 N 
ATOM     36  H   UNL     1      19.828   8.071 -21.711  0.00  0.00    +0.155 HD
ATOM     37  N   UNL     1      17.928   9.312 -22.859  0.00  0.00    -0.214 NA
BRANCH   4   3
ATOM      1  C   UNL     1      13.888   9.991 -21.094  0.00  0.00    +0.020 A 
ATOM      2  C   UNL     1      15.032   9.521 -21.840  0.00  0.00    +0.013 A 
ATOM      3  C   UNL     1      15.744  10.410 -22.750  0.00  0.00    +0.019 A 
ATOM     38  C   UNL     1      15.269  11.779 -22.882  0.00  0.00    +0.120 A 
ATOM     39  N   UNL     1      14.163  12.203 -22.152  0.00  0.00    -0.263 NA
ATOM     40  C   UNL     1      13.469  11.356 -21.275  0.00  0.00    +0.111 A 
ENDBRANCH   4   3
ENDBRANCH  10   9
BRANCH  12  13
ATOM     13  N   UNL     1      22.330   4.563 -25.165  0.00  0.00    -0.281 N 
ATOM     14  C   UNL     1      21.252   3.786 -25.554  0.00  0.00    +0.248 C 
ATOM     30  O   UNL     1      20.095   3.989 -25.216  0.00  0.00    -0.270 OA
ATOM     31  H   UNL     1      23.254   4.174 -25.354  0.00  0.00    +0.155 HD
BRANCH  14  15
ATOM     15  C   UNL     1      21.495   2.603 -26.436  0.00  0.00    +0.037 A 
ATOM     16  C   UNL     1      21.082   1.257 -26.033  0.00  0.00    +0.013 A 
ATOM     17  C   UNL     1      21.344   0.131 -26.894  0.00  0.00    +0.005 A 
ATOM     18  C   UNL     1      22.021   0.349 -28.171  0.00  0.00    -0.033 A 
ATOM     28  C   UNL     1      22.415   1.696 -28.549  0.00  0.00    +0.005 A 
ATOM     29  C   UNL     1      22.161   2.801 -27.706  0.00  0.00    +0.013 A 
BRANCH  18  19
ATOM     19  C   UNL     1      22.360  -0.796 -29.144  0.00  0.00    +0.119 C 
BRANCH  19  20
ATOM     20  N   UNL     1      23.745  -0.833 -29.700  0.00  0.00    -0.302 NA
ATOM     21  C   UNL     1      23.856  -1.774 -30.903  0.00  0.00    +0.066 C 
ATOM     22  C   UNL     1      25.307  -1.784 -31.487  0.00  0.00    -0.064 C 
ATOM     23  N   UNL     1      26.293  -2.188 -30.389  0.00  0.00    +0.379 N 
ATOM     24  C   UNL     1      27.650  -2.254 -30.950  0.00  0.00    -0.096 C 
ATOM     25  H   UNL     1      26.017  -3.213 -30.048  0.00  0.00    -0.082 HD
ATOM     26  C   UNL     1      26.187  -1.259 -29.189  0.00  0.00    -0.064 C 
ATOM     27  C   UNL     1      24.735  -1.234 -28.634  0.00  0.00    +0.066 C 
ENDBRANCH  19  20
ENDBRANCH  18  19
ENDBRANCH  14  15
ENDBRANCH  12  13
TORSDOF 6
ENDMDL
MODEL 3
REMARK VINA RESULT:      -7.8     22.206     25.610
REMARK  Name = C:\Users\Docking\Desktop\test protocol\1iep_ligandH.pdb
REMARK  8 active torsions:
REMARK  status: ('A' for Active; 'I' for Inactive)
REMARK    1  A    between atoms: _5  and  _11
REMARK    2  A    between atoms: _19  and  _21
REMARK    3  A    between atoms: _22  and  _66
REMARK    4  A    between atoms: _27  and  _30
REMARK    5  A    between atoms: _32  and  _33
REMARK    6  A    between atoms: _38  and  _43
REMARK    7  A    between atoms: _43  and  _46
REMARK    8  A    between atoms: _53  and  _55
REMARK                            x       y       z     vdW  Elec       q    Type
REMARK                         _______ _______ _______ _____ _____    ______ ____
ROOT
ATOM     10  C   UNL     1       4.239   4.599  -6.890  0.00  0.00    +0.038 A 
ATOM     11  C   UNL     1       3.774   4.021  -8.099  0.00  0.00    +0.047 A 
ATOM     12  C   UNL     1       3.303   4.851  -9.197  0.00  0.00    +0.035 A 
ATOM     32  C   UNL     1       3.322   6.266  -9.030  0.00  0.00    +0.024 A 
ATOM     33  C   UNL     1       3.791   6.870  -7.807  0.00  0.00    +0.007 A 
ATOM     34  C   UNL     1       4.254   6.057  -6.720  0.00  0.00    -0.029 A 
ATOM     35  C   UNL     1       4.740   6.758  -5.430  0.00  0.00    +0.045 C 
ENDROOT
BRANCH  10   9
ATOM      4  C   UNL     1       3.558   2.211  -2.782  0.00  0.00    +0.077 A 
ATOM      5  C   UNL     1       2.219   2.708  -2.646  0.00  0.00    +0.048 A 
ATOM      6  C   UNL     1       1.747   3.582  -3.651  0.00  0.00    +0.116 A 
ATOM      7  N   UNL     1       2.560   3.925  -4.709  0.00  0.00    -0.223 NA
ATOM      8  C   UNL     1       3.847   3.429  -4.809  0.00  0.00    +0.220 A 
ATOM      9  N   UNL     1       4.680   3.754  -5.868  0.00  0.00    -0.283 N 
ATOM     36  H   UNL     1       5.625   3.373  -5.902  0.00  0.00    +0.155 HD
ATOM     37  N   UNL     1       4.322   2.594  -3.861  0.00  0.00    -0.214 NA
BRANCH   4   3
ATOM      1  C   UNL     1       4.251  -0.850  -0.447  0.00  0.00    +0.020 A 
ATOM      2  C   UNL     1       3.590   0.017  -1.395  0.00  0.00    +0.013 A 
ATOM      3  C   UNL     1       4.199   1.276  -1.804  0.00  0.00    +0.019 A 
ATOM     38  C   UNL     1       5.489   1.631  -1.231  0.00  0.00    +0.120 A 
ATOM     39  N   UNL     1       6.101   0.777  -0.319  0.00  0.00    -0.263 NA
ATOM     40  C   UNL     1       5.524  -0.436   0.083  0.00  0.00    +0.111 A 
ENDBRANCH   4   3
ENDBRANCH  10   9
BRANCH  12  13
ATOM     13  N   UNL     1       2.812   4.321 -10.444  0.00  0.00    -0.281 N 
ATOM     14  C   UNL     1       1.499   4.251 -10.882  0.00  0.00    +0.248 C 
ATOM     30  O   UNL     1       0.523   4.440 -10.172  0.00  0.00    -0.270 OA
ATOM     31  H   UNL     1       3.517   3.953 -11.082  0.00  0.00    +0.155 HD
BRANCH  14  15
ATOM     15  C   UNL     1       1.232   3.906 -12.312  0.00  0.00    +0.037 A 
ATOM     16  C   UNL     1      -0.122   3.601 -12.780  0.00  0.00    +0.013 A 
ATOM     17  C   UNL     1      -0.349   3.256 -14.161  0.00  0.00    +0.005 A 
ATOM     18  C   UNL     1       0.782   3.215 -15.084  0.00  0.00    -0.033 A 
ATOM     28  C   UNL     1       2.114   3.527 -14.594  0.00  0.00    +0.005 A 
ATOM     29  C   UNL     1       2.341   3.865 -13.241  0.00  0.00    +0.013 A 
BRANCH  18  19
ATOM     19  C   UNL     1       0.635   2.836 -16.570  0.00  0.00    +0.119 C 
BRANCH  19  20
ATOM     20  N   UNL     1       0.061   3.866 -17.485  0.00  0.00    -0.302 NA
ATOM     21  C   UNL     1       0.021   3.385 -18.938  0.00  0.00    +0.066 C 
ATOM     22  C   UNL     1      -0.604   4.467 -19.879  0.00  0.00    -0.064 C 
ATOM     23  N   UNL     1       0.195   5.766 -19.759  0.00  0.00    +0.379 N 
ATOM     24  C   UNL     1      -0.354   6.767 -20.685  0.00  0.00    -0.096 C 
ATOM     25  H   UNL     1       1.241   5.549 -20.077  0.00  0.00    -0.082 HD
ATOM     26  C   UNL     1       0.242   6.249 -18.317  0.00  0.00    -0.064 C 
ATOM     27  C   UNL     1       0.837   5.156 -17.386  0.00  0.00    +0.066 C 
ENDBRANCH  19  20
ENDBRANCH  18  19
ENDBRANCH  14  15
ENDBRANCH  12  13
TORSDOF 6
ENDMDL
MODEL 4
REMARK VINA RESULT:      -7.7     22.371     24.693
REMARK  Name = C:\Users\Docking\Desktop\test protocol\1iep_ligandH.pdb
REMARK  8 active torsions:
REMARK  status: ('A' for Active; 'I' for Inactive)
REMARK    1  A    between atoms: _5  and  _11
REMARK    2  A    between atoms: _19  and  _21
REMARK    3  A    between atoms: _22  and  _66
REMARK    4  A    between atoms: _27  and  _30
REMARK    5  A    between atoms: _32  and  _33
REMARK    6  A    between atoms: _38  and  _43
REMARK    7  A    between atoms: _43  and  _46
REMARK    8  A    between atoms: _53  and  _55
REMARK                            x       y       z     vdW  Elec       q    Type
REMARK                         _______ _______ _______ _____ _____    ______ ____
ROOT
ATOM     10  C   UNL     1       0.048   5.249 -18.634  0.00  0.00    +0.038 A 
ATOM     11  C   UNL     1       0.353   5.342 -17.252  0.00  0.00    +0.047 A 
ATOM     12  C   UNL     1       0.477   4.150 -16.427  0.00  0.00    +0.035 A 
ATOM     32  C   UNL     1       0.286   2.879 -17.044  0.00  0.00    +0.024 A 
ATOM     33  C   UNL     1      -0.026   2.767 -18.447  0.00  0.00    +0.007 A 
ATOM     34  C   UNL     1      -0.151   3.939 -19.265  0.00  0.00    -0.029 A 
ATOM     35  C   UNL     1      -0.493   3.759 -20.762  0.00  0.00    +0.045 C 
ENDROOT
BRANCH  10   9
ATOM      4  C   UNL     1      -2.432   9.032 -20.240  0.00  0.00    +0.077 A 
ATOM      5  C   UNL     1      -3.624   8.614 -19.561  0.00  0.00    +0.048 A 
ATOM      6  C   UNL     1      -3.559   7.416 -18.814  0.00  0.00    +0.116 A 
ATOM      7  N   UNL     1      -2.384   6.698 -18.758  0.00  0.00    -0.223 NA
ATOM      8  C   UNL     1      -1.253   7.128 -19.427  0.00  0.00    +0.220 A 
ATOM      9  N   UNL     1      -0.058   6.426 -19.378  0.00  0.00    -0.283 N 
ATOM     36  H   UNL     1       0.752   6.773 -19.892  0.00  0.00    +0.155 HD
ATOM     37  N   UNL     1      -1.289   8.268 -20.148  0.00  0.00    -0.214 NA
BRANCH   4   3
ATOM      1  C   UNL     1      -1.919  12.748 -21.348  0.00  0.00    +0.020 A 
ATOM      2  C   UNL     1      -1.993  11.576 -20.506  0.00  0.00    +0.013 A 
ATOM      3  C   UNL     1      -2.341  10.277 -21.067  0.00  0.00    +0.019 A 
ATOM     38  C   UNL     1      -2.609  10.196 -22.495  0.00  0.00    +0.120 A 
ATOM     39  N   UNL     1      -2.532  11.342 -23.281  0.00  0.00    -0.263 NA
ATOM     40  C   UNL     1      -2.200  12.598 -22.752  0.00  0.00    +0.111 A 
ENDBRANCH   4   3
ENDBRANCH  10   9
BRANCH  12  13
ATOM     13  N   UNL     1       0.777   4.182 -15.017  0.00  0.00    -0.281 N 
ATOM     14  C   UNL     1      -0.099   4.016 -13.956  0.00  0.00    +0.248 C 
ATOM     30  O   UNL     1      -1.317   4.028 -14.057  0.00  0.00    -0.270 OA
ATOM     31  H   UNL     1       1.753   4.347 -14.771  0.00  0.00    +0.155 HD
BRANCH  14  15
ATOM     15  C   UNL     1       0.459   3.825 -12.583  0.00  0.00    +0.037 A 
ATOM     16  C   UNL     1       1.898   3.923 -12.327  0.00  0.00    +0.013 A 
ATOM     17  C   UNL     1       2.412   3.717 -10.996  0.00  0.00    +0.005 A 
ATOM     18  C   UNL     1       1.484   3.412  -9.909  0.00  0.00    -0.033 A 
ATOM     28  C   UNL     1       0.060   3.326 -10.190  0.00  0.00    +0.005 A 
ATOM     29  C   UNL     1      -0.447   3.527 -11.494  0.00  0.00    +0.013 A 
BRANCH  18  19
ATOM     19  C   UNL     1       1.945   3.157  -8.462  0.00  0.00    +0.119 C 
BRANCH  19  20
ATOM     20  N   UNL     1       3.229   3.786  -8.033  0.00  0.00    -0.302 NA
ATOM     21  C   UNL     1       3.745   3.199  -6.716  0.00  0.00    +0.066 C 
ATOM     22  C   UNL     1       5.101   3.853  -6.293  0.00  0.00    -0.064 C 
ATOM     23  N   UNL     1       4.919   5.367  -6.176  0.00  0.00    +0.379 N 
ATOM     24  C   UNL     1       6.176   5.979  -5.723  0.00  0.00    -0.096 C 
ATOM     25  H   UNL     1       4.149   5.556  -5.392  0.00  0.00    -0.082 HD
ATOM     26  C   UNL     1       4.404   5.959  -7.481  0.00  0.00    -0.064 C 
ATOM     27  C   UNL     1       3.071   5.282  -7.907  0.00  0.00    +0.066 C 
ENDBRANCH  19  20
ENDBRANCH  18  19
ENDBRANCH  14  15
ENDBRANCH  12  13
TORSDOF 6
ENDMDL
MODEL 5
REMARK VINA RESULT:      -7.7     14.221     16.807
REMARK  Name = C:\Users\Docking\Desktop\test protocol\1iep_ligandH.pdb
REMARK  8 active torsions:
REMARK  status: ('A' for Active; 'I' for Inactive)
REMARK    1  A    between atoms: _5  and  _11
REMARK    2  A    between atoms: _19  and  _21
REMARK    3  A    between atoms: _22  and  _66
REMARK    4  A    between atoms: _27  and  _30
REMARK    5  A    between atoms: _32  and  _33
REMARK    6  A    between atoms: _38  and  _43
REMARK    7  A    between atoms: _43  and  _46
REMARK    8  A    between atoms: _53  and  _55
REMARK                            x       y       z     vdW  Elec       q    Type
REMARK                         _______ _______ _______ _____ _____    ______ ____
ROOT
ATOM     10  C   UNL     1      16.473  12.057  -9.317  0.00  0.00    +0.038 A 
ATOM     11  C   UNL     1      17.213  10.922  -9.740  0.00  0.00    +0.047 A 
ATOM     12  C   UNL     1      18.629  10.792  -9.436  0.00  0.00    +0.035 A 
ATOM     32  C   UNL     1      19.261  11.835  -8.697  0.00  0.00    +0.024 A 
ATOM     33  C   UNL     1      18.525  12.995  -8.261  0.00  0.00    +0.007 A 
ATOM     34  C   UNL     1      17.128  13.130  -8.560  0.00  0.00    -0.029 A 
ATOM     35  C   UNL     1      16.390  14.399  -8.073  0.00  0.00    +0.045 C 
ENDROOT
BRANCH  10   9
ATOM      4  C   UNL     1      11.858  11.077  -8.433  0.00  0.00    +0.077 A 
ATOM      5  C   UNL     1      12.182  10.332  -7.250  0.00  0.00    +0.048 A 
ATOM      6  C   UNL     1      13.548  10.219  -6.908  0.00  0.00    +0.116 A 
ATOM      7  N   UNL     1      14.511  10.811  -7.697  0.00  0.00    -0.223 NA
ATOM      8  C   UNL     1      14.165  11.520  -8.833  0.00  0.00    +0.220 A 
ATOM      9  N   UNL     1      15.115  12.130  -9.636  0.00  0.00    -0.283 N 
ATOM     36  H   UNL     1      14.820  12.638 -10.470  0.00  0.00    +0.155 HD
ATOM     37  N   UNL     1      12.867  11.642  -9.182  0.00  0.00    -0.214 NA
BRANCH   4   3
ATOM      1  C   UNL     1       8.163  10.458  -9.557  0.00  0.00    +0.020 A 
ATOM      2  C   UNL     1       9.502  10.200  -9.080  0.00  0.00    +0.013 A 
ATOM      3  C   UNL     1      10.460  11.288  -8.924  0.00  0.00    +0.019 A 
ATOM     38  C   UNL     1      10.028  12.635  -9.263  0.00  0.00    +0.120 A 
ATOM     39  N   UNL     1       8.732  12.853  -9.722  0.00  0.00    -0.263 NA
ATOM     40  C   UNL     1       7.803  11.814  -9.877  0.00  0.00    +0.111 A 
ENDBRANCH   4   3
ENDBRANCH  10   9
BRANCH  12  13
ATOM     13  N   UNL     1      19.433   9.667  -9.846  0.00  0.00    -0.281 N 
ATOM     14  C   UNL     1      19.567   8.441  -9.215  0.00  0.00    +0.248 C 
ATOM     30  O   UNL     1      19.178   8.201  -8.082  0.00  0.00    -0.270 OA
ATOM     31  H   UNL     1      19.969   9.790 -10.705  0.00  0.00    +0.155 HD
BRANCH  14  15
ATOM     15  C   UNL     1      20.243   7.324  -9.943  0.00  0.00    +0.037 A 
ATOM     16  C   UNL     1      19.963   5.924  -9.616  0.00  0.00    +0.013 A 
ATOM     17  C   UNL     1      20.641   4.866 -10.322  0.00  0.00    +0.005 A 
ATOM     18  C   UNL     1      21.606   5.206 -11.365  0.00  0.00    -0.033 A 
ATOM     28  C   UNL     1      21.861   6.603 -11.673  0.00  0.00    +0.005 A 
ATOM     29  C   UNL     1      21.199   7.643 -10.982  0.00  0.00    +0.013 A 
BRANCH  18  19
ATOM     19  C   UNL     1      22.392   4.143 -12.155  0.00  0.00    +0.119 C 
BRANCH  19  20
ATOM     20  N   UNL     1      23.850   4.389 -12.368  0.00  0.00    -0.302 NA
ATOM     21  C   UNL     1      24.188   4.592 -13.848  0.00  0.00    +0.066 C 
ATOM     22  C   UNL     1      25.713   4.870 -14.050  0.00  0.00    -0.064 C 
ATOM     23  N   UNL     1      26.522   3.712 -13.464  0.00  0.00    +0.379 N 
ATOM     24  C   UNL     1      27.954   3.942 -13.704  0.00  0.00    -0.096 C 
ATOM     25  H   UNL     1      26.232   2.786 -14.013  0.00  0.00    -0.082 HD
ATOM     26  C   UNL     1      26.190   3.500 -11.994  0.00  0.00    -0.064 C 
ATOM     27  C   UNL     1      24.667   3.254 -11.801  0.00  0.00    +0.066 C 
ENDBRANCH  19  20
ENDBRANCH  18  19
ENDBRANCH  14  15
ENDBRANCH  12  13
TORSDOF 6
ENDMDL
