MODEL 1
REMARK VINA RESULT:      -8.4      0.000      0.000
REMARK  Name = C:\Users\Docking\Desktop\test protocol\1iep_ligandH.pdb
REMARK  8 active torsions:
REMARK  status: ('A' for Active; 'I' for Inactive)
REMARK    1  A    between atoms: _5  and  _11
REMARK    2  A    between atoms: _19  and  _21
REMARK    3  A    between atoms: _22  and  _66
REMARK    4  A    between atoms: _27  and  _30
REMARK    5  A    between atoms: _32  and  _33
REMARK    6  A    between atoms: _38  and  _43
REMARK    7  A    between atoms: _43  and  _46
REMARK    8  A    between atoms: _53  and  _55
REMARK                            x       y       z     vdW  Elec       q    Type
REMARK                         _______ _______ _______ _____ _____    ______ ____
ROOT
ATOM     10  C   UNL     1     -39.091  21.194   8.390  0.00  0.00    +0.038 A 
ATOM     11  C   UNL     1     -37.712  21.412   8.139  0.00  0.00    +0.047 A 
ATOM     12  C   UNL     1     -37.237  21.779   6.814  0.00  0.00    +0.035 A 
ATOM     32  C   UNL     1     -38.195  21.919   5.768  0.00  0.00    +0.024 A 
ATOM     33  C   UNL     1     -39.600  21.701   6.005  0.00  0.00    +0.007 A 
ATOM     34  C   UNL     1     -40.074  21.336   7.309  0.00  0.00    -0.029 A 
ATOM     35  C   UNL     1     -41.592  21.108   7.504  0.00  0.00    +0.045 C 
ENDROOT
BRANCH  10   9
ATOM      4  C   UNL     1     -38.472  18.821  12.516  0.00  0.00    +0.077 A 
ATOM      5  C   UNL     1     -37.262  18.208  12.050  0.00  0.00    +0.048 A 
ATOM      6  C   UNL     1     -36.837  18.523  10.740  0.00  0.00    +0.116 A 
ATOM      7  N   UNL     1     -37.575  19.390   9.963  0.00  0.00    -0.223 NA
ATOM      8  C   UNL     1     -38.738  19.963  10.442  0.00  0.00    +0.220 A 
ATOM      9  N   UNL     1     -39.492  20.844   9.681  0.00  0.00    -0.283 N 
ATOM     36  H   UNL     1     -40.348  21.240  10.068  0.00  0.00    +0.155 HD
ATOM     37  N   UNL     1     -39.166  19.677  11.689  0.00  0.00    -0.214 NA
BRANCH   4   3
ATOM      1  C   UNL     1     -39.887  19.393  16.118  0.00  0.00    +0.020 A 
ATOM      2  C   UNL     1     -39.329  19.671  14.814  0.00  0.00    +0.013 A 
ATOM      3  C   UNL     1     -39.049  18.590  13.878  0.00  0.00    +0.019 A 
ATOM     38  C   UNL     1     -39.347  17.228  14.295  0.00  0.00    +0.120 A 
ATOM     39  N   UNL     1     -39.882  16.991  15.557  0.00  0.00    -0.263 NA
ATOM     40  C   UNL     1     -40.155  18.023  16.467  0.00  0.00    +0.111 A 
ENDBRANCH   4   3
ENDBRANCH  10   9
BRANCH  12  13
ATOM     13  N   UNL     1     -35.849  22.005   6.498  0.00  0.00    -0.281 N 
ATOM     14  C   UNL     1     -35.044  23.058   6.900  0.00  0.00    +0.248 C 
ATOM     30  O   UNL     1     -35.457  24.084   7.420  0.00  0.00    -0.270 OA
ATOM     31  H   UNL     1     -35.405  21.302   5.906  0.00  0.00    +0.155 HD
BRANCH  14  15
ATOM     15  C   UNL     1     -33.569  22.966   6.678  0.00  0.00    +0.037 A 
ATOM     16  C   UNL     1     -32.634  23.814   7.422  0.00  0.00    +0.013 A 
ATOM     17  C   UNL     1     -31.217  23.716   7.177  0.00  0.00    +0.005 A 
ATOM     18  C   UNL     1     -30.726  22.764   6.183  0.00  0.00    -0.033 A 
ATOM     28  C   UNL     1     -31.675  21.930   5.464  0.00  0.00    +0.005 A 
ATOM     29  C   UNL     1     -33.065  22.024   5.701  0.00  0.00    +0.013 A 
BRANCH  18  19
ATOM     19  C   UNL     1     -29.232  22.607   5.842  0.00  0.00    +0.119 C 
BRANCH  19  20
ATOM     20  N   UNL     1     -28.795  23.028   4.478  0.00  0.00    -0.302 NA
ATOM     21  C   UNL     1     -27.515  22.311   4.037  0.00  0.00    +0.066 C 
ATOM     22  C   UNL     1     -27.085  22.747   2.599  0.00  0.00    -0.064 C 
ATOM     23  N   UNL     1     -26.894  24.264   2.565  0.00  0.00    +0.379 N 
ATOM     24  C   UNL     1     -26.433  24.671   1.229  0.00  0.00    -0.096 C 
ATOM     25  H   UNL     1     -26.090  24.520   3.293  0.00  0.00    -0.082 HD
ATOM     26  C   UNL     1     -28.160  24.986   3.004  0.00  0.00    -0.064 C 
ATOM     27  C   UNL     1     -28.596  24.523   4.422  0.00  0.00    +0.066 C 
ENDBRANCH  19  20
ENDBRANCH  18  19
ENDBRANCH  14  15
ENDBRANCH  12  13
TORSDOF 6
ENDMDL
MODEL 2
REMARK VINA RESULT:      -8.1      2.123     12.656
REMARK  Name = C:\Users\Docking\Desktop\test protocol\1iep_ligandH.pdb
REMARK  8 active torsions:
REMARK  status: ('A' for Active; 'I' for Inactive)
REMARK    1  A    between atoms: _5  and  _11
REMARK    2  A    between atoms: _19  and  _21
REMARK    3  A    between atoms: _22  and  _66
REMARK    4  A    between atoms: _27  and  _30
REMARK    5  A    between atoms: _32  and  _33
REMARK    6  A    between atoms: _38  and  _43
REMARK    7  A    between atoms: _43  and  _46
REMARK    8  A    between atoms: _53  and  _55
REMARK                            x       y       z     vdW  Elec       q    Type
REMARK                         _______ _______ _______ _____ _____    ______ ____
ROOT
ATOM     10  C   UNL     1     -35.532  23.014   5.628  0.00  0.00    +0.038 A 
ATOM     11  C   UNL     1     -35.815  21.999   6.578  0.00  0.00    +0.047 A 
ATOM     12  C   UNL     1     -36.965  22.096   7.463  0.00  0.00    +0.035 A 
ATOM     32  C   UNL     1     -37.808  23.240   7.352  0.00  0.00    +0.024 A 
ATOM     33  C   UNL     1     -37.536  24.281   6.393  0.00  0.00    +0.007 A 
ATOM     34  C   UNL     1     -36.401  24.192   5.519  0.00  0.00    -0.029 A 
ATOM     35  C   UNL     1     -36.153  25.341   4.514  0.00  0.00    +0.045 C 
ENDROOT
BRANCH  10   9
ATOM      4  C   UNL     1     -30.789  22.983   4.895  0.00  0.00    +0.077 A 
ATOM      5  C   UNL     1     -30.515  23.308   6.265  0.00  0.00    +0.048 A 
ATOM      6  C   UNL     1     -31.623  23.482   7.124  0.00  0.00    +0.116 A 
ATOM      7  N   UNL     1     -32.905  23.339   6.639  0.00  0.00    -0.223 NA
ATOM      8  C   UNL     1     -33.134  23.026   5.311  0.00  0.00    +0.220 A 
ATOM      9  N   UNL     1     -34.414  22.870   4.803  0.00  0.00    -0.283 N 
ATOM     36  H   UNL     1     -34.541  22.646   3.817  0.00  0.00    +0.155 HD
ATOM     37  N   UNL     1     -32.093  22.857   4.470  0.00  0.00    -0.214 NA
BRANCH   4   3
ATOM      1  C   UNL     1     -27.351  22.256   3.175  0.00  0.00    +0.020 A 
ATOM      2  C   UNL     1     -28.341  22.458   4.208  0.00  0.00    +0.013 A 
ATOM      3  C   UNL     1     -29.724  22.765   3.865  0.00  0.00    +0.019 A 
ATOM     38  C   UNL     1     -30.076  22.860   2.456  0.00  0.00    +0.120 A 
ATOM     39  N   UNL     1     -29.101  22.662   1.483  0.00  0.00    -0.263 NA
ATOM     40  C   UNL     1     -27.766  22.368   1.802  0.00  0.00    +0.111 A 
ENDBRANCH   4   3
ENDBRANCH  10   9
BRANCH  12  13
ATOM     13  N   UNL     1     -37.297  21.101   8.453  0.00  0.00    -0.281 N 
ATOM     14  C   UNL     1     -37.480  21.282   9.814  0.00  0.00    +0.248 C 
ATOM     30  O   UNL     1     -37.174  22.295  10.424  0.00  0.00    -0.270 OA
ATOM     31  H   UNL     1     -37.412  20.148   8.107  0.00  0.00    +0.155 HD
BRANCH  14  15
ATOM     15  C   UNL     1     -38.075  20.170  10.616  0.00  0.00    +0.037 A 
ATOM     16  C   UNL     1     -37.332  19.539  11.709  0.00  0.00    +0.013 A 
ATOM     17  C   UNL     1     -37.923  18.457  12.456  0.00  0.00    +0.005 A 
ATOM     18  C   UNL     1     -39.267  18.000  12.112  0.00  0.00    -0.033 A 
ATOM     28  C   UNL     1     -39.985  18.648  11.026  0.00  0.00    +0.005 A 
ATOM     29  C   UNL     1     -39.408  19.708  10.292  0.00  0.00    +0.013 A 
BRANCH  18  19
ATOM     19  C   UNL     1     -39.968  16.839  12.842  0.00  0.00    +0.119 C 
BRANCH  19  20
ATOM     20  N   UNL     1     -39.678  16.671  14.297  0.00  0.00    -0.302 NA
ATOM     21  C   UNL     1     -39.469  15.202  14.675  0.00  0.00    +0.066 C 
ATOM     22  C   UNL     1     -39.144  15.046  16.197  0.00  0.00    -0.064 C 
ATOM     23  N   UNL     1     -40.275  15.663  17.022  0.00  0.00    +0.379 N 
ATOM     24  C   UNL     1     -40.001  15.467  18.453  0.00  0.00    -0.096 C 
ATOM     25  H   UNL     1     -41.212  15.110  16.778  0.00  0.00    -0.082 HD
ATOM     26  C   UNL     1     -40.491  17.123  16.650  0.00  0.00    -0.064 C 
ATOM     27  C   UNL     1     -40.784  17.269  15.131  0.00  0.00    +0.066 C 
ENDBRANCH  19  20
ENDBRANCH  18  19
ENDBRANCH  14  15
ENDBRANCH  12  13
TORSDOF 6
ENDMDL
MODEL 3
REMARK VINA RESULT:      -7.9      2.200     12.523
REMARK  Name = C:\Users\Docking\Desktop\test protocol\1iep_ligandH.pdb
REMARK  8 active torsions:
REMARK  status: ('A' for Active; 'I' for Inactive)
REMARK    1  A    between atoms: _5  and  _11
REMARK    2  A    between atoms: _19  and  _21
REMARK    3  A    between atoms: _22  and  _66
REMARK    4  A    between atoms: _27  and  _30
REMARK    5  A    between atoms: _32  and  _33
REMARK    6  A    between atoms: _38  and  _43
REMARK    7  A    between atoms: _43  and  _46
REMARK    8  A    between atoms: _53  and  _55
REMARK                            x       y       z     vdW  Elec       q    Type
REMARK                         _______ _______ _______ _____ _____    ______ ____
ROOT
ATOM     10  C   UNL     1     -35.910  22.751   5.918  0.00  0.00    +0.038 A 
ATOM     11  C   UNL     1     -36.078  21.942   7.071  0.00  0.00    +0.047 A 
ATOM     12  C   UNL     1     -37.259  22.065   7.911  0.00  0.00    +0.035 A 
ATOM     32  C   UNL     1     -38.251  23.021   7.546  0.00  0.00    +0.024 A 
ATOM     33  C   UNL     1     -38.095  23.853   6.379  0.00  0.00    +0.007 A 
ATOM     34  C   UNL     1     -36.931  23.738   5.548  0.00  0.00    -0.029 A 
ATOM     35  C   UNL     1     -36.815  24.660   4.312  0.00  0.00    +0.045 C 
ENDROOT
BRANCH  10   9
ATOM      4  C   UNL     1     -31.168  23.118   5.269  0.00  0.00    +0.077 A 
ATOM      5  C   UNL     1     -30.976  23.703   6.565  0.00  0.00    +0.048 A 
ATOM      6  C   UNL     1     -32.125  23.899   7.365  0.00  0.00    +0.116 A 
ATOM      7  N   UNL     1     -33.367  23.533   6.894  0.00  0.00    -0.223 NA
ATOM      8  C   UNL     1     -33.517  22.973   5.638  0.00  0.00    +0.220 A 
ATOM      9  N   UNL     1     -34.756  22.591   5.148  0.00  0.00    -0.283 N 
ATOM     36  H   UNL     1     -34.826  22.188   4.213  0.00  0.00    +0.155 HD
ATOM     37  N   UNL     1     -32.436  22.777   4.855  0.00  0.00    -0.214 NA
BRANCH   4   3
ATOM      1  C   UNL     1     -27.641  22.335   3.769  0.00  0.00    +0.020 A 
ATOM      2  C   UNL     1     -28.682  22.595   4.737  0.00  0.00    +0.013 A 
ATOM      3  C   UNL     1     -30.053  22.844   4.309  0.00  0.00    +0.019 A 
ATOM     38  C   UNL     1     -30.339  22.823   2.883  0.00  0.00    +0.120 A 
ATOM     39  N   UNL     1     -29.317  22.572   1.973  0.00  0.00    -0.263 NA
ATOM     40  C   UNL     1     -27.994  22.332   2.374  0.00  0.00    +0.111 A 
ENDBRANCH   4   3
ENDBRANCH  10   9
BRANCH  12  13
ATOM     13  N   UNL     1     -37.481  21.276   9.097  0.00  0.00    -0.281 N 
ATOM     14  C   UNL     1     -37.383  21.679  10.419  0.00  0.00    +0.248 C 
ATOM     30  O   UNL     1     -36.879  22.731  10.785  0.00  0.00    -0.270 OA
ATOM     31  H   UNL     1     -37.741  20.302   8.944  0.00  0.00    +0.155 HD
BRANCH  14  15
ATOM     15  C   UNL     1     -37.908  20.778  11.490  0.00  0.00    +0.037 A 
ATOM     16  C   UNL     1     -37.404  19.412  11.648  0.00  0.00    +0.013 A 
ATOM     17  C   UNL     1     -37.940  18.558  12.678  0.00  0.00    +0.005 A 
ATOM     18  C   UNL     1     -38.986  19.070  13.560  0.00  0.00    -0.033 A 
ATOM     28  C   UNL     1     -39.464  20.431  13.384  0.00  0.00    +0.005 A 
ATOM     29  C   UNL     1     -38.942  21.270  12.375  0.00  0.00    +0.013 A 
BRANCH  18  19
ATOM     19  C   UNL     1     -39.630  18.222  14.673  0.00  0.00    +0.119 C 
BRANCH  19  20
ATOM     20  N   UNL     1     -39.956  16.801  14.348  0.00  0.00    -0.302 NA
ATOM     21  C   UNL     1     -41.462  16.579  14.185  0.00  0.00    +0.066 C 
ATOM     22  C   UNL     1     -41.782  15.092  13.824  0.00  0.00    -0.064 C 
ATOM     23  N   UNL     1     -41.214  14.173  14.906  0.00  0.00    +0.379 N 
ATOM     24  C   UNL     1     -41.563  12.779  14.599  0.00  0.00    -0.096 C 
ATOM     25  H   UNL     1     -41.706  14.441  15.870  0.00  0.00    -0.082 HD
ATOM     26  C   UNL     1     -39.717  14.389  15.077  0.00  0.00    -0.064 C 
ATOM     27  C   UNL     1     -39.407  15.876  15.407  0.00  0.00    +0.066 C 
ENDBRANCH  19  20
ENDBRANCH  18  19
ENDBRANCH  14  15
ENDBRANCH  12  13
TORSDOF 6
ENDMDL
MODEL 4
REMARK VINA RESULT:      -7.8      2.164     12.674
REMARK  Name = C:\Users\Docking\Desktop\test protocol\1iep_ligandH.pdb
REMARK  8 active torsions:
REMARK  status: ('A' for Active; 'I' for Inactive)
REMARK    1  A    between atoms: _5  and  _11
REMARK    2  A    between atoms: _19  and  _21
REMARK    3  A    between atoms: _22  and  _66
REMARK    4  A    between atoms: _27  and  _30
REMARK    5  A    between atoms: _32  and  _33
REMARK    6  A    between atoms: _38  and  _43
REMARK    7  A    between atoms: _43  and  _46
REMARK    8  A    between atoms: _53  and  _55
REMARK                            x       y       z     vdW  Elec       q    Type
REMARK                         _______ _______ _______ _____ _____    ______ ____
ROOT
ATOM     10  C   UNL     1     -36.651  22.276   6.690  0.00  0.00    +0.038 A 
ATOM     11  C   UNL     1     -36.797  21.459   7.840  0.00  0.00    +0.047 A 
ATOM     12  C   UNL     1     -37.992  21.530   8.667  0.00  0.00    +0.035 A 
ATOM     32  C   UNL     1     -39.020  22.444   8.291  0.00  0.00    +0.024 A 
ATOM     33  C   UNL     1     -38.887  23.283   7.126  0.00  0.00    +0.007 A 
ATOM     34  C   UNL     1     -37.710  23.219   6.308  0.00  0.00    -0.029 A 
ATOM     35  C   UNL     1     -37.619  24.146   5.074  0.00  0.00    +0.045 C 
ENDROOT
BRANCH  10   9
ATOM      4  C   UNL     1     -32.049  23.335   5.828  0.00  0.00    +0.077 A 
ATOM      5  C   UNL     1     -31.974  24.201   6.969  0.00  0.00    +0.048 A 
ATOM      6  C   UNL     1     -33.143  24.353   7.748  0.00  0.00    +0.116 A 
ATOM      7  N   UNL     1     -34.296  23.683   7.402  0.00  0.00    -0.223 NA
ATOM      8  C   UNL     1     -34.336  22.856   6.294  0.00  0.00    +0.220 A 
ATOM      9  N   UNL     1     -35.483  22.167   5.932  0.00  0.00    -0.283 N 
ATOM     36  H   UNL     1     -35.474  21.572   5.103  0.00  0.00    +0.155 HD
ATOM     37  N   UNL     1     -33.233  22.696   5.533  0.00  0.00    -0.214 NA
BRANCH   4   3
ATOM      1  C   UNL     1     -28.464  22.583   4.458  0.00  0.00    +0.020 A 
ATOM      2  C   UNL     1     -29.541  22.835   5.387  0.00  0.00    +0.013 A 
ATOM      3  C   UNL     1     -30.897  23.070   4.909  0.00  0.00    +0.019 A 
ATOM     38  C   UNL     1     -31.132  23.044   3.473  0.00  0.00    +0.120 A 
ATOM     39  N   UNL     1     -30.075  22.800   2.602  0.00  0.00    -0.263 NA
ATOM     40  C   UNL     1     -28.765  22.574   3.051  0.00  0.00    +0.111 A 
ENDBRANCH   4   3
ENDBRANCH  10   9
BRANCH  12  13
ATOM     13  N   UNL     1     -38.193  20.731   9.850  0.00  0.00    -0.281 N 
ATOM     14  C   UNL     1     -37.719  20.971  11.130  0.00  0.00    +0.248 C 
ATOM     30  O   UNL     1     -36.868  21.802  11.407  0.00  0.00    -0.270 OA
ATOM     31  H   UNL     1     -38.751  19.887   9.729  0.00  0.00    +0.155 HD
BRANCH  14  15
ATOM     15  C   UNL     1     -38.260  20.160  12.263  0.00  0.00    +0.037 A 
ATOM     16  C   UNL     1     -38.137  18.700  12.279  0.00  0.00    +0.013 A 
ATOM     17  C   UNL     1     -38.682  17.941  13.376  0.00  0.00    +0.005 A 
ATOM     18  C   UNL     1     -39.355  18.641  14.468  0.00  0.00    -0.033 A 
ATOM     28  C   UNL     1     -39.458  20.090  14.429  0.00  0.00    +0.005 A 
ATOM     29  C   UNL     1     -38.926  20.838  13.355  0.00  0.00    +0.013 A 
BRANCH  18  19
ATOM     19  C   UNL     1     -39.984  17.910  15.668  0.00  0.00    +0.119 C 
BRANCH  19  20
ATOM     20  N   UNL     1     -39.972  16.417  15.642  0.00  0.00    -0.302 NA
ATOM     21  C   UNL     1     -41.378  15.833  15.476  0.00  0.00    +0.066 C 
ATOM     22  C   UNL     1     -41.345  14.271  15.428  0.00  0.00    -0.064 C 
ATOM     23  N   UNL     1     -40.685  13.739  16.702  0.00  0.00    +0.379 N 
ATOM     24  C   UNL     1     -40.704  12.269  16.686  0.00  0.00    -0.096 C 
ATOM     25  H   UNL     1     -41.300  14.076  17.568  0.00  0.00    -0.082 HD
ATOM     26  C   UNL     1     -39.287  14.316  16.876  0.00  0.00    -0.064 C 
ATOM     27  C   UNL     1     -39.329  15.870  16.893  0.00  0.00    +0.066 C 
ENDBRANCH  19  20
ENDBRANCH  18  19
ENDBRANCH  14  15
ENDBRANCH  12  13
TORSDOF 6
ENDMDL
MODEL 5
REMARK VINA RESULT:      -7.7      2.447     12.581
REMARK  Name = C:\Users\Docking\Desktop\test protocol\1iep_ligandH.pdb
REMARK  8 active torsions:
REMARK  status: ('A' for Active; 'I' for Inactive)
REMARK    1  A    between atoms: _5  and  _11
REMARK    2  A    between atoms: _19  and  _21
REMARK    3  A    between atoms: _22  and  _66
REMARK    4  A    between atoms: _27  and  _30
REMARK    5  A    between atoms: _32  and  _33
REMARK    6  A    between atoms: _38  and  _43
REMARK    7  A    between atoms: _43  and  _46
REMARK    8  A    between atoms: _53  and  _55
REMARK                            x       y       z     vdW  Elec       q    Type
REMARK                         _______ _______ _______ _____ _____    ______ ____
ROOT
ATOM     10  C   UNL     1     -34.590  24.767   6.858  0.00  0.00    +0.038 A 
ATOM     11  C   UNL     1     -35.092  23.736   7.691  0.00  0.00    +0.047 A 
ATOM     12  C   UNL     1     -36.031  24.025   8.764  0.00  0.00    +0.035 A 
ATOM     32  C   UNL     1     -36.439  25.377   8.958  0.00  0.00    +0.024 A 
ATOM     33  C   UNL     1     -35.937  26.438   8.121  0.00  0.00    +0.007 A 
ATOM     34  C   UNL     1     -35.009  26.159   7.063  0.00  0.00    -0.029 A 
ATOM     35  C   UNL     1     -34.499  27.337   6.201  0.00  0.00    +0.045 C 
ENDROOT
BRANCH  10   9
ATOM      4  C   UNL     1     -30.347  23.119   5.336  0.00  0.00    +0.077 A 
ATOM      5  C   UNL     1     -29.871  22.933   6.676  0.00  0.00    +0.048 A 
ATOM      6  C   UNL     1     -30.747  23.281   7.729  0.00  0.00    +0.116 A 
ATOM      7  N   UNL     1     -32.002  23.776   7.451  0.00  0.00    -0.223 NA
ATOM      8  C   UNL     1     -32.429  23.944   6.146  0.00  0.00    +0.220 A 
ATOM      9  N   UNL     1     -33.690  24.433   5.843  0.00  0.00    -0.283 N 
ATOM     36  H   UNL     1     -33.965  24.550   4.868  0.00  0.00    +0.155 HD
ATOM     37  N   UNL     1     -31.611  23.621   5.123  0.00  0.00    -0.214 NA
BRANCH   4   3
ATOM      1  C   UNL     1     -27.404  22.100   2.969  0.00  0.00    +0.020 A 
ATOM      2  C   UNL     1     -28.137  22.403   4.176  0.00  0.00    +0.013 A 
ATOM      3  C   UNL     1     -29.540  22.795   4.117  0.00  0.00    +0.019 A 
ATOM     38  C   UNL     1     -30.176  22.870   2.810  0.00  0.00    +0.120 A 
ATOM     39  N   UNL     1     -29.444  22.573   1.665  0.00  0.00    -0.263 NA
ATOM     40  C   UNL     1     -28.093  22.197   1.709  0.00  0.00    +0.111 A 
ENDBRANCH   4   3
ENDBRANCH  10   9
BRANCH  12  13
ATOM     13  N   UNL     1     -36.568  23.020   9.647  0.00  0.00    -0.281 N 
ATOM     14  C   UNL     1     -37.579  22.109   9.386  0.00  0.00    +0.248 C 
ATOM     30  O   UNL     1     -38.324  22.162   8.418  0.00  0.00    -0.270 OA
ATOM     31  H   UNL     1     -36.154  22.975  10.578  0.00  0.00    +0.155 HD
BRANCH  14  15
ATOM     15  C   UNL     1     -37.803  20.985  10.345  0.00  0.00    +0.037 A 
ATOM     16  C   UNL     1     -38.076  21.238  11.762  0.00  0.00    +0.013 A 
ATOM     17  C   UNL     1     -38.272  20.135  12.669  0.00  0.00    +0.005 A 
ATOM     18  C   UNL     1     -38.198  18.768  12.161  0.00  0.00    -0.033 A 
ATOM     28  C   UNL     1     -37.931  18.545  10.749  0.00  0.00    +0.005 A 
ATOM     29  C   UNL     1     -37.737  19.624   9.857  0.00  0.00    +0.013 A 
BRANCH  18  19
ATOM     19  C   UNL     1     -38.373  17.530  13.060  0.00  0.00    +0.119 C 
BRANCH  19  20
ATOM     20  N   UNL     1     -39.626  17.444  13.869  0.00  0.00    -0.302 NA
ATOM     21  C   UNL     1     -39.484  16.478  15.048  0.00  0.00    +0.066 C 
ATOM     22  C   UNL     1     -40.796  16.417  15.895  0.00  0.00    -0.064 C 
ATOM     23  N   UNL     1     -41.963  16.006  14.996  0.00  0.00    +0.379 N 
ATOM     24  C   UNL     1     -43.187  15.892  15.801  0.00  0.00    -0.096 C 
ATOM     25  H   UNL     1     -41.732  14.995  14.585  0.00  0.00    -0.082 HD
ATOM     26  C   UNL     1     -42.109  16.960  13.819  0.00  0.00    -0.064 C 
ATOM     27  C   UNL     1     -40.790  17.035  13.000  0.00  0.00    +0.066 C 
ENDBRANCH  19  20
ENDBRANCH  18  19
ENDBRANCH  14  15
ENDBRANCH  12  13
TORSDOF 6
ENDMDL
