MODEL 1
REMARK VINA RESULT:      -7.6      0.000      0.000
REMARK  Name = C:\Users\Docking\Desktop\test protocol\1iep_ligandH.pdb
REMARK  8 active torsions:
REMARK  status: ('A' for Active; 'I' for Inactive)
REMARK    1  A    between atoms: _5  and  _11
REMARK    2  A    between atoms: _19  and  _21
REMARK    3  A    between atoms: _22  and  _66
REMARK    4  A    between atoms: _27  and  _30
REMARK    5  A    between atoms: _32  and  _33
REMARK    6  A    between atoms: _38  and  _43
REMARK    7  A    between atoms: _43  and  _46
REMARK    8  A    between atoms: _53  and  _55
REMARK                            x       y       z     vdW  Elec       q    Type
REMARK                         _______ _______ _______ _____ _____    ______ ____
ROOT
ATOM     10  C   UNL     1     -13.845 -53.902 -13.184  0.00  0.00    +0.038 A 
ATOM     11  C   UNL     1     -13.022 -52.900 -13.758  0.00  0.00    +0.047 A 
ATOM     12  C   UNL     1     -12.494 -53.040 -15.106  0.00  0.00    +0.035 A 
ATOM     32  C   UNL     1     -12.827 -54.213 -15.843  0.00  0.00    +0.024 A 
ATOM     33  C   UNL     1     -13.661 -55.243 -15.275  0.00  0.00    +0.007 A 
ATOM     34  C   UNL     1     -14.183 -55.112 -13.945  0.00  0.00    -0.029 A 
ATOM     35  C   UNL     1     -15.067 -56.250 -13.385  0.00  0.00    +0.045 C 
ENDROOT
BRANCH  10   9
ATOM      4  C   UNL     1     -17.040 -52.144 -10.064  0.00  0.00    +0.077 A 
ATOM      5  C   UNL     1     -17.804 -51.520 -11.107  0.00  0.00    +0.048 A 
ATOM      6  C   UNL     1     -17.336 -51.670 -12.432  0.00  0.00    +0.116 A 
ATOM      7  N   UNL     1     -16.190 -52.392 -12.684  0.00  0.00    -0.223 NA
ATOM      8  C   UNL     1     -15.476 -52.979 -11.655  0.00  0.00    +0.220 A 
ATOM      9  N   UNL     1     -14.325 -53.716 -11.886  0.00  0.00    -0.283 N 
ATOM     36  H   UNL     1     -13.823 -54.127 -11.099  0.00  0.00    +0.155 HD
ATOM     37  N   UNL     1     -15.901 -52.849 -10.381  0.00  0.00    -0.214 NA
BRANCH   4   3
ATOM      1  C   UNL     1     -16.827 -52.057  -6.159  0.00  0.00    +0.020 A 
ATOM      2  C   UNL     1     -16.419 -52.124  -7.544  0.00  0.00    +0.013 A 
ATOM      3  C   UNL     1     -17.407 -52.078  -8.614  0.00  0.00    +0.019 A 
ATOM     38  C   UNL     1     -18.811 -51.962  -8.247  0.00  0.00    +0.120 A 
ATOM     39  N   UNL     1     -19.173 -51.900  -6.905  0.00  0.00    -0.263 NA
ATOM     40  C   UNL     1     -18.232 -51.945  -5.866  0.00  0.00    +0.111 A 
ENDBRANCH   4   3
ENDBRANCH  10   9
BRANCH  12  13
ATOM     13  N   UNL     1     -11.648 -52.058 -15.738  0.00  0.00    -0.281 N 
ATOM     14  C   UNL     1     -12.018 -50.843 -16.290  0.00  0.00    +0.248 C 
ATOM     30  O   UNL     1     -13.171 -50.509 -16.516  0.00  0.00    -0.270 OA
ATOM     31  H   UNL     1     -10.655 -52.288 -15.784  0.00  0.00    +0.155 HD
BRANCH  14  15
ATOM     15  C   UNL     1     -10.951 -49.862 -16.658  0.00  0.00    +0.037 A 
ATOM     16  C   UNL     1      -9.944 -49.435 -15.684  0.00  0.00    +0.013 A 
ATOM     17  C   UNL     1      -8.936 -48.474 -16.060  0.00  0.00    +0.005 A 
ATOM     18  C   UNL     1      -8.931 -47.936 -17.418  0.00  0.00    -0.033 A 
ATOM     28  C   UNL     1      -9.939 -48.382 -18.365  0.00  0.00    +0.005 A 
ATOM     29  C   UNL     1     -10.929 -49.322 -18.000  0.00  0.00    +0.013 A 
BRANCH  18  19
ATOM     19  C   UNL     1      -7.907 -46.892 -17.900  0.00  0.00    +0.119 C 
BRANCH  19  20
ATOM     20  N   UNL     1      -7.296 -47.104 -19.246  0.00  0.00    -0.302 NA
ATOM     21  C   UNL     1      -6.037 -47.973 -19.175  0.00  0.00    +0.066 C 
ATOM     22  C   UNL     1      -5.423 -48.203 -20.594  0.00  0.00    -0.064 C 
ATOM     23  N   UNL     1      -5.113 -46.851 -21.239  0.00  0.00    +0.379 N 
ATOM     24  C   UNL     1      -4.483 -47.065 -22.549  0.00  0.00    -0.096 C 
ATOM     25  H   UNL     1      -4.373 -46.329 -20.589  0.00  0.00    -0.082 HD
ATOM     26  C   UNL     1      -6.359 -45.980 -21.311  0.00  0.00    -0.064 C 
ATOM     27  C   UNL     1      -6.978 -45.782 -19.899  0.00  0.00    +0.066 C 
ENDBRANCH  19  20
ENDBRANCH  18  19
ENDBRANCH  14  15
ENDBRANCH  12  13
TORSDOF 6
ENDMDL
MODEL 2
REMARK VINA RESULT:      -7.6      3.237     13.883
REMARK  Name = C:\Users\Docking\Desktop\test protocol\1iep_ligandH.pdb
REMARK  8 active torsions:
REMARK  status: ('A' for Active; 'I' for Inactive)
REMARK    1  A    between atoms: _5  and  _11
REMARK    2  A    between atoms: _19  and  _21
REMARK    3  A    between atoms: _22  and  _66
REMARK    4  A    between atoms: _27  and  _30
REMARK    5  A    between atoms: _32  and  _33
REMARK    6  A    between atoms: _38  and  _43
REMARK    7  A    between atoms: _43  and  _46
REMARK    8  A    between atoms: _53  and  _55
REMARK                            x       y       z     vdW  Elec       q    Type
REMARK                         _______ _______ _______ _____ _____    ______ ____
ROOT
ATOM     10  C   UNL     1     -15.955 -50.694 -13.564  0.00  0.00    +0.038 A 
ATOM     11  C   UNL     1     -16.069 -51.214 -12.250  0.00  0.00    +0.047 A 
ATOM     12  C   UNL     1     -17.352 -51.650 -11.722  0.00  0.00    +0.035 A 
ATOM     32  C   UNL     1     -18.499 -51.543 -12.561  0.00  0.00    +0.024 A 
ATOM     33  C   UNL     1     -18.402 -51.015 -13.899  0.00  0.00    +0.007 A 
ATOM     34  C   UNL     1     -17.138 -50.582 -14.425  0.00  0.00    -0.029 A 
ATOM     35  C   UNL     1     -17.094 -50.018 -15.864  0.00  0.00    +0.045 C 
ENDROOT
BRANCH  10   9
ATOM      4  C   UNL     1     -11.695 -51.597 -15.584  0.00  0.00    +0.077 A 
ATOM      5  C   UNL     1     -11.989 -52.994 -15.719  0.00  0.00    +0.048 A 
ATOM      6  C   UNL     1     -13.244 -53.442 -15.249  0.00  0.00    +0.116 A 
ATOM      7  N   UNL     1     -14.132 -52.549 -14.689  0.00  0.00    -0.223 NA
ATOM      8  C   UNL     1     -13.817 -51.208 -14.573  0.00  0.00    +0.220 A 
ATOM      9  N   UNL     1     -14.697 -50.291 -14.020  0.00  0.00    -0.283 N 
ATOM     36  H   UNL     1     -14.424 -49.311 -13.945  0.00  0.00    +0.155 HD
ATOM     37  N   UNL     1     -12.624 -50.756 -15.012  0.00  0.00    -0.214 NA
BRANCH   4   3
ATOM      1  C   UNL     1      -8.706 -49.113 -16.029  0.00  0.00    +0.020 A 
ATOM      2  C   UNL     1      -9.954 -49.672 -15.561  0.00  0.00    +0.013 A 
ATOM      3  C   UNL     1     -10.412 -50.971 -16.037  0.00  0.00    +0.019 A 
ATOM     38  C   UNL     1      -9.579 -51.685 -16.992  0.00  0.00    +0.120 A 
ATOM     39  N   UNL     1      -8.383 -51.121 -17.426  0.00  0.00    -0.263 NA
ATOM     40  C   UNL     1      -7.932 -49.871 -16.977  0.00  0.00    +0.111 A 
ENDBRANCH   4   3
ENDBRANCH  10   9
BRANCH  12  13
ATOM     13  N   UNL     1     -17.531 -52.179 -10.393  0.00  0.00    -0.281 N 
ATOM     14  C   UNL     1     -16.861 -53.237  -9.800  0.00  0.00    +0.248 C 
ATOM     30  O   UNL     1     -16.152 -54.030 -10.402  0.00  0.00    -0.270 OA
ATOM     31  H   UNL     1     -18.237 -51.718  -9.819  0.00  0.00    +0.155 HD
BRANCH  14  15
ATOM     15  C   UNL     1     -17.013 -53.455  -8.329  0.00  0.00    +0.037 A 
ATOM     16  C   UNL     1     -16.705 -52.393  -7.368  0.00  0.00    +0.013 A 
ATOM     17  C   UNL     1     -16.843 -52.635  -5.954  0.00  0.00    +0.005 A 
ATOM     18  C   UNL     1     -17.294 -53.946  -5.492  0.00  0.00    -0.033 A 
ATOM     28  C   UNL     1     -17.598 -54.980  -6.468  0.00  0.00    +0.005 A 
ATOM     29  C   UNL     1     -17.462 -54.746  -7.855  0.00  0.00    +0.013 A 
BRANCH  18  19
ATOM     19  C   UNL     1     -17.450 -54.299  -4.002  0.00  0.00    +0.119 C 
BRANCH  19  20
ATOM     20  N   UNL     1     -18.249 -53.363  -3.157  0.00  0.00    -0.302 NA
ATOM     21  C   UNL     1     -18.083 -53.653  -1.662  0.00  0.00    +0.066 C 
ATOM     22  C   UNL     1     -18.908 -52.649  -0.793  0.00  0.00    -0.064 C 
ATOM     23  N   UNL     1     -20.382 -52.720  -1.197  0.00  0.00    +0.379 N 
ATOM     24  C   UNL     1     -21.169 -51.821  -0.342  0.00  0.00    -0.096 C 
ATOM     25  H   UNL     1     -20.734 -53.761  -1.009  0.00  0.00    -0.082 HD
ATOM     26  C   UNL     1     -20.556 -52.436  -2.682  0.00  0.00    -0.064 C 
ATOM     27  C   UNL     1     -19.709 -53.420  -3.537  0.00  0.00    +0.066 C 
ENDBRANCH  19  20
ENDBRANCH  18  19
ENDBRANCH  14  15
ENDBRANCH  12  13
TORSDOF 6
ENDMDL
MODEL 3
REMARK VINA RESULT:      -7.6      2.760      4.193
REMARK  Name = C:\Users\Docking\Desktop\test protocol\1iep_ligandH.pdb
REMARK  8 active torsions:
REMARK  status: ('A' for Active; 'I' for Inactive)
REMARK    1  A    between atoms: _5  and  _11
REMARK    2  A    between atoms: _19  and  _21
REMARK    3  A    between atoms: _22  and  _66
REMARK    4  A    between atoms: _27  and  _30
REMARK    5  A    between atoms: _32  and  _33
REMARK    6  A    between atoms: _38  and  _43
REMARK    7  A    between atoms: _43  and  _46
REMARK    8  A    between atoms: _53  and  _55
REMARK                            x       y       z     vdW  Elec       q    Type
REMARK                         _______ _______ _______ _____ _____    ______ ____
ROOT
ATOM     10  C   UNL     1     -16.267 -52.803 -10.425  0.00  0.00    +0.038 A 
ATOM     11  C   UNL     1     -15.260 -52.451 -11.360  0.00  0.00    +0.047 A 
ATOM     12  C   UNL     1     -14.529 -53.470 -12.098  0.00  0.00    +0.035 A 
ATOM     32  C   UNL     1     -14.853 -54.838 -11.862  0.00  0.00    +0.024 A 
ATOM     33  C   UNL     1     -15.873 -55.213 -10.915  0.00  0.00    +0.007 A 
ATOM     34  C   UNL     1     -16.595 -54.213 -10.182  0.00  0.00    -0.029 A 
ATOM     35  C   UNL     1     -17.674 -54.674  -9.175  0.00  0.00    +0.045 C 
ENDROOT
BRANCH  10   9
ATOM      4  C   UNL     1     -19.492 -49.253 -10.227  0.00  0.00    +0.077 A 
ATOM      5  C   UNL     1     -19.853 -49.426 -11.605  0.00  0.00    +0.048 A 
ATOM      6  C   UNL     1     -19.181 -50.434 -12.331  0.00  0.00    +0.116 A 
ATOM      7  N   UNL     1     -18.220 -51.207 -11.716  0.00  0.00    -0.223 NA
ATOM      8  C   UNL     1     -17.894 -51.013 -10.386  0.00  0.00    +0.220 A 
ATOM      9  N   UNL     1     -16.937 -51.784  -9.744  0.00  0.00    -0.283 N 
ATOM     36  H   UNL     1     -16.719 -51.605  -8.764  0.00  0.00    +0.155 HD
ATOM     37  N   UNL     1     -18.521 -50.056  -9.671  0.00  0.00    -0.214 NA
BRANCH   4   3
ATOM      1  C   UNL     1     -20.679 -45.856  -8.694  0.00  0.00    +0.020 A 
ATOM      2  C   UNL     1     -20.060 -46.801  -9.596  0.00  0.00    +0.013 A 
ATOM      3  C   UNL     1     -20.115 -48.232  -9.327  0.00  0.00    +0.019 A 
ATOM     38  C   UNL     1     -20.810 -48.679  -8.129  0.00  0.00    +0.120 A 
ATOM     39  N   UNL     1     -21.395 -47.746  -7.279  0.00  0.00    -0.263 NA
ATOM     40  C   UNL     1     -21.347 -46.366  -7.526  0.00  0.00    +0.111 A 
ENDBRANCH   4   3
ENDBRANCH  10   9
BRANCH  12  13
ATOM     13  N   UNL     1     -13.491 -53.173 -13.053  0.00  0.00    -0.281 N 
ATOM     14  C   UNL     1     -13.632 -52.667 -14.335  0.00  0.00    +0.248 C 
ATOM     30  O   UNL     1     -14.694 -52.592 -14.936  0.00  0.00    -0.270 OA
ATOM     31  H   UNL     1     -12.535 -53.359 -12.748  0.00  0.00    +0.155 HD
BRANCH  14  15
ATOM     15  C   UNL     1     -12.416 -52.187 -15.060  0.00  0.00    +0.037 A 
ATOM     16  C   UNL     1     -11.823 -50.880 -14.767  0.00  0.00    +0.013 A 
ATOM     17  C   UNL     1     -10.660 -50.434 -15.493  0.00  0.00    +0.005 A 
ATOM     18  C   UNL     1     -10.082 -51.299 -16.519  0.00  0.00    -0.033 A 
ATOM     28  C   UNL     1     -10.687 -52.593 -16.786  0.00  0.00    +0.005 A 
ATOM     29  C   UNL     1     -11.828 -53.032 -16.077  0.00  0.00    +0.013 A 
BRANCH  18  19
ATOM     19  C   UNL     1      -8.854 -50.895 -17.357  0.00  0.00    +0.119 C 
BRANCH  19  20
ATOM     20  N   UNL     1      -8.543 -49.438 -17.458  0.00  0.00    -0.302 NA
ATOM     21  C   UNL     1      -9.586 -48.684 -18.288  0.00  0.00    +0.066 C 
ATOM     22  C   UNL     1      -9.258 -47.158 -18.364  0.00  0.00    -0.064 C 
ATOM     23  N   UNL     1      -7.858 -46.968 -18.951  0.00  0.00    +0.379 N 
ATOM     24  C   UNL     1      -7.569 -45.532 -19.078  0.00  0.00    -0.096 C 
ATOM     25  H   UNL     1      -7.860 -47.405 -19.977  0.00  0.00    -0.082 HD
ATOM     26  C   UNL     1      -6.815 -47.717 -18.133  0.00  0.00    -0.064 C 
ATOM     27  C   UNL     1      -7.167 -49.228 -18.039  0.00  0.00    +0.066 C 
ENDBRANCH  19  20
ENDBRANCH  18  19
ENDBRANCH  14  15
ENDBRANCH  12  13
TORSDOF 6
ENDMDL
MODEL 4
REMARK VINA RESULT:      -7.5      3.365     13.519
REMARK  Name = C:\Users\Docking\Desktop\test protocol\1iep_ligandH.pdb
REMARK  8 active torsions:
REMARK  status: ('A' for Active; 'I' for Inactive)
REMARK    1  A    between atoms: _5  and  _11
REMARK    2  A    between atoms: _19  and  _21
REMARK    3  A    between atoms: _22  and  _66
REMARK    4  A    between atoms: _27  and  _30
REMARK    5  A    between atoms: _32  and  _33
REMARK    6  A    between atoms: _38  and  _43
REMARK    7  A    between atoms: _43  and  _46
REMARK    8  A    between atoms: _53  and  _55
REMARK                            x       y       z     vdW  Elec       q    Type
REMARK                         _______ _______ _______ _____ _____    ______ ____
ROOT
ATOM     10  C   UNL     1     -15.656 -50.861 -13.855  0.00  0.00    +0.038 A 
ATOM     11  C   UNL     1     -15.881 -51.244 -12.508  0.00  0.00    +0.047 A 
ATOM     12  C   UNL     1     -17.182 -51.724 -12.070  0.00  0.00    +0.035 A 
ATOM     32  C   UNL     1     -18.232 -51.804 -13.031  0.00  0.00    +0.024 A 
ATOM     33  C   UNL     1     -18.021 -51.418 -14.404  0.00  0.00    +0.007 A 
ATOM     34  C   UNL     1     -16.740 -50.941 -14.841  0.00  0.00    -0.029 A 
ATOM     35  C   UNL     1     -16.573 -50.534 -16.324  0.00  0.00    +0.045 C 
ENDROOT
BRANCH  10   9
ATOM      4  C   UNL     1     -11.312 -51.536 -15.782  0.00  0.00    +0.077 A 
ATOM      5  C   UNL     1     -11.585 -52.917 -16.058  0.00  0.00    +0.048 A 
ATOM      6  C   UNL     1     -12.852 -53.417 -15.682  0.00  0.00    +0.116 A 
ATOM      7  N   UNL     1     -13.771 -52.587 -15.076  0.00  0.00    -0.223 NA
ATOM      8  C   UNL     1     -13.475 -51.261 -14.822  0.00  0.00    +0.220 A 
ATOM      9  N   UNL     1     -14.387 -50.407 -14.221  0.00  0.00    -0.283 N 
ATOM     36  H   UNL     1     -14.128 -49.436 -14.044  0.00  0.00    +0.155 HD
ATOM     37  N   UNL     1     -12.272 -50.760 -15.170  0.00  0.00    -0.214 NA
BRANCH   4   3
ATOM      1  C   UNL     1      -8.278 -49.068 -15.786  0.00  0.00    +0.020 A 
ATOM      2  C   UNL     1      -9.533 -49.682 -15.418  0.00  0.00    +0.013 A 
ATOM      3  C   UNL     1     -10.020 -50.861 -16.122  0.00  0.00    +0.019 A 
ATOM     38  C   UNL     1      -9.207 -51.399 -17.202  0.00  0.00    +0.120 A 
ATOM     39  N   UNL     1      -8.003 -50.786 -17.535  0.00  0.00    -0.263 NA
ATOM     40  C   UNL     1      -7.525 -49.650 -16.866  0.00  0.00    +0.111 A 
ENDBRANCH   4   3
ENDBRANCH  10   9
BRANCH  12  13
ATOM     13  N   UNL     1     -17.472 -52.119 -10.714  0.00  0.00    -0.281 N 
ATOM     14  C   UNL     1     -16.840 -53.091  -9.956  0.00  0.00    +0.248 C 
ATOM     30  O   UNL     1     -16.063 -53.921 -10.406  0.00  0.00    -0.270 OA
ATOM     31  H   UNL     1     -18.237 -51.622 -10.256  0.00  0.00    +0.155 HD
BRANCH  14  15
ATOM     15  C   UNL     1     -17.122 -53.162  -8.490  0.00  0.00    +0.037 A 
ATOM     16  C   UNL     1     -16.543 -52.191  -7.558  0.00  0.00    +0.013 A 
ATOM     17  C   UNL     1     -16.818 -52.291  -6.146  0.00  0.00    +0.005 A 
ATOM     18  C   UNL     1     -17.677 -53.367  -5.659  0.00  0.00    -0.033 A 
ATOM     28  C   UNL     1     -18.242 -54.314  -6.606  0.00  0.00    +0.005 A 
ATOM     29  C   UNL     1     -17.974 -54.219  -7.990  0.00  0.00    +0.013 A 
BRANCH  18  19
ATOM     19  C   UNL     1     -18.006 -53.564  -4.167  0.00  0.00    +0.119 C 
BRANCH  19  20
ATOM     20  N   UNL     1     -17.421 -54.759  -3.489  0.00  0.00    -0.302 NA
ATOM     21  C   UNL     1     -17.709 -54.765  -1.985  0.00  0.00    +0.066 C 
ATOM     22  C   UNL     1     -17.109 -56.033  -1.295  0.00  0.00    -0.064 C 
ATOM     23  N   UNL     1     -15.603 -56.088  -1.558  0.00  0.00    +0.379 N 
ATOM     24  C   UNL     1     -15.026 -57.248  -0.863  0.00  0.00    -0.096 C 
ATOM     25  H   UNL     1     -15.149 -55.170  -1.119  0.00  0.00    -0.082 HD
ATOM     26  C   UNL     1     -15.307 -56.080  -3.051  0.00  0.00    -0.064 C 
ATOM     27  C   UNL     1     -15.933 -54.831  -3.732  0.00  0.00    +0.066 C 
ENDBRANCH  19  20
ENDBRANCH  18  19
ENDBRANCH  14  15
ENDBRANCH  12  13
TORSDOF 6
ENDMDL
MODEL 5
REMARK VINA RESULT:      -7.5      7.266     12.219
REMARK  Name = C:\Users\Docking\Desktop\test protocol\1iep_ligandH.pdb
REMARK  8 active torsions:
REMARK  status: ('A' for Active; 'I' for Inactive)
REMARK    1  A    between atoms: _5  and  _11
REMARK    2  A    between atoms: _19  and  _21
REMARK    3  A    between atoms: _22  and  _66
REMARK    4  A    between atoms: _27  and  _30
REMARK    5  A    between atoms: _32  and  _33
REMARK    6  A    between atoms: _38  and  _43
REMARK    7  A    between atoms: _43  and  _46
REMARK    8  A    between atoms: _53  and  _55
REMARK                            x       y       z     vdW  Elec       q    Type
REMARK                         _______ _______ _______ _____ _____    ______ ____
ROOT
ATOM     10  C   UNL     1     -17.156 -50.805 -12.973  0.00  0.00    +0.038 A 
ATOM     11  C   UNL     1     -17.679 -49.516 -12.699  0.00  0.00    +0.047 A 
ATOM     12  C   UNL     1     -19.090 -49.325 -12.396  0.00  0.00    +0.035 A 
ATOM     32  C   UNL     1     -19.938 -50.470 -12.379  0.00  0.00    +0.024 A 
ATOM     33  C   UNL     1     -19.422 -51.788 -12.656  0.00  0.00    +0.007 A 
ATOM     34  C   UNL     1     -18.032 -51.982 -12.958  0.00  0.00    -0.029 A 
ATOM     35  C   UNL     1     -17.536 -53.416 -13.254  0.00  0.00    +0.045 C 
ENDROOT
BRANCH  10   9
ATOM      4  C   UNL     1     -13.442 -50.734 -16.013  0.00  0.00    +0.077 A 
ATOM      5  C   UNL     1     -14.290 -50.450 -17.135  0.00  0.00    +0.048 A 
ATOM      6  C   UNL     1     -15.676 -50.337 -16.888  0.00  0.00    +0.116 A 
ATOM      7  N   UNL     1     -16.167 -50.497 -15.611  0.00  0.00    -0.223 NA
ATOM      8  C   UNL     1     -15.323 -50.772 -14.551  0.00  0.00    +0.220 A 
ATOM      9  N   UNL     1     -15.794 -50.930 -13.257  0.00  0.00    -0.283 N 
ATOM     36  H   UNL     1     -15.139 -51.139 -12.504  0.00  0.00    +0.155 HD
ATOM     37  N   UNL     1     -13.995 -50.887 -14.761  0.00  0.00    -0.214 NA
BRANCH   4   3
ATOM      1  C   UNL     1      -9.871 -52.123 -16.802  0.00  0.00    +0.020 A 
ATOM      2  C   UNL     1     -11.312 -52.031 -16.731  0.00  0.00    +0.013 A 
ATOM      3  C   UNL     1     -11.955 -50.880 -16.112  0.00  0.00    +0.019 A 
ATOM     38  C   UNL     1     -11.106 -49.829 -15.571  0.00  0.00    +0.120 A 
ATOM     39  N   UNL     1      -9.722 -49.945 -15.652  0.00  0.00    -0.263 NA
ATOM     40  C   UNL     1      -9.092 -51.050 -16.243  0.00  0.00    +0.111 A 
ENDBRANCH   4   3
ENDBRANCH  10   9
BRANCH  12  13
ATOM     13  N   UNL     1     -19.680 -48.039 -12.118  0.00  0.00    -0.281 N 
ATOM     14  C   UNL     1     -19.903 -47.454 -10.882  0.00  0.00    +0.248 C 
ATOM     30  O   UNL     1     -19.822 -48.042  -9.814  0.00  0.00    -0.270 OA
ATOM     31  H   UNL     1     -19.968 -47.494 -12.931  0.00  0.00    +0.155 HD
BRANCH  14  15
ATOM     15  C   UNL     1     -20.284 -46.010 -10.826  0.00  0.00    +0.037 A 
ATOM     16  C   UNL     1     -20.765 -45.303 -12.016  0.00  0.00    +0.013 A 
ATOM     17  C   UNL     1     -21.110 -43.906 -11.937  0.00  0.00    +0.005 A 
ATOM     18  C   UNL     1     -20.975 -43.206 -10.662  0.00  0.00    -0.033 A 
ATOM     28  C   UNL     1     -20.500 -43.932  -9.496  0.00  0.00    +0.005 A 
ATOM     29  C   UNL     1     -20.161 -45.301  -9.569  0.00  0.00    +0.013 A 
BRANCH  18  19
ATOM     19  C   UNL     1     -21.300 -41.710 -10.491  0.00  0.00    +0.119 C 
BRANCH  19  20
ATOM     20  N   UNL     1     -21.322 -40.870 -11.726  0.00  0.00    -0.302 NA
ATOM     21  C   UNL     1     -20.444 -39.623 -11.588  0.00  0.00    +0.066 C 
ATOM     22  C   UNL     1     -20.462 -38.767 -12.896  0.00  0.00    -0.064 C 
ATOM     23  N   UNL     1     -21.903 -38.380 -13.230  0.00  0.00    +0.379 N 
ATOM     24  C   UNL     1     -21.918 -37.527 -14.427  0.00  0.00    -0.096 C 
ATOM     25  H   UNL     1     -22.297 -37.776 -12.379  0.00  0.00    -0.082 HD
ATOM     26  C   UNL     1     -22.784 -39.614 -13.366  0.00  0.00    -0.064 C 
ATOM     27  C   UNL     1     -22.736 -40.473 -12.071  0.00  0.00    +0.066 C 
ENDBRANCH  19  20
ENDBRANCH  18  19
ENDBRANCH  14  15
ENDBRANCH  12  13
TORSDOF 6
ENDMDL
