MODEL 1
REMARK VINA RESULT:      -8.7      0.000      0.000
REMARK  Name = C:\Users\Docking\Desktop\test protocol\1iep_ligandH.pdb
REMARK  8 active torsions:
REMARK  status: ('A' for Active; 'I' for Inactive)
REMARK    1  A    between atoms: _5  and  _11
REMARK    2  A    between atoms: _19  and  _21
REMARK    3  A    between atoms: _22  and  _66
REMARK    4  A    between atoms: _27  and  _30
REMARK    5  A    between atoms: _32  and  _33
REMARK    6  A    between atoms: _38  and  _43
REMARK    7  A    between atoms: _43  and  _46
REMARK    8  A    between atoms: _53  and  _55
REMARK                            x       y       z     vdW  Elec       q    Type
REMARK                         _______ _______ _______ _____ _____    ______ ____
ROOT
ATOM     10  C   UNL     1      20.954  25.414  15.185  0.00  0.00    +0.038 A 
ATOM     11  C   UNL     1      22.290  25.873  15.054  0.00  0.00    +0.047 A 
ATOM     12  C   UNL     1      22.643  27.253  15.348  0.00  0.00    +0.035 A 
ATOM     32  C   UNL     1      21.611  28.138  15.777  0.00  0.00    +0.024 A 
ATOM     33  C   UNL     1      20.248  27.688  15.915  0.00  0.00    +0.007 A 
ATOM     34  C   UNL     1      19.893  26.329  15.623  0.00  0.00    -0.029 A 
ATOM     35  C   UNL     1      18.415  25.904  15.782  0.00  0.00    +0.045 C 
ENDROOT
BRANCH  10   9
ATOM      4  C   UNL     1      19.298  21.986  12.262  0.00  0.00    +0.077 A 
ATOM      5  C   UNL     1      18.942  22.939  11.250  0.00  0.00    +0.048 A 
ATOM      6  C   UNL     1      19.195  24.301  11.524  0.00  0.00    +0.116 A 
ATOM      7  N   UNL     1      19.763  24.673  12.724  0.00  0.00    -0.223 NA
ATOM      8  C   UNL     1      20.092  23.729  13.679  0.00  0.00    +0.220 A 
ATOM      9  N   UNL     1      20.671  24.079  14.889  0.00  0.00    -0.283 N 
ATOM     36  H   UNL     1      20.893  23.353  15.570  0.00  0.00    +0.155 HD
ATOM     37  N   UNL     1      19.859  22.421  13.442  0.00  0.00    -0.214 NA
BRANCH   4   3
ATOM      1  C   UNL     1      19.536  18.290  11.005  0.00  0.00    +0.020 A 
ATOM      2  C   UNL     1      19.765  19.713  11.099  0.00  0.00    +0.013 A 
ATOM      3  C   UNL     1      19.096  20.510  12.120  0.00  0.00    +0.019 A 
ATOM     38  C   UNL     1      18.193  19.830  13.037  0.00  0.00    +0.120 A 
ATOM     39  N   UNL     1      17.990  18.458  12.921  0.00  0.00    -0.263 NA
ATOM     40  C   UNL     1      18.628  17.682  11.942  0.00  0.00    +0.111 A 
ENDBRANCH   4   3
ENDBRANCH  10   9
BRANCH  12  13
ATOM     13  N   UNL     1      23.980  27.779  15.226  0.00  0.00    -0.281 N 
ATOM     14  C   UNL     1      24.958  27.856  16.204  0.00  0.00    +0.248 C 
ATOM     30  O   UNL     1      24.758  27.679  17.396  0.00  0.00    -0.270 OA
ATOM     31  H   UNL     1      24.237  28.137  14.306  0.00  0.00    +0.155 HD
BRANCH  14  15
ATOM     15  C   UNL     1      26.358  28.193  15.801  0.00  0.00    +0.037 A 
ATOM     16  C   UNL     1      26.815  29.583  15.732  0.00  0.00    +0.013 A 
ATOM     17  C   UNL     1      28.165  29.881  15.323  0.00  0.00    +0.005 A 
ATOM     18  C   UNL     1      29.068  28.784  14.983  0.00  0.00    -0.033 A 
ATOM     28  C   UNL     1      28.590  27.414  15.065  0.00  0.00    +0.005 A 
ATOM     29  C   UNL     1      27.267  27.119  15.464  0.00  0.00    +0.013 A 
BRANCH  18  19
ATOM     19  C   UNL     1      30.519  29.010  14.517  0.00  0.00    +0.119 C 
BRANCH  19  20
ATOM     20  N   UNL     1      30.727  29.392  13.088  0.00  0.00    -0.302 NA
ATOM     21  C   UNL     1      31.502  28.322  12.315  0.00  0.00    +0.066 C 
ATOM     22  C   UNL     1      31.691  28.727  10.816  0.00  0.00    -0.064 C 
ATOM     23  N   UNL     1      32.409  30.076  10.742  0.00  0.00    +0.379 N 
ATOM     24  C   UNL     1      32.640  30.432   9.335  0.00  0.00    -0.096 C 
ATOM     25  H   UNL     1      33.405  29.956  11.229  0.00  0.00    -0.082 HD
ATOM     26  C   UNL     1      31.646  31.145  11.511  0.00  0.00    -0.064 C 
ATOM     27  C   UNL     1      31.438  30.719  12.991  0.00  0.00    +0.066 C 
ENDBRANCH  19  20
ENDBRANCH  18  19
ENDBRANCH  14  15
ENDBRANCH  12  13
TORSDOF 6
ENDMDL
MODEL 2
REMARK VINA RESULT:      -8.6      6.158     13.874
REMARK  Name = C:\Users\Docking\Desktop\test protocol\1iep_ligandH.pdb
REMARK  8 active torsions:
REMARK  status: ('A' for Active; 'I' for Inactive)
REMARK    1  A    between atoms: _5  and  _11
REMARK    2  A    between atoms: _19  and  _21
REMARK    3  A    between atoms: _22  and  _66
REMARK    4  A    between atoms: _27  and  _30
REMARK    5  A    between atoms: _32  and  _33
REMARK    6  A    between atoms: _38  and  _43
REMARK    7  A    between atoms: _43  and  _46
REMARK    8  A    between atoms: _53  and  _55
REMARK                            x       y       z     vdW  Elec       q    Type
REMARK                         _______ _______ _______ _____ _____    ______ ____
ROOT
ATOM     10  C   UNL     1      16.194  21.303  14.638  0.00  0.00    +0.038 A 
ATOM     11  C   UNL     1      16.775  20.010  14.580  0.00  0.00    +0.047 A 
ATOM     12  C   UNL     1      15.985  18.846  14.211  0.00  0.00    +0.035 A 
ATOM     32  C   UNL     1      14.605  19.035  13.905  0.00  0.00    +0.024 A 
ATOM     33  C   UNL     1      13.998  20.342  13.961  0.00  0.00    +0.007 A 
ATOM     34  C   UNL     1      14.772  21.493  14.327  0.00  0.00    -0.029 A 
ATOM     35  C   UNL     1      14.067  22.869  14.377  0.00  0.00    +0.045 C 
ENDROOT
BRANCH  10   9
ATOM      4  C   UNL     1      19.403  24.719  13.604  0.00  0.00    +0.077 A 
ATOM      5  C   UNL     1      19.504  24.293  12.238  0.00  0.00    +0.048 A 
ATOM      6  C   UNL     1      18.718  23.187  11.843  0.00  0.00    +0.116 A 
ATOM      7  N   UNL     1      17.897  22.561  12.755  0.00  0.00    -0.223 NA
ATOM      8  C   UNL     1      17.825  22.995  14.066  0.00  0.00    +0.220 A 
ATOM      9  N   UNL     1      16.999  22.386  14.998  0.00  0.00    -0.283 N 
ATOM     36  H   UNL     1      16.980  22.732  15.957  0.00  0.00    +0.155 HD
ATOM     37  N   UNL     1      18.566  24.049  14.468  0.00  0.00    -0.214 NA
BRANCH   4   3
ATOM      1  C   UNL     1      20.356  28.270  14.939  0.00  0.00    +0.020 A 
ATOM      2  C   UNL     1      19.574  27.188  14.387  0.00  0.00    +0.013 A 
ATOM      3  C   UNL     1      20.167  25.874  14.172  0.00  0.00    +0.019 A 
ATOM     38  C   UNL     1      21.566  25.687  14.529  0.00  0.00    +0.120 A 
ATOM     39  N   UNL     1      22.294  26.749  15.057  0.00  0.00    -0.263 NA
ATOM     40  C   UNL     1      21.734  28.018  15.267  0.00  0.00    +0.111 A 
ENDBRANCH   4   3
ENDBRANCH  10   9
BRANCH  12  13
ATOM     13  N   UNL     1      16.518  17.508  14.142  0.00  0.00    -0.281 N 
ATOM     14  C   UNL     1      17.412  16.995  13.217  0.00  0.00    +0.248 C 
ATOM     30  O   UNL     1      17.727  17.552  12.176  0.00  0.00    -0.270 OA
ATOM     31  H   UNL     1      16.197  16.861  14.862  0.00  0.00    +0.155 HD
BRANCH  14  15
ATOM     15  C   UNL     1      18.037  15.662  13.479  0.00  0.00    +0.037 A 
ATOM     16  C   UNL     1      18.904  15.021  12.488  0.00  0.00    +0.013 A 
ATOM     17  C   UNL     1      19.480  13.728  12.759  0.00  0.00    +0.005 A 
ATOM     18  C   UNL     1      19.191  13.067  14.029  0.00  0.00    -0.033 A 
ATOM     28  C   UNL     1      18.331  13.728  14.997  0.00  0.00    +0.005 A 
ATOM     29  C   UNL     1      17.764  14.995  14.734  0.00  0.00    +0.013 A 
BRANCH  18  19
ATOM     19  C   UNL     1      19.745  11.677  14.395  0.00  0.00    +0.119 C 
BRANCH  19  20
ATOM     20  N   UNL     1      20.787  11.616  15.462  0.00  0.00    -0.302 NA
ATOM     21  C   UNL     1      22.200  11.518  14.881  0.00  0.00    +0.066 C 
ATOM     22  C   UNL     1      23.279  11.478  16.011  0.00  0.00    -0.064 C 
ATOM     23  N   UNL     1      22.994  10.298  16.942  0.00  0.00    +0.379 N 
ATOM     24  C   UNL     1      24.041  10.222  17.972  0.00  0.00    -0.096 C 
ATOM     25  H   UNL     1      23.051   9.366  16.333  0.00  0.00    -0.082 HD
ATOM     26  C   UNL     1      21.590  10.385  17.523  0.00  0.00    -0.064 C 
ATOM     27  C   UNL     1      20.527  10.455  16.391  0.00  0.00    +0.066 C 
ENDBRANCH  19  20
ENDBRANCH  18  19
ENDBRANCH  14  15
ENDBRANCH  12  13
TORSDOF 6
ENDMDL
MODEL 3
REMARK VINA RESULT:      -8.5      6.425     14.840
REMARK  Name = C:\Users\Docking\Desktop\test protocol\1iep_ligandH.pdb
REMARK  8 active torsions:
REMARK  status: ('A' for Active; 'I' for Inactive)
REMARK    1  A    between atoms: _5  and  _11
REMARK    2  A    between atoms: _19  and  _21
REMARK    3  A    between atoms: _22  and  _66
REMARK    4  A    between atoms: _27  and  _30
REMARK    5  A    between atoms: _32  and  _33
REMARK    6  A    between atoms: _38  and  _43
REMARK    7  A    between atoms: _43  and  _46
REMARK    8  A    between atoms: _53  and  _55
REMARK                            x       y       z     vdW  Elec       q    Type
REMARK                         _______ _______ _______ _____ _____    ______ ____
ROOT
ATOM     10  C   UNL     1      19.632  23.451  14.215  0.00  0.00    +0.038 A 
ATOM     11  C   UNL     1      18.476  23.623  15.019  0.00  0.00    +0.047 A 
ATOM     12  C   UNL     1      17.189  23.082  14.611  0.00  0.00    +0.035 A 
ATOM     32  C   UNL     1      17.115  22.369  13.380  0.00  0.00    +0.024 A 
ATOM     33  C   UNL     1      18.280  22.186  12.550  0.00  0.00    +0.007 A 
ATOM     34  C   UNL     1      19.552  22.719  12.945  0.00  0.00    -0.029 A 
ATOM     35  C   UNL     1      20.765  22.497  12.013  0.00  0.00    +0.045 C 
ENDROOT
BRANCH  10   9
ATOM      4  C   UNL     1      22.523  27.171  15.129  0.00  0.00    +0.077 A 
ATOM      5  C   UNL     1      21.550  28.118  14.666  0.00  0.00    +0.048 A 
ATOM      6  C   UNL     1      20.320  27.606  14.195  0.00  0.00    +0.116 A 
ATOM      7  N   UNL     1      20.092  26.247  14.191  0.00  0.00    -0.223 NA
ATOM      8  C   UNL     1      21.054  25.361  14.642  0.00  0.00    +0.220 A 
ATOM      9  N   UNL     1      20.843  23.991  14.655  0.00  0.00    -0.283 N 
ATOM     36  H   UNL     1      21.580  23.370  14.989  0.00  0.00    +0.155 HD
ATOM     37  N   UNL     1      22.236  25.825  15.096  0.00  0.00    -0.214 NA
BRANCH   4   3
ATOM      1  C   UNL     1      26.273  27.057  16.238  0.00  0.00    +0.020 A 
ATOM      2  C   UNL     1      24.994  26.633  15.716  0.00  0.00    +0.013 A 
ATOM      3  C   UNL     1      23.869  27.558  15.660  0.00  0.00    +0.019 A 
ATOM     38  C   UNL     1      24.072  28.915  16.144  0.00  0.00    +0.120 A 
ATOM     39  N   UNL     1      25.315  29.294  16.643  0.00  0.00    -0.263 NA
ATOM     40  C   UNL     1      26.404  28.412  16.703  0.00  0.00    +0.111 A 
ENDBRANCH   4   3
ENDBRANCH  10   9
BRANCH  12  13
ATOM     13  N   UNL     1      15.980  23.233  15.382  0.00  0.00    -0.281 N 
ATOM     14  C   UNL     1      15.707  22.733  16.645  0.00  0.00    +0.248 C 
ATOM     30  O   UNL     1      16.388  21.895  17.218  0.00  0.00    -0.270 OA
ATOM     31  H   UNL     1      15.234  23.773  14.944  0.00  0.00    +0.155 HD
BRANCH  14  15
ATOM     15  C   UNL     1      14.496  23.223  17.370  0.00  0.00    +0.037 A 
ATOM     16  C   UNL     1      13.171  23.188  16.746  0.00  0.00    +0.013 A 
ATOM     17  C   UNL     1      12.021  23.683  17.461  0.00  0.00    +0.005 A 
ATOM     18  C   UNL     1      12.192  24.217  18.810  0.00  0.00    -0.033 A 
ATOM     28  C   UNL     1      13.517  24.235  19.407  0.00  0.00    +0.005 A 
ATOM     29  C   UNL     1      14.646  23.751  18.709  0.00  0.00    +0.013 A 
BRANCH  18  19
ATOM     19  C   UNL     1      11.025  24.786  19.639  0.00  0.00    +0.119 C 
BRANCH  19  20
ATOM     20  N   UNL     1       9.710  24.085  19.539  0.00  0.00    -0.302 NA
ATOM     21  C   UNL     1       8.779  24.750  18.522  0.00  0.00    +0.066 C 
ATOM     22  C   UNL     1       7.417  23.991  18.415  0.00  0.00    -0.064 C 
ATOM     23  N   UNL     1       6.759  23.932  19.794  0.00  0.00    +0.379 N 
ATOM     24  C   UNL     1       5.451  23.270  19.686  0.00  0.00    -0.096 C 
ATOM     25  H   UNL     1       6.580  24.981  20.128  0.00  0.00    -0.082 HD
ATOM     26  C   UNL     1       7.679  23.274  20.813  0.00  0.00    -0.064 C 
ATOM     27  C   UNL     1       9.041  24.019  20.890  0.00  0.00    +0.066 C 
ENDBRANCH  19  20
ENDBRANCH  18  19
ENDBRANCH  14  15
ENDBRANCH  12  13
TORSDOF 6
ENDMDL
MODEL 4
REMARK VINA RESULT:      -8.5      5.728      8.593
REMARK  Name = C:\Users\Docking\Desktop\test protocol\1iep_ligandH.pdb
REMARK  8 active torsions:
REMARK  status: ('A' for Active; 'I' for Inactive)
REMARK    1  A    between atoms: _5  and  _11
REMARK    2  A    between atoms: _19  and  _21
REMARK    3  A    between atoms: _22  and  _66
REMARK    4  A    between atoms: _27  and  _30
REMARK    5  A    between atoms: _32  and  _33
REMARK    6  A    between atoms: _38  and  _43
REMARK    7  A    between atoms: _43  and  _46
REMARK    8  A    between atoms: _53  and  _55
REMARK                            x       y       z     vdW  Elec       q    Type
REMARK                         _______ _______ _______ _____ _____    ______ ____
ROOT
ATOM     10  C   UNL     1      15.059  23.196  15.114  0.00  0.00    +0.038 A 
ATOM     11  C   UNL     1      16.213  23.984  15.355  0.00  0.00    +0.047 A 
ATOM     12  C   UNL     1      17.515  23.589  14.839  0.00  0.00    +0.035 A 
ATOM     32  C   UNL     1      17.603  22.387  14.078  0.00  0.00    +0.024 A 
ATOM     33  C   UNL     1      16.440  21.573  13.825  0.00  0.00    +0.007 A 
ATOM     34  C   UNL     1      15.154  21.956  14.334  0.00  0.00    -0.029 A 
ATOM     35  C   UNL     1      13.942  21.043  14.037  0.00  0.00    +0.045 C 
ENDROOT
BRANCH  10   9
ATOM      4  C   UNL     1      11.802  23.422  18.633  0.00  0.00    +0.077 A 
ATOM      5  C   UNL     1      12.595  22.599  19.500  0.00  0.00    +0.048 A 
ATOM      6  C   UNL     1      13.831  22.132  19.000  0.00  0.00    +0.116 A 
ATOM      7  N   UNL     1      14.235  22.469  17.726  0.00  0.00    -0.223 NA
ATOM      8  C   UNL     1      13.445  23.264  16.915  0.00  0.00    +0.220 A 
ATOM      9  N   UNL     1      13.834  23.622  15.634  0.00  0.00    -0.283 N 
ATOM     36  H   UNL     1      13.220  24.204  15.064  0.00  0.00    +0.155 HD
ATOM     37  N   UNL     1      12.260  23.721  17.369  0.00  0.00    -0.214 NA
BRANCH   4   3
ATOM      1  C   UNL     1       8.056  24.543  18.556  0.00  0.00    +0.020 A 
ATOM      2  C   UNL     1       9.316  23.976  18.134  0.00  0.00    +0.013 A 
ATOM      3  C   UNL     1      10.474  23.995  19.019  0.00  0.00    +0.019 A 
ATOM     38  C   UNL     1      10.322  24.598  20.335  0.00  0.00    +0.120 A 
ATOM     39  N   UNL     1       9.096  25.137  20.712  0.00  0.00    -0.263 NA
ATOM     40  C   UNL     1       7.975  25.127  19.869  0.00  0.00    +0.111 A 
ENDBRANCH   4   3
ENDBRANCH  10   9
BRANCH  12  13
ATOM     13  N   UNL     1      18.723  24.344  15.058  0.00  0.00    -0.281 N 
ATOM     14  C   UNL     1      19.421  25.118  14.145  0.00  0.00    +0.248 C 
ATOM     30  O   UNL     1      19.228  25.106  12.938  0.00  0.00    -0.270 OA
ATOM     31  H   UNL     1      19.111  24.303  16.000  0.00  0.00    +0.155 HD
BRANCH  14  15
ATOM     15  C   UNL     1      20.500  26.025  14.643  0.00  0.00    +0.037 A 
ATOM     16  C   UNL     1      20.214  27.414  15.012  0.00  0.00    +0.013 A 
ATOM     17  C   UNL     1      21.275  28.273  15.473  0.00  0.00    +0.005 A 
ATOM     18  C   UNL     1      22.634  27.744  15.569  0.00  0.00    -0.033 A 
ATOM     28  C   UNL     1      22.888  26.361  15.202  0.00  0.00    +0.005 A 
ATOM     29  C   UNL     1      21.850  25.516  14.748  0.00  0.00    +0.013 A 
BRANCH  18  19
ATOM     19  C   UNL     1      23.832  28.595  16.031  0.00  0.00    +0.119 C 
BRANCH  19  20
ATOM     20  N   UNL     1      25.191  27.993  15.894  0.00  0.00    -0.302 NA
ATOM     21  C   UNL     1      25.828  27.695  17.254  0.00  0.00    +0.066 C 
ATOM     22  C   UNL     1      27.241  27.045  17.091  0.00  0.00    -0.064 C 
ATOM     23  N   UNL     1      28.134  27.973  16.267  0.00  0.00    +0.379 N 
ATOM     24  C   UNL     1      29.480  27.391  16.161  0.00  0.00    -0.096 C 
ATOM     25  H   UNL     1      28.224  28.936  16.821  0.00  0.00    -0.082 HD
ATOM     26  C   UNL     1      27.507  28.277  14.913  0.00  0.00    -0.064 C 
ATOM     27  C   UNL     1      26.092  28.895  15.086  0.00  0.00    +0.066 C 
ENDBRANCH  19  20
ENDBRANCH  18  19
ENDBRANCH  14  15
ENDBRANCH  12  13
TORSDOF 6
ENDMDL
MODEL 5
REMARK VINA RESULT:      -8.5      5.497      7.168
REMARK  Name = C:\Users\Docking\Desktop\test protocol\1iep_ligandH.pdb
REMARK  8 active torsions:
REMARK  status: ('A' for Active; 'I' for Inactive)
REMARK    1  A    between atoms: _5  and  _11
REMARK    2  A    between atoms: _19  and  _21
REMARK    3  A    between atoms: _22  and  _66
REMARK    4  A    between atoms: _27  and  _30
REMARK    5  A    between atoms: _32  and  _33
REMARK    6  A    between atoms: _38  and  _43
REMARK    7  A    between atoms: _43  and  _46
REMARK    8  A    between atoms: _53  and  _55
REMARK                            x       y       z     vdW  Elec       q    Type
REMARK                         _______ _______ _______ _____ _____    ______ ____
ROOT
ATOM     10  C   UNL     1      24.645  27.187  16.181  0.00  0.00    +0.038 A 
ATOM     11  C   UNL     1      24.613  28.529  15.723  0.00  0.00    +0.047 A 
ATOM     12  C   UNL     1      25.504  29.536  16.278  0.00  0.00    +0.035 A 
ATOM     32  C   UNL     1      26.417  29.140  17.299  0.00  0.00    +0.024 A 
ATOM     33  C   UNL     1      26.462  27.781  17.778  0.00  0.00    +0.007 A 
ATOM     34  C   UNL     1      25.584  26.784  17.235  0.00  0.00    -0.029 A 
ATOM     35  C   UNL     1      25.671  25.344  17.791  0.00  0.00    +0.045 C 
ENDROOT
BRANCH  10   9
ATOM      4  C   UNL     1      20.382  25.977  14.336  0.00  0.00    +0.077 A 
ATOM      5  C   UNL     1      19.851  27.292  14.548  0.00  0.00    +0.048 A 
ATOM      6  C   UNL     1      20.704  28.250  15.141  0.00  0.00    +0.116 A 
ATOM      7  N   UNL     1      21.992  27.906  15.491  0.00  0.00    -0.223 NA
ATOM      8  C   UNL     1      22.473  26.627  15.275  0.00  0.00    +0.220 A 
ATOM      9  N   UNL     1      23.767  26.262  15.612  0.00  0.00    -0.283 N 
ATOM     36  H   UNL     1      24.081  25.307  15.443  0.00  0.00    +0.155 HD
ATOM     37  N   UNL     1      21.677  25.695  14.711  0.00  0.00    -0.214 NA
BRANCH   4   3
ATOM      1  C   UNL     1      18.806  23.519  11.733  0.00  0.00    +0.020 A 
ATOM      2  C   UNL     1      19.573  24.615  12.280  0.00  0.00    +0.013 A 
ATOM      3  C   UNL     1      19.605  24.858  13.717  0.00  0.00    +0.019 A 
ATOM     38  C   UNL     1      18.844  23.966  14.579  0.00  0.00    +0.120 A 
ATOM     39  N   UNL     1      18.113  22.920  14.024  0.00  0.00    -0.263 NA
ATOM     40  C   UNL     1      18.074  22.678  12.643  0.00  0.00    +0.111 A 
ENDBRANCH   4   3
ENDBRANCH  10   9
BRANCH  12  13
ATOM     13  N   UNL     1      25.511  30.915  15.858  0.00  0.00    -0.281 N 
ATOM     14  C   UNL     1      25.661  32.045  16.646  0.00  0.00    +0.248 C 
ATOM     30  O   UNL     1      25.597  32.049  17.866  0.00  0.00    -0.270 OA
ATOM     31  H   UNL     1      25.392  31.078  14.858  0.00  0.00    +0.155 HD
BRANCH  14  15
ATOM     15  C   UNL     1      25.902  33.361  15.981  0.00  0.00    +0.037 A 
ATOM     16  C   UNL     1      25.646  34.623  16.680  0.00  0.00    +0.013 A 
ATOM     17  C   UNL     1      25.871  35.880  16.010  0.00  0.00    +0.005 A 
ATOM     18  C   UNL     1      26.356  35.880  14.632  0.00  0.00    -0.033 A 
ATOM     28  C   UNL     1      26.606  34.613  13.964  0.00  0.00    +0.005 A 
ATOM     29  C   UNL     1      26.386  33.380  14.617  0.00  0.00    +0.013 A 
BRANCH  18  19
ATOM     19  C   UNL     1      26.603  37.173  13.832  0.00  0.00    +0.119 C 
BRANCH  19  20
ATOM     20  N   UNL     1      25.421  38.041  13.554  0.00  0.00    -0.302 NA
ATOM     21  C   UNL     1      24.331  37.297  12.777  0.00  0.00    +0.066 C 
ATOM     22  C   UNL     1      23.093  38.214  12.515  0.00  0.00    -0.064 C 
ATOM     23  N   UNL     1      23.539  39.465  11.756  0.00  0.00    +0.379 N 
ATOM     24  C   UNL     1      22.368  40.301  11.457  0.00  0.00    -0.096 C 
ATOM     25  H   UNL     1      23.976  39.134  10.786  0.00  0.00    -0.082 HD
ATOM     26  C   UNL     1      24.625  40.210  12.521  0.00  0.00    -0.064 C 
ATOM     27  C   UNL     1      25.839  39.281  12.802  0.00  0.00    +0.066 C 
ENDBRANCH  19  20
ENDBRANCH  18  19
ENDBRANCH  14  15
ENDBRANCH  12  13
TORSDOF 6
ENDMDL
