MODEL 1
REMARK VINA RESULT:      -8.6      0.000      0.000
REMARK  Name = C:\Users\Docking\Desktop\test protocol\1iep_ligandH.pdb
REMARK  8 active torsions:
REMARK  status: ('A' for Active; 'I' for Inactive)
REMARK    1  A    between atoms: _5  and  _11
REMARK    2  A    between atoms: _19  and  _21
REMARK    3  A    between atoms: _22  and  _66
REMARK    4  A    between atoms: _27  and  _30
REMARK    5  A    between atoms: _32  and  _33
REMARK    6  A    between atoms: _38  and  _43
REMARK    7  A    between atoms: _43  and  _46
REMARK    8  A    between atoms: _53  and  _55
REMARK                            x       y       z     vdW  Elec       q    Type
REMARK                         _______ _______ _______ _____ _____    ______ ____
ROOT
ATOM     10  C   UNL     1      19.958  25.129  14.674  0.00  0.00    +0.038 A 
ATOM     11  C   UNL     1      21.347  25.397  14.771  0.00  0.00    +0.047 A 
ATOM     12  C   UNL     1      21.852  26.762  14.780  0.00  0.00    +0.035 A 
ATOM     32  C   UNL     1      20.912  27.830  14.691  0.00  0.00    +0.024 A 
ATOM     33  C   UNL     1      19.497  27.576  14.591  0.00  0.00    +0.007 A 
ATOM     34  C   UNL     1      18.993  26.232  14.579  0.00  0.00    -0.029 A 
ATOM     35  C   UNL     1      17.466  26.018  14.464  0.00  0.00    +0.045 C 
ENDROOT
BRANCH  10   9
ATOM      4  C   UNL     1      18.714  21.089  12.401  0.00  0.00    +0.077 A 
ATOM      5  C   UNL     1      18.910  21.685  11.110  0.00  0.00    +0.048 A 
ATOM      6  C   UNL     1      19.325  23.036  11.075  0.00  0.00    +0.116 A 
ATOM      7  N   UNL     1      19.525  23.729  12.250  0.00  0.00    -0.223 NA
ATOM      8  C   UNL     1      19.326  23.125  13.477  0.00  0.00    +0.220 A 
ATOM      9  N   UNL     1      19.529  23.800  14.671  0.00  0.00    -0.283 N 
ATOM     36  H   UNL     1      19.363  23.322  15.556  0.00  0.00    +0.155 HD
ATOM     37  N   UNL     1      18.929  21.837  13.537  0.00  0.00    -0.214 NA
BRANCH   4   3
ATOM      1  C   UNL     1      18.486  17.190  12.191  0.00  0.00    +0.020 A 
ATOM      2  C   UNL     1      18.944  18.541  11.963  0.00  0.00    +0.013 A 
ATOM      3  C   UNL     1      18.281  19.671  12.602  0.00  0.00    +0.019 A 
ATOM     38  C   UNL     1      17.149  19.396  13.474  0.00  0.00    +0.120 A 
ATOM     39  N   UNL     1      16.729  18.085  13.674  0.00  0.00    -0.263 NA
ATOM     40  C   UNL     1      17.359  16.990  13.063  0.00  0.00    +0.111 A 
ENDBRANCH   4   3
ENDBRANCH  10   9
BRANCH  12  13
ATOM     13  N   UNL     1      23.252  27.095  14.868  0.00  0.00    -0.281 N 
ATOM     14  C   UNL     1      24.105  26.910  15.943  0.00  0.00    +0.248 C 
ATOM     30  O   UNL     1      23.740  26.625  17.074  0.00  0.00    -0.270 OA
ATOM     31  H   UNL     1      23.664  27.518  14.036  0.00  0.00    +0.155 HD
BRANCH  14  15
ATOM     15  C   UNL     1      25.576  27.082  15.736  0.00  0.00    +0.037 A 
ATOM     16  C   UNL     1      26.523  26.025  16.101  0.00  0.00    +0.013 A 
ATOM     17  C   UNL     1      27.937  26.224  15.906  0.00  0.00    +0.005 A 
ATOM     18  C   UNL     1      28.413  27.485  15.342  0.00  0.00    -0.033 A 
ATOM     28  C   UNL     1      27.451  28.514  14.985  0.00  0.00    +0.005 A 
ATOM     29  C   UNL     1      26.064  28.324  15.175  0.00  0.00    +0.013 A 
BRANCH  18  19
ATOM     19  C   UNL     1      29.906  27.791  15.120  0.00  0.00    +0.119 C 
BRANCH  19  20
ATOM     20  N   UNL     1      30.310  28.279  13.767  0.00  0.00    -0.302 NA
ATOM     21  C   UNL     1      31.104  27.226  12.990  0.00  0.00    +0.066 C 
ATOM     22  C   UNL     1      31.499  27.744  11.569  0.00  0.00    -0.064 C 
ATOM     23  N   UNL     1      32.304  29.038  11.707  0.00  0.00    +0.379 N 
ATOM     24  C   UNL     1      32.726  29.497  10.376  0.00  0.00    -0.096 C 
ATOM     25  H   UNL     1      33.224  28.803  12.291  0.00  0.00    -0.082 HD
ATOM     26  C   UNL     1      31.522  30.090  12.481  0.00  0.00    -0.064 C 
ATOM     27  C   UNL     1      31.110  29.553  13.880  0.00  0.00    +0.066 C 
ENDBRANCH  19  20
ENDBRANCH  18  19
ENDBRANCH  14  15
ENDBRANCH  12  13
TORSDOF 6
ENDMDL
MODEL 2
REMARK VINA RESULT:      -8.4      1.022      1.355
REMARK  Name = C:\Users\Docking\Desktop\test protocol\1iep_ligandH.pdb
REMARK  8 active torsions:
REMARK  status: ('A' for Active; 'I' for Inactive)
REMARK    1  A    between atoms: _5  and  _11
REMARK    2  A    between atoms: _19  and  _21
REMARK    3  A    between atoms: _22  and  _66
REMARK    4  A    between atoms: _27  and  _30
REMARK    5  A    between atoms: _32  and  _33
REMARK    6  A    between atoms: _38  and  _43
REMARK    7  A    between atoms: _43  and  _46
REMARK    8  A    between atoms: _53  and  _55
REMARK                            x       y       z     vdW  Elec       q    Type
REMARK                         _______ _______ _______ _____ _____    ______ ____
ROOT
ATOM     10  C   UNL     1      19.888  25.161  14.686  0.00  0.00    +0.038 A 
ATOM     11  C   UNL     1      21.267  25.400  14.919  0.00  0.00    +0.047 A 
ATOM     12  C   UNL     1      21.803  26.752  14.939  0.00  0.00    +0.035 A 
ATOM     32  C   UNL     1      20.906  27.838  14.721  0.00  0.00    +0.024 A 
ATOM     33  C   UNL     1      19.503  27.614  14.482  0.00  0.00    +0.007 A 
ATOM     34  C   UNL     1      18.968  26.282  14.459  0.00  0.00    -0.029 A 
ATOM     35  C   UNL     1      17.456  26.100  14.191  0.00  0.00    +0.045 C 
ENDROOT
BRANCH  10   9
ATOM      4  C   UNL     1      18.681  21.115  12.405  0.00  0.00    +0.077 A 
ATOM      5  C   UNL     1      18.968  21.684  11.120  0.00  0.00    +0.048 A 
ATOM      6  C   UNL     1      19.417  23.023  11.089  0.00  0.00    +0.116 A 
ATOM      7  N   UNL     1      19.565  23.731  12.262  0.00  0.00    -0.223 NA
ATOM      8  C   UNL     1      19.278  23.153  13.485  0.00  0.00    +0.220 A 
ATOM      9  N   UNL     1      19.427  23.843  14.678  0.00  0.00    -0.283 N 
ATOM     36  H   UNL     1      19.198  23.384  15.559  0.00  0.00    +0.155 HD
ATOM     37  N   UNL     1      18.846  21.875  13.541  0.00  0.00    -0.214 NA
BRANCH   4   3
ATOM      1  C   UNL     1      18.203  17.249  12.051  0.00  0.00    +0.020 A 
ATOM      2  C   UNL     1      18.699  18.586  11.821  0.00  0.00    +0.013 A 
ATOM      3  C   UNL     1      18.201  19.710  12.603  0.00  0.00    +0.019 A 
ATOM     38  C   UNL     1      17.193  19.446  13.619  0.00  0.00    +0.120 A 
ATOM     39  N   UNL     1      16.733  18.148  13.817  0.00  0.00    -0.263 NA
ATOM     40  C   UNL     1      17.204  17.058  13.070  0.00  0.00    +0.111 A 
ENDBRANCH   4   3
ENDBRANCH  10   9
BRANCH  12  13
ATOM     13  N   UNL     1      23.195  27.056  15.163  0.00  0.00    -0.281 N 
ATOM     14  C   UNL     1      23.829  27.308  16.368  0.00  0.00    +0.248 C 
ATOM     30  O   UNL     1      23.249  27.522  17.422  0.00  0.00    -0.270 OA
ATOM     31  H   UNL     1      23.785  27.088  14.331  0.00  0.00    +0.155 HD
BRANCH  14  15
ATOM     15  C   UNL     1      25.323  27.341  16.406  0.00  0.00    +0.037 A 
ATOM     16  C   UNL     1      26.120  26.193  15.967  0.00  0.00    +0.013 A 
ATOM     17  C   UNL     1      27.559  26.245  16.030  0.00  0.00    +0.005 A 
ATOM     18  C   UNL     1      28.211  27.452  16.532  0.00  0.00    -0.033 A 
ATOM     28  C   UNL     1      27.396  28.579  16.956  0.00  0.00    +0.005 A 
ATOM     29  C   UNL     1      25.985  28.531  16.897  0.00  0.00    +0.013 A 
BRANCH  18  19
ATOM     19  C   UNL     1      29.740  27.588  16.653  0.00  0.00    +0.119 C 
BRANCH  19  20
ATOM     20  N   UNL     1      30.527  27.617  15.384  0.00  0.00    -0.302 NA
ATOM     21  C   UNL     1      29.799  28.380  14.274  0.00  0.00    +0.066 C 
ATOM     22  C   UNL     1      30.646  28.420  12.961  0.00  0.00    -0.064 C 
ATOM     23  N   UNL     1      30.962  26.990  12.518  0.00  0.00    +0.379 N 
ATOM     24  C   UNL     1      31.709  27.023  11.252  0.00  0.00    -0.096 C 
ATOM     25  H   UNL     1      29.993  26.474  12.326  0.00  0.00    -0.082 HD
ATOM     26  C   UNL     1      31.684  26.223  13.617  0.00  0.00    -0.064 C 
ATOM     27  C   UNL     1      30.846  26.215  14.926  0.00  0.00    +0.066 C 
ENDBRANCH  19  20
ENDBRANCH  18  19
ENDBRANCH  14  15
ENDBRANCH  12  13
TORSDOF 6
ENDMDL
MODEL 3
REMARK VINA RESULT:      -8.1      7.966     15.859
REMARK  Name = C:\Users\Docking\Desktop\test protocol\1iep_ligandH.pdb
REMARK  8 active torsions:
REMARK  status: ('A' for Active; 'I' for Inactive)
REMARK    1  A    between atoms: _5  and  _11
REMARK    2  A    between atoms: _19  and  _21
REMARK    3  A    between atoms: _22  and  _66
REMARK    4  A    between atoms: _27  and  _30
REMARK    5  A    between atoms: _32  and  _33
REMARK    6  A    between atoms: _38  and  _43
REMARK    7  A    between atoms: _43  and  _46
REMARK    8  A    between atoms: _53  and  _55
REMARK                            x       y       z     vdW  Elec       q    Type
REMARK                         _______ _______ _______ _____ _____    ______ ____
ROOT
ATOM     10  C   UNL     1      16.667  22.726  14.922  0.00  0.00    +0.038 A 
ATOM     11  C   UNL     1      15.480  23.111  15.596  0.00  0.00    +0.047 A 
ATOM     12  C   UNL     1      14.176  22.644  15.151  0.00  0.00    +0.035 A 
ATOM     32  C   UNL     1      14.119  21.783  14.016  0.00  0.00    +0.024 A 
ATOM     33  C   UNL     1      15.315  21.384  13.318  0.00  0.00    +0.007 A 
ATOM     34  C   UNL     1      16.604  21.843  13.751  0.00  0.00    -0.029 A 
ATOM     35  C   UNL     1      17.853  21.388  12.961  0.00  0.00    +0.045 C 
ENDROOT
BRANCH  10   9
ATOM      4  C   UNL     1      20.024  26.138  15.281  0.00  0.00    +0.077 A 
ATOM      5  C   UNL     1      19.288  27.034  14.436  0.00  0.00    +0.048 A 
ATOM      6  C   UNL     1      18.053  26.576  13.924  0.00  0.00    +0.116 A 
ATOM      7  N   UNL     1      17.598  25.314  14.240  0.00  0.00    -0.223 NA
ATOM      8  C   UNL     1      18.334  24.474  15.056  0.00  0.00    +0.220 A 
ATOM      9  N   UNL     1      17.892  23.204  15.393  0.00  0.00    -0.283 N 
ATOM     36  H   UNL     1      18.467  22.613  15.992  0.00  0.00    +0.155 HD
ATOM     37  N   UNL     1      19.517  24.888  15.557  0.00  0.00    -0.214 NA
BRANCH   4   3
ATOM      1  C   UNL     1      23.817  26.954  15.774  0.00  0.00    +0.020 A 
ATOM      2  C   UNL     1      22.569  26.624  15.126  0.00  0.00    +0.013 A 
ATOM      3  C   UNL     1      21.343  26.478  15.901  0.00  0.00    +0.019 A 
ATOM     38  C   UNL     1      21.415  26.676  17.341  0.00  0.00    +0.120 A 
ATOM     39  N   UNL     1      22.632  26.992  17.938  0.00  0.00    -0.263 NA
ATOM     40  C   UNL     1      23.818  27.133  17.202  0.00  0.00    +0.111 A 
ENDBRANCH   4   3
ENDBRANCH  10   9
BRANCH  12  13
ATOM     13  N   UNL     1      12.936  23.007  15.790  0.00  0.00    -0.281 N 
ATOM     14  C   UNL     1      12.394  22.487  16.954  0.00  0.00    +0.248 C 
ATOM     30  O   UNL     1      12.792  21.474  17.509  0.00  0.00    -0.270 OA
ATOM     31  H   UNL     1      12.392  23.736  15.329  0.00  0.00    +0.155 HD
BRANCH  14  15
ATOM     15  C   UNL     1      11.232  23.184  17.584  0.00  0.00    +0.037 A 
ATOM     16  C   UNL     1      11.403  24.449  18.303  0.00  0.00    +0.013 A 
ATOM     17  C   UNL     1      10.269  25.092  18.916  0.00  0.00    +0.005 A 
ATOM     18  C   UNL     1       8.950  24.472  18.811  0.00  0.00    -0.033 A 
ATOM     28  C   UNL     1       8.807  23.220  18.087  0.00  0.00    +0.005 A 
ATOM     29  C   UNL     1       9.918  22.586  17.485  0.00  0.00    +0.013 A 
BRANCH  18  19
ATOM     19  C   UNL     1       7.687  25.077  19.452  0.00  0.00    +0.119 C 
BRANCH  19  20
ATOM     20  N   UNL     1       7.324  24.608  20.822  0.00  0.00    -0.302 NA
ATOM     21  C   UNL     1       6.182  23.589  20.797  0.00  0.00    +0.066 C 
ATOM     22  C   UNL     1       5.830  23.092  22.237  0.00  0.00    -0.064 C 
ATOM     23  N   UNL     1       5.466  24.292  23.113  0.00  0.00    +0.379 N 
ATOM     24  C   UNL     1       5.079  23.823  24.452  0.00  0.00    -0.096 C 
ATOM     25  H   UNL     1       4.577  24.786  22.657  0.00  0.00    -0.082 HD
ATOM     26  C   UNL     1       6.596  25.312  23.142  0.00  0.00    -0.064 C 
ATOM     27  C   UNL     1       6.957  25.777  21.703  0.00  0.00    +0.066 C 
ENDBRANCH  19  20
ENDBRANCH  18  19
ENDBRANCH  14  15
ENDBRANCH  12  13
TORSDOF 6
ENDMDL
MODEL 4
REMARK VINA RESULT:      -8.0      1.543      2.478
REMARK  Name = C:\Users\Docking\Desktop\test protocol\1iep_ligandH.pdb
REMARK  8 active torsions:
REMARK  status: ('A' for Active; 'I' for Inactive)
REMARK    1  A    between atoms: _5  and  _11
REMARK    2  A    between atoms: _19  and  _21
REMARK    3  A    between atoms: _22  and  _66
REMARK    4  A    between atoms: _27  and  _30
REMARK    5  A    between atoms: _32  and  _33
REMARK    6  A    between atoms: _38  and  _43
REMARK    7  A    between atoms: _43  and  _46
REMARK    8  A    between atoms: _53  and  _55
REMARK                            x       y       z     vdW  Elec       q    Type
REMARK                         _______ _______ _______ _____ _____    ______ ____
ROOT
ATOM     10  C   UNL     1      19.879  25.101  14.675  0.00  0.00    +0.038 A 
ATOM     11  C   UNL     1      21.267  25.378  14.774  0.00  0.00    +0.047 A 
ATOM     12  C   UNL     1      21.761  26.746  14.791  0.00  0.00    +0.035 A 
ATOM     32  C   UNL     1      20.814  27.808  14.708  0.00  0.00    +0.024 A 
ATOM     33  C   UNL     1      19.401  27.544  14.606  0.00  0.00    +0.007 A 
ATOM     34  C   UNL     1      18.907  26.197  14.586  0.00  0.00    -0.029 A 
ATOM     35  C   UNL     1      17.381  25.973  14.468  0.00  0.00    +0.045 C 
ENDROOT
BRANCH  10   9
ATOM      4  C   UNL     1      18.721  21.049  12.378  0.00  0.00    +0.077 A 
ATOM      5  C   UNL     1      18.945  21.644  11.092  0.00  0.00    +0.048 A 
ATOM      6  C   UNL     1      19.350  22.997  11.065  0.00  0.00    +0.116 A 
ATOM      7  N   UNL     1      19.517  23.694  12.242  0.00  0.00    -0.223 NA
ATOM      8  C   UNL     1      19.291  23.090  13.466  0.00  0.00    +0.220 A 
ATOM      9  N   UNL     1      19.460  23.769  14.663  0.00  0.00    -0.283 N 
ATOM     36  H   UNL     1      19.276  23.290  15.544  0.00  0.00    +0.155 HD
ATOM     37  N   UNL     1      18.901  21.799  13.518  0.00  0.00    -0.214 NA
BRANCH   4   3
ATOM      1  C   UNL     1      18.322  17.180  11.959  0.00  0.00    +0.020 A 
ATOM      2  C   UNL     1      18.767  18.536  11.730  0.00  0.00    +0.013 A 
ATOM      3  C   UNL     1      18.292  19.627  12.571  0.00  0.00    +0.019 A 
ATOM     38  C   UNL     1      17.362  19.311  13.645  0.00  0.00    +0.120 A 
ATOM     39  N   UNL     1      16.951  17.996  13.841  0.00  0.00    -0.263 NA
ATOM     40  C   UNL     1      17.399  16.938  13.037  0.00  0.00    +0.111 A 
ENDBRANCH   4   3
ENDBRANCH  10   9
BRANCH  12  13
ATOM     13  N   UNL     1      23.159  27.089  14.882  0.00  0.00    -0.281 N 
ATOM     14  C   UNL     1      24.012  26.906  15.958  0.00  0.00    +0.248 C 
ATOM     30  O   UNL     1      23.648  26.613  17.087  0.00  0.00    -0.270 OA
ATOM     31  H   UNL     1      23.569  27.518  14.053  0.00  0.00    +0.155 HD
BRANCH  14  15
ATOM     15  C   UNL     1      25.482  27.089  15.753  0.00  0.00    +0.037 A 
ATOM     16  C   UNL     1      26.015  28.286  15.098  0.00  0.00    +0.013 A 
ATOM     17  C   UNL     1      27.435  28.430  14.898  0.00  0.00    +0.005 A 
ATOM     18  C   UNL     1      28.333  27.372  15.356  0.00  0.00    -0.033 A 
ATOM     28  C   UNL     1      27.778  26.197  16.008  0.00  0.00    +0.005 A 
ATOM     29  C   UNL     1      26.386  26.053  16.204  0.00  0.00    +0.013 A 
BRANCH  18  19
ATOM     19  C   UNL     1      29.860  27.431  15.165  0.00  0.00    +0.119 C 
BRANCH  19  20
ATOM     20  N   UNL     1      30.616  28.414  15.998  0.00  0.00    -0.302 NA
ATOM     21  C   UNL     1      29.966  28.625  17.369  0.00  0.00    +0.066 C 
ATOM     22  C   UNL     1      30.782  29.639  18.235  0.00  0.00    -0.064 C 
ATOM     23  N   UNL     1      30.904  30.966  17.483  0.00  0.00    +0.379 N 
ATOM     24  C   UNL     1      31.620  31.939  18.320  0.00  0.00    -0.096 C 
ATOM     25  H   UNL     1      29.872  31.356  17.318  0.00  0.00    -0.082 HD
ATOM     26  C   UNL     1      31.546  30.764  16.118  0.00  0.00    -0.064 C 
ATOM     27  C   UNL     1      30.744  29.733  15.276  0.00  0.00    +0.066 C 
ENDBRANCH  19  20
ENDBRANCH  18  19
ENDBRANCH  14  15
ENDBRANCH  12  13
TORSDOF 6
ENDMDL
MODEL 5
REMARK VINA RESULT:      -8.0      5.341      7.795
REMARK  Name = C:\Users\Docking\Desktop\test protocol\1iep_ligandH.pdb
REMARK  8 active torsions:
REMARK  status: ('A' for Active; 'I' for Inactive)
REMARK    1  A    between atoms: _5  and  _11
REMARK    2  A    between atoms: _19  and  _21
REMARK    3  A    between atoms: _22  and  _66
REMARK    4  A    between atoms: _27  and  _30
REMARK    5  A    between atoms: _32  and  _33
REMARK    6  A    between atoms: _38  and  _43
REMARK    7  A    between atoms: _43  and  _46
REMARK    8  A    between atoms: _53  and  _55
REMARK                            x       y       z     vdW  Elec       q    Type
REMARK                         _______ _______ _______ _____ _____    ______ ____
ROOT
ATOM     10  C   UNL     1      15.078  23.182  14.996  0.00  0.00    +0.038 A 
ATOM     11  C   UNL     1      16.255  23.914  15.297  0.00  0.00    +0.047 A 
ATOM     12  C   UNL     1      17.553  23.494  14.791  0.00  0.00    +0.035 A 
ATOM     32  C   UNL     1      17.615  22.324  13.979  0.00  0.00    +0.024 A 
ATOM     33  C   UNL     1      16.428  21.567  13.664  0.00  0.00    +0.007 A 
ATOM     34  C   UNL     1      15.146  21.976  14.163  0.00  0.00    -0.029 A 
ATOM     35  C   UNL     1      13.909  21.122  13.799  0.00  0.00    +0.045 C 
ENDROOT
BRANCH  10   9
ATOM      4  C   UNL     1      11.792  23.445  18.485  0.00  0.00    +0.077 A 
ATOM      5  C   UNL     1      12.557  22.594  19.350  0.00  0.00    +0.048 A 
ATOM      6  C   UNL     1      13.787  22.104  18.857  0.00  0.00    +0.116 A 
ATOM      7  N   UNL     1      14.211  22.446  17.592  0.00  0.00    -0.223 NA
ATOM      8  C   UNL     1      13.448  23.267  16.782  0.00  0.00    +0.220 A 
ATOM      9  N   UNL     1      13.859  23.631  15.508  0.00  0.00    -0.283 N 
ATOM     36  H   UNL     1      13.264  24.232  14.939  0.00  0.00    +0.155 HD
ATOM     37  N   UNL     1      12.269  23.747  17.229  0.00  0.00    -0.214 NA
BRANCH   4   3
ATOM      1  C   UNL     1       8.798  25.929  18.886  0.00  0.00    +0.020 A 
ATOM      2  C   UNL     1      10.084  25.399  18.496  0.00  0.00    +0.013 A 
ATOM      3  C   UNL     1      10.473  24.043  18.864  0.00  0.00    +0.019 A 
ATOM     38  C   UNL     1       9.531  23.244  19.632  0.00  0.00    +0.120 A 
ATOM     39  N   UNL     1       8.300  23.783  19.996  0.00  0.00    -0.263 NA
ATOM     40  C   UNL     1       7.915  25.086  19.649  0.00  0.00    +0.111 A 
ENDBRANCH   4   3
ENDBRANCH  10   9
BRANCH  12  13
ATOM     13  N   UNL     1      18.783  24.193  15.070  0.00  0.00    -0.281 N 
ATOM     14  C   UNL     1      19.094  25.514  14.793  0.00  0.00    +0.248 C 
ATOM     30  O   UNL     1      18.434  26.241  14.066  0.00  0.00    -0.270 OA
ATOM     31  H   UNL     1      19.513  23.647  15.528  0.00  0.00    +0.155 HD
BRANCH  14  15
ATOM     15  C   UNL     1      20.323  26.109  15.399  0.00  0.00    +0.037 A 
ATOM     16  C   UNL     1      20.290  26.740  16.721  0.00  0.00    +0.013 A 
ATOM     17  C   UNL     1      21.486  27.322  17.276  0.00  0.00    +0.005 A 
ATOM     18  C   UNL     1      22.728  27.273  16.508  0.00  0.00    -0.033 A 
ATOM     28  C   UNL     1      22.734  26.636  15.201  0.00  0.00    +0.005 A 
ATOM     29  C   UNL     1      21.563  26.066  14.654  0.00  0.00    +0.013 A 
BRANCH  18  19
ATOM     19  C   UNL     1      24.048  27.887  17.012  0.00  0.00    +0.119 C 
BRANCH  19  20
ATOM     20  N   UNL     1      25.242  27.765  16.124  0.00  0.00    -0.302 NA
ATOM     21  C   UNL     1      26.122  26.570  16.505  0.00  0.00    +0.066 C 
ATOM     22  C   UNL     1      27.354  26.444  15.552  0.00  0.00    -0.064 C 
ATOM     23  N   UNL     1      28.160  27.744  15.590  0.00  0.00    +0.379 N 
ATOM     24  C   UNL     1      29.351  27.608  14.739  0.00  0.00    -0.096 C 
ATOM     25  H   UNL     1      28.508  27.895  16.638  0.00  0.00    -0.082 HD
ATOM     26  C   UNL     1      27.292  28.937  15.215  0.00  0.00    -0.064 C 
ATOM     27  C   UNL     1      26.054  29.036  16.150  0.00  0.00    +0.066 C 
ENDBRANCH  19  20
ENDBRANCH  18  19
ENDBRANCH  14  15
ENDBRANCH  12  13
TORSDOF 6
ENDMDL
