MODEL 1
REMARK VINA RESULT:      -8.2      0.000      0.000
REMARK  Name = C:\Users\Docking\Desktop\test protocol\1iep_ligandH.pdb
REMARK  8 active torsions:
REMARK  status: ('A' for Active; 'I' for Inactive)
REMARK    1  A    between atoms: _5  and  _11
REMARK    2  A    between atoms: _19  and  _21
REMARK    3  A    between atoms: _22  and  _66
REMARK    4  A    between atoms: _27  and  _30
REMARK    5  A    between atoms: _32  and  _33
REMARK    6  A    between atoms: _38  and  _43
REMARK    7  A    between atoms: _43  and  _46
REMARK    8  A    between atoms: _53  and  _55
REMARK                            x       y       z     vdW  Elec       q    Type
REMARK                         _______ _______ _______ _____ _____    ______ ____
ROOT
ATOM     10  C   UNL     1      27.122  38.463  35.562  0.00  0.00    +0.038 A 
ATOM     11  C   UNL     1      28.182  37.539  35.747  0.00  0.00    +0.047 A 
ATOM     12  C   UNL     1      29.459  37.959  36.302  0.00  0.00    +0.035 A 
ATOM     32  C   UNL     1      29.621  39.329  36.661  0.00  0.00    +0.024 A 
ATOM     33  C   UNL     1      28.554  40.282  36.480  0.00  0.00    +0.007 A 
ATOM     34  C   UNL     1      27.293  39.873  35.930  0.00  0.00    -0.029 A 
ATOM     35  C   UNL     1      26.188  40.940  35.752  0.00  0.00    +0.045 C 
ENDROOT
BRANCH  10   9
ATOM      4  C   UNL     1      24.283  37.384  31.845  0.00  0.00    +0.077 A 
ATOM      5  C   UNL     1      25.275  37.794  30.893  0.00  0.00    +0.048 A 
ATOM      6  C   UNL     1      26.499  38.283  31.401  0.00  0.00    +0.116 A 
ATOM      7  N   UNL     1      26.706  38.352  32.762  0.00  0.00    -0.223 NA
ATOM      8  C   UNL     1      25.728  37.951  33.653  0.00  0.00    +0.220 A 
ATOM      9  N   UNL     1      25.917  38.004  35.025  0.00  0.00    -0.283 N 
ATOM     36  H   UNL     1      25.168  37.706  35.649  0.00  0.00    +0.155 HD
ATOM     37  N   UNL     1      24.549  37.481  33.193  0.00  0.00    -0.214 NA
BRANCH   4   3
ATOM      1  C   UNL     1      20.508  37.120  30.855  0.00  0.00    +0.020 A 
ATOM      2  C   UNL     1      21.782  37.694  31.221  0.00  0.00    +0.013 A 
ATOM      3  C   UNL     1      22.940  36.843  31.464  0.00  0.00    +0.019 A 
ATOM     38  C   UNL     1      22.774  35.404  31.326  0.00  0.00    +0.120 A 
ATOM     39  N   UNL     1      21.534  34.880  30.973  0.00  0.00    -0.263 NA
ATOM     40  C   UNL     1      20.412  35.689  30.739  0.00  0.00    +0.111 A 
ENDBRANCH   4   3
ENDBRANCH  10   9
BRANCH  12  13
ATOM     13  N   UNL     1      30.574  37.068  36.505  0.00  0.00    -0.281 N 
ATOM     14  C   UNL     1      31.109  36.633  37.706  0.00  0.00    +0.248 C 
ATOM     30  O   UNL     1      30.843  37.116  38.796  0.00  0.00    -0.270 OA
ATOM     31  H   UNL     1      31.023  36.714  35.660  0.00  0.00    +0.155 HD
BRANCH  14  15
ATOM     15  C   UNL     1      32.093  35.508  37.693  0.00  0.00    +0.037 A 
ATOM     16  C   UNL     1      33.513  35.745  37.421  0.00  0.00    +0.013 A 
ATOM     17  C   UNL     1      34.439  34.640  37.397  0.00  0.00    +0.005 A 
ATOM     18  C   UNL     1      33.946  33.287  37.649  0.00  0.00    -0.033 A 
ATOM     28  C   UNL     1      32.533  33.082  37.922  0.00  0.00    +0.005 A 
ATOM     29  C   UNL     1      31.623  34.163  37.944  0.00  0.00    +0.013 A 
BRANCH  18  19
ATOM     19  C   UNL     1      34.858  32.047  37.623  0.00  0.00    +0.119 C 
BRANCH  19  20
ATOM     20  N   UNL     1      34.601  31.031  36.559  0.00  0.00    -0.302 NA
ATOM     21  C   UNL     1      35.650  29.916  36.563  0.00  0.00    +0.066 C 
ATOM     22  C   UNL     1      35.353  28.850  35.458  0.00  0.00    -0.064 C 
ATOM     23  N   UNL     1      35.298  29.537  34.093  0.00  0.00    +0.379 N 
ATOM     24  C   UNL     1      35.076  28.530  33.045  0.00  0.00    -0.096 C 
ATOM     25  H   UNL     1      36.294  30.003  33.909  0.00  0.00    -0.082 HD
ATOM     26  C   UNL     1      34.259  30.649  34.080  0.00  0.00    -0.064 C 
ATOM     27  C   UNL     1      34.547  31.687  35.201  0.00  0.00    +0.066 C 
ENDBRANCH  19  20
ENDBRANCH  18  19
ENDBRANCH  14  15
ENDBRANCH  12  13
TORSDOF 6
ENDMDL
MODEL 2
REMARK VINA RESULT:      -8.0      1.762      2.641
REMARK  Name = C:\Users\Docking\Desktop\test protocol\1iep_ligandH.pdb
REMARK  8 active torsions:
REMARK  status: ('A' for Active; 'I' for Inactive)
REMARK    1  A    between atoms: _5  and  _11
REMARK    2  A    between atoms: _19  and  _21
REMARK    3  A    between atoms: _22  and  _66
REMARK    4  A    between atoms: _27  and  _30
REMARK    5  A    between atoms: _32  and  _33
REMARK    6  A    between atoms: _38  and  _43
REMARK    7  A    between atoms: _43  and  _46
REMARK    8  A    between atoms: _53  and  _55
REMARK                            x       y       z     vdW  Elec       q    Type
REMARK                         _______ _______ _______ _____ _____    ______ ____
ROOT
ATOM     10  C   UNL     1      27.084  38.674  35.539  0.00  0.00    +0.038 A 
ATOM     11  C   UNL     1      28.210  37.821  35.664  0.00  0.00    +0.047 A 
ATOM     12  C   UNL     1      29.468  38.309  36.208  0.00  0.00    +0.035 A 
ATOM     32  C   UNL     1      29.543  39.673  36.617  0.00  0.00    +0.024 A 
ATOM     33  C   UNL     1      28.408  40.554  36.495  0.00  0.00    +0.007 A 
ATOM     34  C   UNL     1      27.166  40.079  35.958  0.00  0.00    -0.029 A 
ATOM     35  C   UNL     1      25.985  41.070  35.845  0.00  0.00    +0.045 C 
ENDROOT
BRANCH  10   9
ATOM      4  C   UNL     1      24.316  37.362  31.844  0.00  0.00    +0.077 A 
ATOM      5  C   UNL     1      25.299  37.775  30.884  0.00  0.00    +0.048 A 
ATOM      6  C   UNL     1      26.501  38.328  31.383  0.00  0.00    +0.116 A 
ATOM      7  N   UNL     1      26.694  38.452  32.741  0.00  0.00    -0.223 NA
ATOM      8  C   UNL     1      25.725  38.044  33.640  0.00  0.00    +0.220 A 
ATOM      9  N   UNL     1      25.901  38.152  35.011  0.00  0.00    -0.283 N 
ATOM     36  H   UNL     1      25.159  37.847  35.640  0.00  0.00    +0.155 HD
ATOM     37  N   UNL     1      24.568  37.515  33.189  0.00  0.00    -0.214 NA
BRANCH   4   3
ATOM      1  C   UNL     1      20.541  36.916  30.922  0.00  0.00    +0.020 A 
ATOM      2  C   UNL     1      21.789  37.549  31.280  0.00  0.00    +0.013 A 
ATOM      3  C   UNL     1      22.998  36.757  31.473  0.00  0.00    +0.019 A 
ATOM     38  C   UNL     1      22.909  35.316  31.294  0.00  0.00    +0.120 A 
ATOM     39  N   UNL     1      21.692  34.734  30.950  0.00  0.00    -0.263 NA
ATOM     40  C   UNL     1      20.523  35.485  30.764  0.00  0.00    +0.111 A 
ENDBRANCH   4   3
ENDBRANCH  10   9
BRANCH  12  13
ATOM     13  N   UNL     1      30.647  37.491  36.352  0.00  0.00    -0.281 N 
ATOM     14  C   UNL     1      31.097  36.839  37.488  0.00  0.00    +0.248 C 
ATOM     30  O   UNL     1      30.666  37.035  38.614  0.00  0.00    -0.270 OA
ATOM     31  H   UNL     1      31.218  37.380  35.514  0.00  0.00    +0.155 HD
BRANCH  14  15
ATOM     15  C   UNL     1      32.195  35.834  37.355  0.00  0.00    +0.037 A 
ATOM     16  C   UNL     1      33.513  36.212  36.838  0.00  0.00    +0.013 A 
ATOM     17  C   UNL     1      34.549  35.219  36.705  0.00  0.00    +0.005 A 
ATOM     18  C   UNL     1      34.272  33.837  37.090  0.00  0.00    -0.033 A 
ATOM     28  C   UNL     1      32.957  33.491  37.605  0.00  0.00    +0.005 A 
ATOM     29  C   UNL     1      31.939  34.461  37.737  0.00  0.00    +0.013 A 
BRANCH  18  19
ATOM     19  C   UNL     1      35.311  32.708  36.962  0.00  0.00    +0.119 C 
BRANCH  19  20
ATOM     20  N   UNL     1      36.270  32.529  38.093  0.00  0.00    -0.302 NA
ATOM     21  C   UNL     1      37.483  33.455  37.970  0.00  0.00    +0.066 C 
ATOM     22  C   UNL     1      38.464  33.270  39.173  0.00  0.00    -0.064 C 
ATOM     23  N   UNL     1      38.905  31.808  39.249  0.00  0.00    +0.379 N 
ATOM     24  C   UNL     1      39.872  31.643  40.343  0.00  0.00    -0.096 C 
ATOM     25  H   UNL     1      39.428  31.563  38.295  0.00  0.00    -0.082 HD
ATOM     26  C   UNL     1      37.704  30.880  39.369  0.00  0.00    -0.064 C 
ATOM     27  C   UNL     1      36.721  31.092  38.184  0.00  0.00    +0.066 C 
ENDBRANCH  19  20
ENDBRANCH  18  19
ENDBRANCH  14  15
ENDBRANCH  12  13
TORSDOF 6
ENDMDL
MODEL 3
REMARK VINA RESULT:      -7.9      2.913     12.229
REMARK  Name = C:\Users\Docking\Desktop\test protocol\1iep_ligandH.pdb
REMARK  8 active torsions:
REMARK  status: ('A' for Active; 'I' for Inactive)
REMARK    1  A    between atoms: _5  and  _11
REMARK    2  A    between atoms: _19  and  _21
REMARK    3  A    between atoms: _22  and  _66
REMARK    4  A    between atoms: _27  and  _30
REMARK    5  A    between atoms: _32  and  _33
REMARK    6  A    between atoms: _38  and  _43
REMARK    7  A    between atoms: _43  and  _46
REMARK    8  A    between atoms: _53  and  _55
REMARK                            x       y       z     vdW  Elec       q    Type
REMARK                         _______ _______ _______ _____ _____    ______ ____
ROOT
ATOM     10  C   UNL     1      30.568  37.445  37.083  0.00  0.00    +0.038 A 
ATOM     11  C   UNL     1      29.603  37.232  36.066  0.00  0.00    +0.047 A 
ATOM     12  C   UNL     1      28.187  37.459  36.312  0.00  0.00    +0.035 A 
ATOM     32  C   UNL     1      27.790  37.905  37.606  0.00  0.00    +0.024 A 
ATOM     33  C   UNL     1      28.758  38.125  38.652  0.00  0.00    +0.007 A 
ATOM     34  C   UNL     1      30.155  37.901  38.415  0.00  0.00    -0.029 A 
ATOM     35  C   UNL     1      31.148  38.147  39.575  0.00  0.00    +0.045 C 
ENDROOT
BRANCH  10   9
ATOM      4  C   UNL     1      34.482  34.667  37.097  0.00  0.00    +0.077 A 
ATOM      5  C   UNL     1      33.795  33.601  37.767  0.00  0.00    +0.048 A 
ATOM      6  C   UNL     1      32.437  33.810  38.097  0.00  0.00    +0.116 A 
ATOM      7  N   UNL     1      31.822  35.000  37.775  0.00  0.00    -0.223 NA
ATOM      8  C   UNL     1      32.514  36.009  37.131  0.00  0.00    +0.220 A 
ATOM      9  N   UNL     1      31.914  37.211  36.791  0.00  0.00    -0.283 N 
ATOM     36  H   UNL     1      32.461  37.933  36.322  0.00  0.00    +0.155 HD
ATOM     37  N   UNL     1      33.812  35.834  36.806  0.00  0.00    -0.214 NA
BRANCH   4   3
ATOM      1  C   UNL     1      38.303  33.837  36.996  0.00  0.00    +0.020 A 
ATOM      2  C   UNL     1      36.930  33.875  37.443  0.00  0.00    +0.013 A 
ATOM      3  C   UNL     1      35.918  34.596  36.680  0.00  0.00    +0.019 A 
ATOM     38  C   UNL     1      36.333  35.272  35.460  0.00  0.00    +0.120 A 
ATOM     39  N   UNL     1      37.663  35.219  35.055  0.00  0.00    -0.263 NA
ATOM     40  C   UNL     1      38.645  34.530  35.782  0.00  0.00    +0.111 A 
ENDBRANCH   4   3
ENDBRANCH  10   9
BRANCH  12  13
ATOM     13  N   UNL     1      27.161  37.253  35.321  0.00  0.00    -0.281 N 
ATOM     14  C   UNL     1      26.417  38.211  34.653  0.00  0.00    +0.248 C 
ATOM     30  O   UNL     1      26.372  39.392  34.964  0.00  0.00    -0.270 OA
ATOM     31  H   UNL     1      26.958  36.282  35.083  0.00  0.00    +0.155 HD
BRANCH  14  15
ATOM     15  C   UNL     1      25.591  37.795  33.478  0.00  0.00    +0.037 A 
ATOM     16  C   UNL     1      24.390  36.974  33.646  0.00  0.00    +0.013 A 
ATOM     17  C   UNL     1      23.622  36.572  32.494  0.00  0.00    +0.005 A 
ATOM     18  C   UNL     1      24.052  36.994  31.164  0.00  0.00    -0.033 A 
ATOM     28  C   UNL     1      25.245  37.813  31.026  0.00  0.00    +0.005 A 
ATOM     29  C   UNL     1      26.002  38.208  32.153  0.00  0.00    +0.013 A 
BRANCH  18  19
ATOM     19  C   UNL     1      23.305  36.595  29.877  0.00  0.00    +0.119 C 
BRANCH  19  20
ATOM     20  N   UNL     1      21.858  36.950  29.789  0.00  0.00    -0.302 NA
ATOM     21  C   UNL     1      20.957  35.823  30.299  0.00  0.00    +0.066 C 
ATOM     22  C   UNL     1      19.447  36.220  30.221  0.00  0.00    -0.064 C 
ATOM     23  N   UNL     1      19.093  36.585  28.778  0.00  0.00    +0.379 N 
ATOM     24  C   UNL     1      17.660  36.903  28.690  0.00  0.00    -0.096 C 
ATOM     25  H   UNL     1      19.279  35.685  28.147  0.00  0.00    -0.082 HD
ATOM     26  C   UNL     1      19.986  37.704  28.261  0.00  0.00    -0.064 C 
ATOM     27  C   UNL     1      21.486  37.310  28.371  0.00  0.00    +0.066 C 
ENDBRANCH  19  20
ENDBRANCH  18  19
ENDBRANCH  14  15
ENDBRANCH  12  13
TORSDOF 6
ENDMDL
MODEL 4
REMARK VINA RESULT:      -7.8      4.449      7.666
REMARK  Name = C:\Users\Docking\Desktop\test protocol\1iep_ligandH.pdb
REMARK  8 active torsions:
REMARK  status: ('A' for Active; 'I' for Inactive)
REMARK    1  A    between atoms: _5  and  _11
REMARK    2  A    between atoms: _19  and  _21
REMARK    3  A    between atoms: _22  and  _66
REMARK    4  A    between atoms: _27  and  _30
REMARK    5  A    between atoms: _32  and  _33
REMARK    6  A    between atoms: _38  and  _43
REMARK    7  A    between atoms: _43  and  _46
REMARK    8  A    between atoms: _53  and  _55
REMARK                            x       y       z     vdW  Elec       q    Type
REMARK                         _______ _______ _______ _____ _____    ______ ____
ROOT
ATOM     10  C   UNL     1      28.392  35.252  33.684  0.00  0.00    +0.038 A 
ATOM     11  C   UNL     1      28.780  36.123  34.733  0.00  0.00    +0.047 A 
ATOM     12  C   UNL     1      30.177  36.269  35.113  0.00  0.00    +0.035 A 
ATOM     32  C   UNL     1      31.153  35.513  34.401  0.00  0.00    +0.024 A 
ATOM     33  C   UNL     1      30.776  34.622  33.332  0.00  0.00    +0.007 A 
ATOM     34  C   UNL     1      29.400  34.472  32.955  0.00  0.00    -0.029 A 
ATOM     35  C   UNL     1      29.054  33.497  31.806  0.00  0.00    +0.045 C 
ENDROOT
BRANCH  10   9
ATOM      4  C   UNL     1      24.399  36.925  31.613  0.00  0.00    +0.077 A 
ATOM      5  C   UNL     1      25.061  38.114  31.160  0.00  0.00    +0.048 A 
ATOM      6  C   UNL     1      26.428  38.260  31.486  0.00  0.00    +0.116 A 
ATOM      7  N   UNL     1      27.074  37.283  32.213  0.00  0.00    -0.223 NA
ATOM      8  C   UNL     1      26.405  36.149  32.636  0.00  0.00    +0.220 A 
ATOM      9  N   UNL     1      27.037  35.151  33.361  0.00  0.00    -0.283 N 
ATOM     36  H   UNL     1      26.507  34.333  33.661  0.00  0.00    +0.155 HD
ATOM     37  N   UNL     1      25.100  35.987  32.338  0.00  0.00    -0.214 NA
BRANCH   4   3
ATOM      1  C   UNL     1      20.575  37.321  30.890  0.00  0.00    +0.020 A 
ATOM      2  C   UNL     1      21.955  37.665  31.147  0.00  0.00    +0.013 A 
ATOM      3  C   UNL     1      22.957  36.625  31.344  0.00  0.00    +0.019 A 
ATOM     38  C   UNL     1      22.527  35.237  31.274  0.00  0.00    +0.120 A 
ATOM     39  N   UNL     1      21.191  34.936  31.026  0.00  0.00    -0.263 NA
ATOM     40  C   UNL     1      20.218  35.928  30.836  0.00  0.00    +0.111 A 
ENDBRANCH   4   3
ENDBRANCH  10   9
BRANCH  12  13
ATOM     13  N   UNL     1      30.629  37.132  36.176  0.00  0.00    -0.281 N 
ATOM     14  C   UNL     1      30.169  38.398  36.499  0.00  0.00    +0.248 C 
ATOM     30  O   UNL     1      29.439  39.071  35.786  0.00  0.00    -0.270 OA
ATOM     31  H   UNL     1      31.380  36.766  36.761  0.00  0.00    +0.155 HD
BRANCH  14  15
ATOM     15  C   UNL     1      30.592  39.012  37.795  0.00  0.00    +0.037 A 
ATOM     16  C   UNL     1      30.884  40.444  37.899  0.00  0.00    +0.013 A 
ATOM     17  C   UNL     1      31.306  41.006  39.157  0.00  0.00    +0.005 A 
ATOM     18  C   UNL     1      31.438  40.136  40.322  0.00  0.00    -0.033 A 
ATOM     28  C   UNL     1      31.137  38.720  40.193  0.00  0.00    +0.005 A 
ATOM     29  C   UNL     1      30.723  38.164  38.961  0.00  0.00    +0.013 A 
BRANCH  18  19
ATOM     19  C   UNL     1      31.903  40.646  41.699  0.00  0.00    +0.119 C 
BRANCH  19  20
ATOM     20  N   UNL     1      32.815  41.829  41.718  0.00  0.00    -0.302 NA
ATOM     21  C   UNL     1      34.286  41.421  41.602  0.00  0.00    +0.066 C 
ATOM     22  C   UNL     1      35.225  42.672  41.600  0.00  0.00    -0.064 C 
ATOM     23  N   UNL     1      34.987  43.486  42.873  0.00  0.00    +0.379 N 
ATOM     24  C   UNL     1      35.908  44.631  42.902  0.00  0.00    -0.096 C 
ATOM     25  H   UNL     1      35.231  42.833  43.743  0.00  0.00    -0.082 HD
ATOM     26  C   UNL     1      33.525  43.893  42.997  0.00  0.00    -0.064 C 
ATOM     27  C   UNL     1      32.599  42.645  42.968  0.00  0.00    +0.066 C 
ENDBRANCH  19  20
ENDBRANCH  18  19
ENDBRANCH  14  15
ENDBRANCH  12  13
TORSDOF 6
ENDMDL
MODEL 5
REMARK VINA RESULT:      -7.8      4.804      7.720
REMARK  Name = C:\Users\Docking\Desktop\test protocol\1iep_ligandH.pdb
REMARK  8 active torsions:
REMARK  status: ('A' for Active; 'I' for Inactive)
REMARK    1  A    between atoms: _5  and  _11
REMARK    2  A    between atoms: _19  and  _21
REMARK    3  A    between atoms: _22  and  _66
REMARK    4  A    between atoms: _27  and  _30
REMARK    5  A    between atoms: _32  and  _33
REMARK    6  A    between atoms: _38  and  _43
REMARK    7  A    between atoms: _43  and  _46
REMARK    8  A    between atoms: _53  and  _55
REMARK                            x       y       z     vdW  Elec       q    Type
REMARK                         _______ _______ _______ _____ _____    ______ ____
ROOT
ATOM     10  C   UNL     1      25.480  35.530  32.813  0.00  0.00    +0.038 A 
ATOM     11  C   UNL     1      26.246  36.588  33.367  0.00  0.00    +0.047 A 
ATOM     12  C   UNL     1      27.608  36.370  33.828  0.00  0.00    +0.035 A 
ATOM     32  C   UNL     1      28.160  35.062  33.708  0.00  0.00    +0.024 A 
ATOM     33  C   UNL     1      27.396  33.975  33.149  0.00  0.00    +0.007 A 
ATOM     34  C   UNL     1      26.051  34.183  32.694  0.00  0.00    -0.029 A 
ATOM     35  C   UNL     1      25.277  32.980  32.108  0.00  0.00    +0.045 C 
ENDROOT
BRANCH  10   9
ATOM      4  C   UNL     1      22.293  36.679  29.414  0.00  0.00    +0.077 A 
ATOM      5  C   UNL     1      23.312  36.786  28.410  0.00  0.00    +0.048 A 
ATOM      6  C   UNL     1      24.645  36.544  28.811  0.00  0.00    +0.116 A 
ATOM      7  N   UNL     1      24.926  36.220  30.121  0.00  0.00    -0.223 NA
ATOM      8  C   UNL     1      23.919  36.128  31.064  0.00  0.00    +0.220 A 
ATOM      9  N   UNL     1      24.178  35.796  32.385  0.00  0.00    -0.283 N 
ATOM     36  H   UNL     1      23.408  35.745  33.052  0.00  0.00    +0.155 HD
ATOM     37  N   UNL     1      22.638  36.356  30.707  0.00  0.00    -0.214 NA
BRANCH   4   3
ATOM      1  C   UNL     1      18.390  36.527  29.629  0.00  0.00    +0.020 A 
ATOM      2  C   UNL     1      19.781  36.277  29.930  0.00  0.00    +0.013 A 
ATOM      3  C   UNL     1      20.837  36.903  29.144  0.00  0.00    +0.019 A 
ATOM     38  C   UNL     1      20.449  37.782  28.052  0.00  0.00    +0.120 A 
ATOM     39  N   UNL     1      19.101  38.002  27.784  0.00  0.00    -0.263 NA
ATOM     40  C   UNL     1      18.076  37.404  28.532  0.00  0.00    +0.111 A 
ENDBRANCH   4   3
ENDBRANCH  10   9
BRANCH  12  13
ATOM     13  N   UNL     1      28.430  37.404  34.407  0.00  0.00    -0.281 N 
ATOM     14  C   UNL     1      28.568  37.733  35.745  0.00  0.00    +0.248 C 
ATOM     30  O   UNL     1      27.837  37.326  36.636  0.00  0.00    -0.270 OA
ATOM     31  H   UNL     1      28.977  37.961  33.750  0.00  0.00    +0.155 HD
BRANCH  14  15
ATOM     15  C   UNL     1      29.667  38.661  36.151  0.00  0.00    +0.037 A 
ATOM     16  C   UNL     1      30.981  38.152  36.552  0.00  0.00    +0.013 A 
ATOM     17  C   UNL     1      32.019  39.068  36.956  0.00  0.00    +0.005 A 
ATOM     18  C   UNL     1      31.746  40.503  36.958  0.00  0.00    -0.033 A 
ATOM     28  C   UNL     1      30.435  40.981  36.551  0.00  0.00    +0.005 A 
ATOM     29  C   UNL     1      29.416  40.086  36.156  0.00  0.00    +0.013 A 
BRANCH  18  19
ATOM     19  C   UNL     1      32.787  41.551  37.394  0.00  0.00    +0.119 C 
BRANCH  19  20
ATOM     20  N   UNL     1      32.967  41.768  38.860  0.00  0.00    -0.302 NA
ATOM     21  C   UNL     1      31.920  42.727  39.432  0.00  0.00    +0.066 C 
ATOM     22  C   UNL     1      32.109  42.925  40.971  0.00  0.00    -0.064 C 
ATOM     23  N   UNL     1      33.523  43.440  41.247  0.00  0.00    +0.379 N 
ATOM     24  C   UNL     1      33.685  43.682  42.688  0.00  0.00    -0.096 C 
ATOM     25  H   UNL     1      33.633  44.419  40.724  0.00  0.00    -0.082 HD
ATOM     26  C   UNL     1      34.571  42.494  40.679  0.00  0.00    -0.064 C 
ATOM     27  C   UNL     1      34.356  42.281  39.154  0.00  0.00    +0.066 C 
ENDBRANCH  19  20
ENDBRANCH  18  19
ENDBRANCH  14  15
ENDBRANCH  12  13
TORSDOF 6
ENDMDL
