MODEL 1
REMARK VINA RESULT:      -8.0      0.000      0.000
REMARK  Name = C:\Users\Docking\Desktop\test protocol\1iep_ligandH.pdb
REMARK  8 active torsions:
REMARK  status: ('A' for Active; 'I' for Inactive)
REMARK    1  A    between atoms: _5  and  _11
REMARK    2  A    between atoms: _19  and  _21
REMARK    3  A    between atoms: _22  and  _66
REMARK    4  A    between atoms: _27  and  _30
REMARK    5  A    between atoms: _32  and  _33
REMARK    6  A    between atoms: _38  and  _43
REMARK    7  A    between atoms: _43  and  _46
REMARK    8  A    between atoms: _53  and  _55
REMARK                            x       y       z     vdW  Elec       q    Type
REMARK                         _______ _______ _______ _____ _____    ______ ____
ROOT
ATOM     10  C   UNL     1      15.050 -28.394  35.585  0.00  0.00    +0.038 A 
ATOM     11  C   UNL     1      14.645 -29.716  35.268  0.00  0.00    +0.047 A 
ATOM     12  C   UNL     1      15.389 -30.867  35.755  0.00  0.00    +0.035 A 
ATOM     32  C   UNL     1      16.538 -30.635  36.565  0.00  0.00    +0.024 A 
ATOM     33  C   UNL     1      16.964 -29.298  36.896  0.00  0.00    +0.007 A 
ATOM     34  C   UNL     1      16.236 -28.158  36.416  0.00  0.00    -0.029 A 
ATOM     35  C   UNL     1      16.742 -26.747  36.797  0.00  0.00    +0.045 C 
ENDROOT
BRANCH  10   9
ATOM      4  C   UNL     1      11.555 -25.129  35.993  0.00  0.00    +0.077 A 
ATOM      5  C   UNL     1      11.175 -25.611  37.289  0.00  0.00    +0.048 A 
ATOM      6  C   UNL     1      11.900 -26.705  37.813  0.00  0.00    +0.116 A 
ATOM      7  N   UNL     1      12.926 -27.268  37.085  0.00  0.00    -0.223 NA
ATOM      8  C   UNL     1      13.265 -26.780  35.836  0.00  0.00    +0.220 A 
ATOM      9  N   UNL     1      14.299 -27.325  35.090  0.00  0.00    -0.283 N 
ATOM     36  H   UNL     1      14.513 -26.941  34.170  0.00  0.00    +0.155 HD
ATOM     37  N   UNL     1      12.587 -25.737  35.314  0.00  0.00    -0.214 NA
BRANCH   4   3
ATOM      1  C   UNL     1      10.901 -21.974  33.775  0.00  0.00    +0.020 A 
ATOM      2  C   UNL     1      11.593 -23.070  34.412  0.00  0.00    +0.013 A 
ATOM      3  C   UNL     1      10.886 -23.978  35.307  0.00  0.00    +0.019 A 
ATOM     38  C   UNL     1       9.468 -23.749  35.536  0.00  0.00    +0.120 A 
ATOM     39  N   UNL     1       8.828 -22.684  34.909  0.00  0.00    -0.263 NA
ATOM     40  C   UNL     1       9.498 -21.803  34.048  0.00  0.00    +0.111 A 
ENDBRANCH   4   3
ENDBRANCH  10   9
BRANCH  12  13
ATOM     13  N   UNL     1      15.031 -32.232  35.459  0.00  0.00    -0.281 N 
ATOM     14  C   UNL     1      15.203 -32.919  34.269  0.00  0.00    +0.248 C 
ATOM     30  O   UNL     1      15.499 -32.395  33.205  0.00  0.00    -0.270 OA
ATOM     31  H   UNL     1      14.598 -32.756  36.220  0.00  0.00    +0.155 HD
BRANCH  14  15
ATOM     15  C   UNL     1      15.004 -34.400  34.255  0.00  0.00    +0.037 A 
ATOM     16  C   UNL     1      15.948 -35.300  34.922  0.00  0.00    +0.013 A 
ATOM     17  C   UNL     1      15.741 -36.726  34.879  0.00  0.00    +0.005 A 
ATOM     18  C   UNL     1      14.584 -37.261  34.165  0.00  0.00    -0.033 A 
ATOM     28  C   UNL     1      13.661 -36.345  33.516  0.00  0.00    +0.005 A 
ATOM     29  C   UNL     1      13.861 -34.947  33.555  0.00  0.00    +0.013 A 
BRANCH  18  19
ATOM     19  C   UNL     1      14.297 -38.770  34.049  0.00  0.00    +0.119 C 
BRANCH  19  20
ATOM     20  N   UNL     1      14.098 -39.324  32.677  0.00  0.00    -0.302 NA
ATOM     21  C   UNL     1      12.684 -39.878  32.481  0.00  0.00    +0.066 C 
ATOM     22  C   UNL     1      12.485 -40.434  31.033  0.00  0.00    -0.064 C 
ATOM     23  N   UNL     1      13.533 -41.513  30.756  0.00  0.00    +0.379 N 
ATOM     24  C   UNL     1      13.313 -42.078  29.417  0.00  0.00    -0.096 C 
ATOM     25  H   UNL     1      13.380 -42.331  31.498  0.00  0.00    -0.082 HD
ATOM     26  C   UNL     1      14.942 -40.971  30.951  0.00  0.00    -0.064 C 
ATOM     27  C   UNL     1      15.120 -40.395  32.383  0.00  0.00    +0.066 C 
ENDBRANCH  19  20
ENDBRANCH  18  19
ENDBRANCH  14  15
ENDBRANCH  12  13
TORSDOF 6
ENDMDL
MODEL 2
REMARK VINA RESULT:      -7.9      3.955     13.310
REMARK  Name = C:\Users\Docking\Desktop\test protocol\1iep_ligandH.pdb
REMARK  8 active torsions:
REMARK  status: ('A' for Active; 'I' for Inactive)
REMARK    1  A    between atoms: _5  and  _11
REMARK    2  A    between atoms: _19  and  _21
REMARK    3  A    between atoms: _22  and  _66
REMARK    4  A    between atoms: _27  and  _30
REMARK    5  A    between atoms: _32  and  _33
REMARK    6  A    between atoms: _38  and  _43
REMARK    7  A    between atoms: _43  and  _46
REMARK    8  A    between atoms: _53  and  _55
REMARK                            x       y       z     vdW  Elec       q    Type
REMARK                         _______ _______ _______ _____ _____    ______ ____
ROOT
ATOM     10  C   UNL     1      16.824 -35.021  34.528  0.00  0.00    +0.038 A 
ATOM     11  C   UNL     1      16.253 -33.780  34.906  0.00  0.00    +0.047 A 
ATOM     12  C   UNL     1      15.909 -32.776  33.911  0.00  0.00    +0.035 A 
ATOM     32  C   UNL     1      16.158 -33.071  32.539  0.00  0.00    +0.024 A 
ATOM     33  C   UNL     1      16.739 -34.328  32.137  0.00  0.00    +0.007 A 
ATOM     34  C   UNL     1      17.083 -35.321  33.115  0.00  0.00    -0.029 A 
ATOM     35  C   UNL     1      17.710 -36.648  32.627  0.00  0.00    +0.045 C 
ENDROOT
BRANCH  10   9
ATOM      4  C   UNL     1      19.874 -37.014  37.653  0.00  0.00    +0.077 A 
ATOM      5  C   UNL     1      20.947 -36.153  37.246  0.00  0.00    +0.048 A 
ATOM      6  C   UNL     1      20.674 -35.216  36.224  0.00  0.00    +0.116 A 
ATOM      7  N   UNL     1      19.419 -35.153  35.659  0.00  0.00    -0.223 NA
ATOM      8  C   UNL     1      18.407 -36.000  36.074  0.00  0.00    +0.220 A 
ATOM      9  N   UNL     1      17.135 -35.949  35.525  0.00  0.00    -0.283 N 
ATOM     36  H   UNL     1      16.418 -36.596  35.853  0.00  0.00    +0.155 HD
ATOM     37  N   UNL     1      18.643 -36.905  37.047  0.00  0.00    -0.214 NA
BRANCH   4   3
ATOM      1  C   UNL     1      21.163 -40.019  39.800  0.00  0.00    +0.020 A 
ATOM      2  C   UNL     1      21.082 -39.037  38.744  0.00  0.00    +0.013 A 
ATOM      3  C   UNL     1      20.005 -38.054  38.722  0.00  0.00    +0.019 A 
ATOM     38  C   UNL     1      19.020 -38.093  39.792  0.00  0.00    +0.120 A 
ATOM     39  N   UNL     1      19.123 -39.052  40.795  0.00  0.00    -0.263 NA
ATOM     40  C   UNL     1      20.153 -40.004  40.825  0.00  0.00    +0.111 A 
ENDBRANCH   4   3
ENDBRANCH  10   9
BRANCH  12  13
ATOM     13  N   UNL     1      15.333 -31.494  34.236  0.00  0.00    -0.281 N 
ATOM     14  C   UNL     1      14.031 -31.068  34.031  0.00  0.00    +0.248 C 
ATOM     30  O   UNL     1      13.213 -31.655  33.338  0.00  0.00    -0.270 OA
ATOM     31  H   UNL     1      15.963 -30.819  34.670  0.00  0.00    +0.155 HD
BRANCH  14  15
ATOM     15  C   UNL     1      13.576 -29.800  34.677  0.00  0.00    +0.037 A 
ATOM     16  C   UNL     1      12.521 -29.801  35.694  0.00  0.00    +0.013 A 
ATOM     17  C   UNL     1      12.089 -28.562  36.289  0.00  0.00    +0.005 A 
ATOM     18  C   UNL     1      12.713 -27.310  35.869  0.00  0.00    -0.033 A 
ATOM     28  C   UNL     1      13.761 -27.338  34.862  0.00  0.00    +0.005 A 
ATOM     29  C   UNL     1      14.186 -28.551  34.275  0.00  0.00    +0.013 A 
BRANCH  18  19
ATOM     19  C   UNL     1      12.300 -25.938  36.435  0.00  0.00    +0.119 C 
BRANCH  19  20
ATOM     20  N   UNL     1      11.555 -25.019  35.524  0.00  0.00    -0.302 NA
ATOM     21  C   UNL     1      12.466 -23.945  34.921  0.00  0.00    +0.066 C 
ATOM     22  C   UNL     1      11.675 -23.006  33.953  0.00  0.00    -0.064 C 
ATOM     23  N   UNL     1      10.509 -22.365  34.708  0.00  0.00    +0.379 N 
ATOM     24  C   UNL     1       9.798 -21.437  33.816  0.00  0.00    -0.096 C 
ATOM     25  H   UNL     1      10.937 -21.768  35.546  0.00  0.00    -0.082 HD
ATOM     26  C   UNL     1       9.600 -23.426  35.313  0.00  0.00    -0.064 C 
ATOM     27  C   UNL     1      10.402 -24.371  36.250  0.00  0.00    +0.066 C 
ENDBRANCH  19  20
ENDBRANCH  18  19
ENDBRANCH  14  15
ENDBRANCH  12  13
TORSDOF 6
ENDMDL
MODEL 3
REMARK VINA RESULT:      -7.9      5.214      7.223
REMARK  Name = C:\Users\Docking\Desktop\test protocol\1iep_ligandH.pdb
REMARK  8 active torsions:
REMARK  status: ('A' for Active; 'I' for Inactive)
REMARK    1  A    between atoms: _5  and  _11
REMARK    2  A    between atoms: _19  and  _21
REMARK    3  A    between atoms: _22  and  _66
REMARK    4  A    between atoms: _27  and  _30
REMARK    5  A    between atoms: _32  and  _33
REMARK    6  A    between atoms: _38  and  _43
REMARK    7  A    between atoms: _43  and  _46
REMARK    8  A    between atoms: _53  and  _55
REMARK                            x       y       z     vdW  Elec       q    Type
REMARK                         _______ _______ _______ _____ _____    ______ ____
ROOT
ATOM     10  C   UNL     1      14.415 -32.405  33.429  0.00  0.00    +0.038 A 
ATOM     11  C   UNL     1      15.415 -32.954  34.271  0.00  0.00    +0.047 A 
ATOM     12  C   UNL     1      15.588 -34.393  34.395  0.00  0.00    +0.035 A 
ATOM     32  C   UNL     1      14.726 -35.245  33.644  0.00  0.00    +0.024 A 
ATOM     33  C   UNL     1      13.703 -34.703  32.784  0.00  0.00    +0.007 A 
ATOM     34  C   UNL     1      13.527 -33.285  32.659  0.00  0.00    -0.029 A 
ATOM     35  C   UNL     1      12.409 -32.761  31.727  0.00  0.00    +0.045 C 
ENDROOT
BRANCH  10   9
ATOM      4  C   UNL     1      12.858 -28.188  35.109  0.00  0.00    +0.077 A 
ATOM      5  C   UNL     1      12.210 -28.806  36.229  0.00  0.00    +0.048 A 
ATOM      6  C   UNL     1      12.294 -30.213  36.332  0.00  0.00    +0.116 A 
ATOM      7  N   UNL     1      12.980 -30.937  35.381  0.00  0.00    -0.223 NA
ATOM      8  C   UNL     1      13.592 -30.309  34.312  0.00  0.00    +0.220 A 
ATOM      9  N   UNL     1      14.293 -31.016  33.348  0.00  0.00    -0.283 N 
ATOM     36  H   UNL     1      14.725 -30.517  32.570  0.00  0.00    +0.155 HD
ATOM     37  N   UNL     1      13.525 -28.967  34.190  0.00  0.00    -0.214 NA
BRANCH   4   3
ATOM      1  C   UNL     1      11.856 -24.600  33.916  0.00  0.00    +0.020 A 
ATOM      2  C   UNL     1      11.806 -26.029  34.124  0.00  0.00    +0.013 A 
ATOM      3  C   UNL     1      12.861 -26.711  34.864  0.00  0.00    +0.019 A 
ATOM     38  C   UNL     1      13.960 -25.912  35.384  0.00  0.00    +0.120 A 
ATOM     39  N   UNL     1      13.982 -24.538  35.166  0.00  0.00    -0.263 NA
ATOM     40  C   UNL     1      12.974 -23.871  34.454  0.00  0.00    +0.111 A 
ENDBRANCH   4   3
ENDBRANCH  10   9
BRANCH  12  13
ATOM     13  N   UNL     1      16.581 -35.009  35.240  0.00  0.00    -0.281 N 
ATOM     14  C   UNL     1      17.745 -35.655  34.856  0.00  0.00    +0.248 C 
ATOM     30  O   UNL     1      18.003 -35.990  33.710  0.00  0.00    -0.270 OA
ATOM     31  H   UNL     1      16.405 -34.962  36.244  0.00  0.00    +0.155 HD
BRANCH  14  15
ATOM     15  C   UNL     1      18.763 -35.989  35.899  0.00  0.00    +0.037 A 
ATOM     16  C   UNL     1      20.135 -35.485  35.810  0.00  0.00    +0.013 A 
ATOM     17  C   UNL     1      21.102 -35.837  36.820  0.00  0.00    +0.005 A 
ATOM     18  C   UNL     1      20.698 -36.698  37.929  0.00  0.00    -0.033 A 
ATOM     28  C   UNL     1      19.328 -37.180  37.995  0.00  0.00    +0.005 A 
ATOM     29  C   UNL     1      18.378 -36.838  37.006  0.00  0.00    +0.013 A 
BRANCH  18  19
ATOM     19  C   UNL     1      21.668 -37.141  39.040  0.00  0.00    +0.119 C 
BRANCH  19  20
ATOM     20  N   UNL     1      22.640 -38.224  38.706  0.00  0.00    -0.302 NA
ATOM     21  C   UNL     1      21.999 -39.613  38.770  0.00  0.00    +0.066 C 
ATOM     22  C   UNL     1      23.024 -40.732  38.396  0.00  0.00    -0.064 C 
ATOM     23  N   UNL     1      24.230 -40.649  39.333  0.00  0.00    +0.379 N 
ATOM     24  C   UNL     1      25.170 -41.736  39.022  0.00  0.00    -0.096 C 
ATOM     25  H   UNL     1      23.862 -40.807  40.374  0.00  0.00    -0.082 HD
ATOM     26  C   UNL     1      24.873 -39.270  39.277  0.00  0.00    -0.064 C 
ATOM     27  C   UNL     1      23.838 -38.163  39.622  0.00  0.00    +0.066 C 
ENDBRANCH  19  20
ENDBRANCH  18  19
ENDBRANCH  14  15
ENDBRANCH  12  13
TORSDOF 6
ENDMDL
MODEL 4
REMARK VINA RESULT:      -7.8     16.225     19.775
REMARK  Name = C:\Users\Docking\Desktop\test protocol\1iep_ligandH.pdb
REMARK  8 active torsions:
REMARK  status: ('A' for Active; 'I' for Inactive)
REMARK    1  A    between atoms: _5  and  _11
REMARK    2  A    between atoms: _19  and  _21
REMARK    3  A    between atoms: _22  and  _66
REMARK    4  A    between atoms: _27  and  _30
REMARK    5  A    between atoms: _32  and  _33
REMARK    6  A    between atoms: _38  and  _43
REMARK    7  A    between atoms: _43  and  _46
REMARK    8  A    between atoms: _53  and  _55
REMARK                            x       y       z     vdW  Elec       q    Type
REMARK                         _______ _______ _______ _____ _____    ______ ____
ROOT
ATOM     10  C   UNL     1      22.223 -18.416  43.298  0.00  0.00    +0.038 A 
ATOM     11  C   UNL     1      21.917 -17.785  42.065  0.00  0.00    +0.047 A 
ATOM     12  C   UNL     1      20.760 -18.188  41.280  0.00  0.00    +0.035 A 
ATOM     32  C   UNL     1      19.935 -19.237  41.782  0.00  0.00    +0.024 A 
ATOM     33  C   UNL     1      20.233 -19.890  43.032  0.00  0.00    +0.007 A 
ATOM     34  C   UNL     1      21.373 -19.498  43.810  0.00  0.00    -0.029 A 
ATOM     35  C   UNL     1      21.648 -20.238  45.140  0.00  0.00    +0.045 C 
ENDROOT
BRANCH  10   9
ATOM      4  C   UNL     1      26.910 -18.595  44.317  0.00  0.00    +0.077 A 
ATOM      5  C   UNL     1      27.136 -19.647  43.368  0.00  0.00    +0.048 A 
ATOM      6  C   UNL     1      26.019 -20.119  42.643  0.00  0.00    +0.116 A 
ATOM      7  N   UNL     1      24.773 -19.572  42.859  0.00  0.00    -0.223 NA
ATOM      8  C   UNL     1      24.589 -18.559  43.783  0.00  0.00    +0.220 A 
ATOM      9  N   UNL     1      23.346 -17.989  44.010  0.00  0.00    -0.283 N 
ATOM     36  H   UNL     1      23.250 -17.249  44.706  0.00  0.00    +0.155 HD
ATOM     37  N   UNL     1      25.639 -18.092  44.489  0.00  0.00    -0.214 NA
BRANCH   4   3
ATOM      1  C   UNL     1      30.226 -18.067  46.323  0.00  0.00    +0.020 A 
ATOM      2  C   UNL     1      29.213 -18.699  45.509  0.00  0.00    +0.013 A 
ATOM      3  C   UNL     1      27.991 -17.988  45.157  0.00  0.00    +0.019 A 
ATOM     38  C   UNL     1      27.823 -16.628  45.647  0.00  0.00    +0.120 A 
ATOM     39  N   UNL     1      28.815 -16.046  46.430  0.00  0.00    -0.263 NA
ATOM     40  C   UNL     1      29.995 -16.721  46.777  0.00  0.00    +0.111 A 
ENDBRANCH   4   3
ENDBRANCH  10   9
BRANCH  12  13
ATOM     13  N   UNL     1      20.404 -17.589  40.018  0.00  0.00    -0.281 N 
ATOM     14  C   UNL     1      20.137 -18.227  38.818  0.00  0.00    +0.248 C 
ATOM     30  O   UNL     1      20.374 -19.405  38.593  0.00  0.00    -0.270 OA
ATOM     31  H   UNL     1      20.341 -16.571  40.008  0.00  0.00    +0.155 HD
BRANCH  14  15
ATOM     15  C   UNL     1      19.533 -17.440  37.700  0.00  0.00    +0.037 A 
ATOM     16  C   UNL     1      20.166 -16.215  37.204  0.00  0.00    +0.013 A 
ATOM     17  C   UNL     1      19.553 -15.466  36.136  0.00  0.00    +0.005 A 
ATOM     18  C   UNL     1      18.299 -15.940  35.556  0.00  0.00    -0.033 A 
ATOM     28  C   UNL     1      17.695 -17.161  36.064  0.00  0.00    +0.005 A 
ATOM     29  C   UNL     1      18.293 -17.898  37.111  0.00  0.00    +0.013 A 
BRANCH  18  19
ATOM     19  C   UNL     1      17.564 -15.193  34.428  0.00  0.00    +0.119 C 
BRANCH  19  20
ATOM     20  N   UNL     1      17.786 -15.673  33.031  0.00  0.00    -0.302 NA
ATOM     21  C   UNL     1      18.087 -14.521  32.069  0.00  0.00    +0.066 C 
ATOM     22  C   UNL     1      18.339 -15.043  30.617  0.00  0.00    -0.064 C 
ATOM     23  N   UNL     1      17.120 -15.838  30.145  0.00  0.00    +0.379 N 
ATOM     24  C   UNL     1      17.330 -16.282  28.759  0.00  0.00    -0.096 C 
ATOM     25  H   UNL     1      16.244 -15.148  30.151  0.00  0.00    -0.082 HD
ATOM     26  C   UNL     1      16.811 -16.984  31.098  0.00  0.00    -0.064 C 
ATOM     27  C   UNL     1      16.592 -16.457  32.544  0.00  0.00    +0.066 C 
ENDBRANCH  19  20
ENDBRANCH  18  19
ENDBRANCH  14  15
ENDBRANCH  12  13
TORSDOF 6
ENDMDL
MODEL 5
REMARK VINA RESULT:      -7.8     15.603     18.222
REMARK  Name = C:\Users\Docking\Desktop\test protocol\1iep_ligandH.pdb
REMARK  8 active torsions:
REMARK  status: ('A' for Active; 'I' for Inactive)
REMARK    1  A    between atoms: _5  and  _11
REMARK    2  A    between atoms: _19  and  _21
REMARK    3  A    between atoms: _22  and  _66
REMARK    4  A    between atoms: _27  and  _30
REMARK    5  A    between atoms: _32  and  _33
REMARK    6  A    between atoms: _38  and  _43
REMARK    7  A    between atoms: _43  and  _46
REMARK    8  A    between atoms: _53  and  _55
REMARK                            x       y       z     vdW  Elec       q    Type
REMARK                         _______ _______ _______ _____ _____    ______ ____
ROOT
ATOM     10  C   UNL     1      16.633 -17.655  35.902  0.00  0.00    +0.038 A 
ATOM     11  C   UNL     1      17.689 -18.010  36.780  0.00  0.00    +0.047 A 
ATOM     12  C   UNL     1      17.460 -18.166  38.208  0.00  0.00    +0.035 A 
ATOM     32  C   UNL     1      16.142 -17.956  38.708  0.00  0.00    +0.024 A 
ATOM     33  C   UNL     1      15.057 -17.594  37.830  0.00  0.00    +0.007 A 
ATOM     34  C   UNL     1      15.277 -17.436  36.421  0.00  0.00    -0.029 A 
ATOM     35  C   UNL     1      14.078 -17.040  35.528  0.00  0.00    +0.045 C 
ENDROOT
BRANCH  10   9
ATOM      4  C   UNL     1      17.695 -15.005  32.044  0.00  0.00    +0.077 A 
ATOM      5  C   UNL     1      17.671 -13.787  32.801  0.00  0.00    +0.048 A 
ATOM      6  C   UNL     1      17.375 -13.884  34.179  0.00  0.00    +0.116 A 
ATOM      7  N   UNL     1      17.123 -15.114  34.747  0.00  0.00    -0.223 NA
ATOM      8  C   UNL     1      17.151 -16.270  33.988  0.00  0.00    +0.220 A 
ATOM      9  N   UNL     1      16.909 -17.518  34.540  0.00  0.00    -0.283 N 
ATOM     36  H   UNL     1      16.932 -18.346  33.945  0.00  0.00    +0.155 HD
ATOM     37  N   UNL     1      17.431 -16.203  32.669  0.00  0.00    -0.214 NA
BRANCH   4   3
ATOM      1  C   UNL     1      19.281 -14.353  28.528  0.00  0.00    +0.020 A 
ATOM      2  C   UNL     1      19.031 -14.256  29.948  0.00  0.00    +0.013 A 
ATOM      3  C   UNL     1      17.995 -15.065  30.578  0.00  0.00    +0.019 A 
ATOM     38  C   UNL     1      17.226 -15.970  29.738  0.00  0.00    +0.120 A 
ATOM     39  N   UNL     1      17.488 -16.041  28.373  0.00  0.00    -0.263 NA
ATOM     40  C   UNL     1      18.481 -15.266  27.755  0.00  0.00    +0.111 A 
ENDBRANCH   4   3
ENDBRANCH  10   9
BRANCH  12  13
ATOM     13  N   UNL     1      18.495 -18.518  39.148  0.00  0.00    -0.281 N 
ATOM     14  C   UNL     1      19.503 -17.708  39.647  0.00  0.00    +0.248 C 
ATOM     30  O   UNL     1      19.797 -16.612  39.194  0.00  0.00    -0.270 OA
ATOM     31  H   UNL     1      18.483 -19.480  39.488  0.00  0.00    +0.155 HD
BRANCH  14  15
ATOM     15  C   UNL     1      20.310 -18.193  40.808  0.00  0.00    +0.037 A 
ATOM     16  C   UNL     1      19.776 -19.186  41.743  0.00  0.00    +0.013 A 
ATOM     17  C   UNL     1      20.570 -19.624  42.864  0.00  0.00    +0.005 A 
ATOM     18  C   UNL     1      21.908 -19.070  43.055  0.00  0.00    -0.033 A 
ATOM     28  C   UNL     1      22.415 -18.090  42.108  0.00  0.00    +0.005 A 
ATOM     29  C   UNL     1      21.640 -17.657  41.009  0.00  0.00    +0.013 A 
BRANCH  18  19
ATOM     19  C   UNL     1      22.816 -19.463  44.234  0.00  0.00    +0.119 C 
BRANCH  19  20
ATOM     20  N   UNL     1      24.287 -19.281  44.055  0.00  0.00    -0.302 NA
ATOM     21  C   UNL     1      25.062 -20.576  44.314  0.00  0.00    +0.066 C 
ATOM     22  C   UNL     1      26.598 -20.374  44.100  0.00  0.00    -0.064 C 
ATOM     23  N   UNL     1      27.094 -19.253  45.015  0.00  0.00    +0.379 N 
ATOM     24  C   UNL     1      28.548 -19.099  44.859  0.00  0.00    -0.096 C 
ATOM     25  H   UNL     1      26.898 -19.564  46.068  0.00  0.00    -0.082 HD
ATOM     26  C   UNL     1      26.327 -17.962  44.766  0.00  0.00    -0.064 C 
ATOM     27  C   UNL     1      24.799 -18.182  44.952  0.00  0.00    +0.066 C 
ENDBRANCH  19  20
ENDBRANCH  18  19
ENDBRANCH  14  15
ENDBRANCH  12  13
TORSDOF 6
ENDMDL
