MODEL 1
REMARK VINA RESULT:      -7.6      0.000      0.000
REMARK  Name = C:\Users\Docking\Desktop\test protocol\1iep_ligandH.pdb
REMARK  8 active torsions:
REMARK  status: ('A' for Active; 'I' for Inactive)
REMARK    1  A    between atoms: _5  and  _11
REMARK    2  A    between atoms: _19  and  _21
REMARK    3  A    between atoms: _22  and  _66
REMARK    4  A    between atoms: _27  and  _30
REMARK    5  A    between atoms: _32  and  _33
REMARK    6  A    between atoms: _38  and  _43
REMARK    7  A    between atoms: _43  and  _46
REMARK    8  A    between atoms: _53  and  _55
REMARK                            x       y       z     vdW  Elec       q    Type
REMARK                         _______ _______ _______ _____ _____    ______ ____
ROOT
ATOM     10  C   UNL     1       1.883  34.183   2.054  0.00  0.00    +0.038 A 
ATOM     11  C   UNL     1       1.264  33.649   0.895  0.00  0.00    +0.047 A 
ATOM     12  C   UNL     1       2.018  33.434  -0.330  0.00  0.00    +0.035 A 
ATOM     32  C   UNL     1       3.403  33.771  -0.338  0.00  0.00    +0.024 A 
ATOM     33  C   UNL     1       4.048  34.315   0.831  0.00  0.00    +0.007 A 
ATOM     34  C   UNL     1       3.308  34.532   2.041  0.00  0.00    -0.029 A 
ATOM     35  C   UNL     1       4.050  35.125   3.261  0.00  0.00    +0.045 C 
ENDROOT
BRANCH  10   9
ATOM      4  C   UNL     1      -0.208  32.558   6.057  0.00  0.00    +0.077 A 
ATOM      5  C   UNL     1       0.254  31.220   5.826  0.00  0.00    +0.048 A 
ATOM      6  C   UNL     1       1.021  30.990   4.662  0.00  0.00    +0.116 A 
ATOM      7  N   UNL     1       1.299  32.029   3.800  0.00  0.00    -0.223 NA
ATOM      8  C   UNL     1       0.836  33.308   4.052  0.00  0.00    +0.220 A 
ATOM      9  N   UNL     1       1.111  34.369   3.203  0.00  0.00    -0.283 N 
ATOM     36  H   UNL     1       0.745  35.296   3.420  0.00  0.00    +0.155 HD
ATOM     37  N   UNL     1       0.101  33.552   5.156  0.00  0.00    -0.214 NA
BRANCH   4   3
ATOM      1  C   UNL     1      -1.320  34.099   9.477  0.00  0.00    +0.020 A 
ATOM      2  C   UNL     1      -0.486  33.736   8.353  0.00  0.00    +0.013 A 
ATOM      3  C   UNL     1      -1.027  32.960   7.245  0.00  0.00    +0.019 A 
ATOM     38  C   UNL     1      -2.426  32.564   7.303  0.00  0.00    +0.120 A 
ATOM     39  N   UNL     1      -3.204  32.926   8.399  0.00  0.00    -0.263 NA
ATOM     40  C   UNL     1      -2.694  33.671   9.472  0.00  0.00    +0.111 A 
ENDBRANCH   4   3
ENDBRANCH  10   9
BRANCH  12  13
ATOM     13  N   UNL     1       1.441  32.902  -1.540  0.00  0.00    -0.281 N 
ATOM     14  C   UNL     1       1.264  33.547  -2.753  0.00  0.00    +0.248 C 
ATOM     30  O   UNL     1       1.381  34.752  -2.919  0.00  0.00    -0.270 OA
ATOM     31  H   UNL     1       1.125  31.934  -1.497  0.00  0.00    +0.155 HD
BRANCH  14  15
ATOM     15  C   UNL     1       0.889  32.738  -3.953  0.00  0.00    +0.037 A 
ATOM     16  C   UNL     1       1.694  32.775  -5.176  0.00  0.00    +0.013 A 
ATOM     17  C   UNL     1       1.301  31.998  -6.325  0.00  0.00    +0.005 A 
ATOM     18  C   UNL     1       0.095  31.176  -6.254  0.00  0.00    -0.033 A 
ATOM     28  C   UNL     1      -0.682  31.154  -5.026  0.00  0.00    +0.005 A 
ATOM     29  C   UNL     1      -0.300  31.915  -3.899  0.00  0.00    +0.013 A 
BRANCH  18  19
ATOM     19  C   UNL     1      -0.412  30.331  -7.438  0.00  0.00    +0.119 C 
BRANCH  19  20
ATOM     20  N   UNL     1      -0.133  30.844  -8.813  0.00  0.00    -0.302 NA
ATOM     21  C   UNL     1      -0.899  32.135  -9.110  0.00  0.00    +0.066 C 
ATOM     22  C   UNL     1      -0.579  32.670 -10.544  0.00  0.00    -0.064 C 
ATOM     23  N   UNL     1      -0.915  31.591 -11.575  0.00  0.00    +0.379 N 
ATOM     24  C   UNL     1      -0.670  32.111 -12.928  0.00  0.00    -0.096 C 
ATOM     25  H   UNL     1      -2.005  31.370 -11.489  0.00  0.00    -0.082 HD
ATOM     26  C   UNL     1      -0.159  30.302 -11.285  0.00  0.00    -0.064 C 
ATOM     27  C   UNL     1      -0.462  29.795  -9.847  0.00  0.00    +0.066 C 
ENDBRANCH  19  20
ENDBRANCH  18  19
ENDBRANCH  14  15
ENDBRANCH  12  13
TORSDOF 6
ENDMDL
MODEL 2
REMARK VINA RESULT:      -7.4     18.444     22.165
REMARK  Name = C:\Users\Docking\Desktop\test protocol\1iep_ligandH.pdb
REMARK  8 active torsions:
REMARK  status: ('A' for Active; 'I' for Inactive)
REMARK    1  A    between atoms: _5  and  _11
REMARK    2  A    between atoms: _19  and  _21
REMARK    3  A    between atoms: _22  and  _66
REMARK    4  A    between atoms: _27  and  _30
REMARK    5  A    between atoms: _32  and  _33
REMARK    6  A    between atoms: _38  and  _43
REMARK    7  A    between atoms: _43  and  _46
REMARK    8  A    between atoms: _53  and  _55
REMARK                            x       y       z     vdW  Elec       q    Type
REMARK                         _______ _______ _______ _____ _____    ______ ____
ROOT
ATOM     10  C   UNL     1     -10.271  28.164 -16.611  0.00  0.00    +0.038 A 
ATOM     11  C   UNL     1     -11.073  29.254 -17.037  0.00  0.00    +0.047 A 
ATOM     12  C   UNL     1     -10.965  29.784 -18.388  0.00  0.00    +0.035 A 
ATOM     32  C   UNL     1     -10.033  29.178 -19.279  0.00  0.00    +0.024 A 
ATOM     33  C   UNL     1      -9.210  28.070 -18.863  0.00  0.00    +0.007 A 
ATOM     34  C   UNL     1      -9.310  27.544 -17.531  0.00  0.00    -0.029 A 
ATOM     35  C   UNL     1      -8.398  26.359 -17.137  0.00  0.00    +0.045 C 
ENDROOT
BRANCH  10   9
ATOM      4  C   UNL     1     -12.529  25.554 -13.275  0.00  0.00    +0.077 A 
ATOM      5  C   UNL     1     -13.521  25.108 -14.211  0.00  0.00    +0.048 A 
ATOM      6  C   UNL     1     -13.419  25.579 -15.539  0.00  0.00    +0.116 A 
ATOM      7  N   UNL     1     -12.396  26.432 -15.894  0.00  0.00    -0.223 NA
ATOM      8  C   UNL     1     -11.457  26.844 -14.967  0.00  0.00    +0.220 A 
ATOM      9  N   UNL     1     -10.415  27.695 -15.304  0.00  0.00    -0.283 N 
ATOM     36  H   UNL     1      -9.747  27.981 -14.589  0.00  0.00    +0.155 HD
ATOM     37  N   UNL     1     -11.534  26.409 -13.692  0.00  0.00    -0.214 NA
BRANCH   4   3
ATOM      1  C   UNL     1     -13.524  24.978  -9.536  0.00  0.00    +0.020 A 
ATOM      2  C   UNL     1     -13.602  25.398 -10.917  0.00  0.00    +0.013 A 
ATOM      3  C   UNL     1     -12.501  25.141 -11.836  0.00  0.00    +0.019 A 
ATOM     38  C   UNL     1     -11.327  24.451 -11.324  0.00  0.00    +0.120 A 
ATOM     39  N   UNL     1     -11.279  24.060  -9.990  0.00  0.00    -0.263 NA
ATOM     40  C   UNL     1     -12.332  24.303  -9.095  0.00  0.00    +0.111 A 
ENDBRANCH   4   3
ENDBRANCH  10   9
BRANCH  12  13
ATOM     13  N   UNL     1     -11.747  30.894 -18.874  0.00  0.00    -0.281 N 
ATOM     14  C   UNL     1     -11.866  32.158 -18.322  0.00  0.00    +0.248 C 
ATOM     30  O   UNL     1     -11.484  32.462 -17.201  0.00  0.00    -0.270 OA
ATOM     31  H   UNL     1     -12.277  30.727 -19.730  0.00  0.00    +0.155 HD
BRANCH  14  15
ATOM     15  C   UNL     1     -12.516  33.239 -19.124  0.00  0.00    +0.037 A 
ATOM     16  C   UNL     1     -12.243  34.653 -18.857  0.00  0.00    +0.013 A 
ATOM     17  C   UNL     1     -12.897  35.675 -19.635  0.00  0.00    +0.005 A 
ATOM     18  C   UNL     1     -13.830  35.286 -20.689  0.00  0.00    -0.033 A 
ATOM     28  C   UNL     1     -14.079  33.875 -20.937  0.00  0.00    +0.005 A 
ATOM     29  C   UNL     1     -13.440  32.871 -20.176  0.00  0.00    +0.013 A 
BRANCH  18  19
ATOM     19  C   UNL     1     -14.589  36.310 -21.555  0.00  0.00    +0.119 C 
BRANCH  19  20
ATOM     20  N   UNL     1     -14.221  36.390 -23.000  0.00  0.00    -0.302 NA
ATOM     21  C   UNL     1     -12.864  35.739 -23.284  0.00  0.00    +0.066 C 
ATOM     22  C   UNL     1     -12.505  35.812 -24.804  0.00  0.00    -0.064 C 
ATOM     23  N   UNL     1     -12.510  37.273 -25.256  0.00  0.00    +0.379 N 
ATOM     24  C   UNL     1     -12.116  37.350 -26.671  0.00  0.00    -0.096 C 
ATOM     25  H   UNL     1     -11.739  37.814 -24.660  0.00  0.00    -0.082 HD
ATOM     26  C   UNL     1     -13.855  37.929 -24.975  0.00  0.00    -0.064 C 
ATOM     27  C   UNL     1     -14.216  37.825 -23.467  0.00  0.00    +0.066 C 
ENDBRANCH  19  20
ENDBRANCH  18  19
ENDBRANCH  14  15
ENDBRANCH  12  13
TORSDOF 6
ENDMDL
MODEL 3
REMARK VINA RESULT:      -7.3      2.536      3.380
REMARK  Name = C:\Users\Docking\Desktop\test protocol\1iep_ligandH.pdb
REMARK  8 active torsions:
REMARK  status: ('A' for Active; 'I' for Inactive)
REMARK    1  A    between atoms: _5  and  _11
REMARK    2  A    between atoms: _19  and  _21
REMARK    3  A    between atoms: _22  and  _66
REMARK    4  A    between atoms: _27  and  _30
REMARK    5  A    between atoms: _32  and  _33
REMARK    6  A    between atoms: _38  and  _43
REMARK    7  A    between atoms: _43  and  _46
REMARK    8  A    between atoms: _53  and  _55
REMARK                            x       y       z     vdW  Elec       q    Type
REMARK                         _______ _______ _______ _____ _____    ______ ____
ROOT
ATOM     10  C   UNL     1       0.983  33.285   0.235  0.00  0.00    +0.038 A 
ATOM     11  C   UNL     1       0.489  32.445  -0.795  0.00  0.00    +0.047 A 
ATOM     12  C   UNL     1       1.194  32.312  -2.060  0.00  0.00    +0.035 A 
ATOM     32  C   UNL     1       2.402  33.047  -2.241  0.00  0.00    +0.024 A 
ATOM     33  C   UNL     1       2.918  33.906  -1.205  0.00  0.00    +0.007 A 
ATOM     34  C   UNL     1       2.225  34.044   0.044  0.00  0.00    -0.029 A 
ATOM     35  C   UNL     1       2.821  34.985   1.117  0.00  0.00    +0.045 C 
ENDROOT
BRANCH  10   9
ATOM      4  C   UNL     1      -0.045  31.792   4.679  0.00  0.00    +0.077 A 
ATOM      5  C   UNL     1       0.910  30.724   4.605  0.00  0.00    +0.048 A 
ATOM      6  C   UNL     1       1.640  30.589   3.403  0.00  0.00    +0.116 A 
ATOM      7  N   UNL     1       1.424  31.463   2.360  0.00  0.00    -0.223 NA
ATOM      8  C   UNL     1       0.494  32.481   2.464  0.00  0.00    +0.220 A 
ATOM      9  N   UNL     1       0.265  33.376   1.430  0.00  0.00    -0.283 N 
ATOM     36  H   UNL     1      -0.435  34.109   1.543  0.00  0.00    +0.155 HD
ATOM     37  N   UNL     1      -0.217  32.630   3.600  0.00  0.00    -0.214 NA
BRANCH   4   3
ATOM      1  C   UNL     1      -1.602  33.492   7.840  0.00  0.00    +0.020 A 
ATOM      2  C   UNL     1      -0.759  33.276   6.686  0.00  0.00    +0.013 A 
ATOM      3  C   UNL     1      -0.891  32.066   5.884  0.00  0.00    +0.019 A 
ATOM     38  C   UNL     1      -1.893  31.087   6.279  0.00  0.00    +0.120 A 
ATOM     39  N   UNL     1      -2.689  31.322   7.395  0.00  0.00    -0.263 NA
ATOM     40  C   UNL     1      -2.570  32.482   8.176  0.00  0.00    +0.111 A 
ENDBRANCH   4   3
ENDBRANCH  10   9
BRANCH  12  13
ATOM     13  N   UNL     1       0.737  31.480  -3.146  0.00  0.00    -0.281 N 
ATOM     14  C   UNL     1       0.008  31.860  -4.261  0.00  0.00    +0.248 C 
ATOM     30  O   UNL     1      -0.548  32.941  -4.388  0.00  0.00    -0.270 OA
ATOM     31  H   UNL     1       0.980  30.491  -3.085  0.00  0.00    +0.155 HD
BRANCH  14  15
ATOM     15  C   UNL     1      -0.137  30.894  -5.392  0.00  0.00    +0.037 A 
ATOM     16  C   UNL     1       0.128  29.465  -5.210  0.00  0.00    +0.013 A 
ATOM     17  C   UNL     1      -0.003  28.557  -6.322  0.00  0.00    +0.005 A 
ATOM     18  C   UNL     1      -0.402  29.077  -7.628  0.00  0.00    -0.033 A 
ATOM     28  C   UNL     1      -0.663  30.499  -7.780  0.00  0.00    +0.005 A 
ATOM     29  C   UNL     1      -0.535  31.392  -6.692  0.00  0.00    +0.013 A 
BRANCH  18  19
ATOM     19  C   UNL     1      -0.545  28.185  -8.875  0.00  0.00    +0.119 C 
BRANCH  19  20
ATOM     20  N   UNL     1      -1.860  27.508  -9.084  0.00  0.00    -0.302 NA
ATOM     21  C   UNL     1      -1.727  25.983  -9.086  0.00  0.00    +0.066 C 
ATOM     22  C   UNL     1      -3.115  25.291  -9.283  0.00  0.00    -0.064 C 
ATOM     23  N   UNL     1      -3.745  25.781 -10.587  0.00  0.00    +0.379 N 
ATOM     24  C   UNL     1      -5.024  25.088 -10.804  0.00  0.00    -0.096 C 
ATOM     25  H   UNL     1      -3.061  25.498 -11.421  0.00  0.00    -0.082 HD
ATOM     26  C   UNL     1      -3.879  27.297 -10.595  0.00  0.00    -0.064 C 
ATOM     27  C   UNL     1      -2.499  27.975 -10.369  0.00  0.00    +0.066 C 
ENDBRANCH  19  20
ENDBRANCH  18  19
ENDBRANCH  14  15
ENDBRANCH  12  13
TORSDOF 6
ENDMDL
MODEL 4
REMARK VINA RESULT:      -7.2     28.547     33.019
REMARK  Name = C:\Users\Docking\Desktop\test protocol\1iep_ligandH.pdb
REMARK  8 active torsions:
REMARK  status: ('A' for Active; 'I' for Inactive)
REMARK    1  A    between atoms: _5  and  _11
REMARK    2  A    between atoms: _19  and  _21
REMARK    3  A    between atoms: _22  and  _66
REMARK    4  A    between atoms: _27  and  _30
REMARK    5  A    between atoms: _32  and  _33
REMARK    6  A    between atoms: _38  and  _43
REMARK    7  A    between atoms: _43  and  _46
REMARK    8  A    between atoms: _53  and  _55
REMARK                            x       y       z     vdW  Elec       q    Type
REMARK                         _______ _______ _______ _____ _____    ______ ____
ROOT
ATOM     10  C   UNL     1     -25.594  48.405 -10.398  0.00  0.00    +0.038 A 
ATOM     11  C   UNL     1     -24.929  48.467  -9.146  0.00  0.00    +0.047 A 
ATOM     12  C   UNL     1     -25.521  49.162  -8.014  0.00  0.00    +0.035 A 
ATOM     32  C   UNL     1     -26.793  49.781  -8.191  0.00  0.00    +0.024 A 
ATOM     33  C   UNL     1     -27.482  49.728  -9.456  0.00  0.00    +0.007 A 
ATOM     34  C   UNL     1     -26.902  49.046 -10.577  0.00  0.00    -0.029 A 
ATOM     35  C   UNL     1     -27.683  49.027 -11.912  0.00  0.00    +0.045 C 
ENDROOT
BRANCH  10   9
ATOM      4  C   UNL     1     -22.575  48.213 -14.124  0.00  0.00    +0.077 A 
ATOM      5  C   UNL     1     -22.211  49.592 -13.976  0.00  0.00    +0.048 A 
ATOM      6  C   UNL     1     -22.829  50.318 -12.933  0.00  0.00    +0.116 A 
ATOM      7  N   UNL     1     -23.741  49.700 -12.106  0.00  0.00    -0.223 NA
ATOM      8  C   UNL     1     -24.071  48.368 -12.277  0.00  0.00    +0.220 A 
ATOM      9  N   UNL     1     -24.979  47.724 -11.451  0.00  0.00    -0.283 N 
ATOM     36  H   UNL     1     -25.201  46.743 -11.615  0.00  0.00    +0.155 HD
ATOM     37  N   UNL     1     -23.496  47.654 -13.266  0.00  0.00    -0.214 NA
BRANCH   4   3
ATOM      1  C   UNL     1     -21.691  45.054 -16.256  0.00  0.00    +0.020 A 
ATOM      2  C   UNL     1     -22.264  45.879 -15.217  0.00  0.00    +0.013 A 
ATOM      3  C   UNL     1     -22.006  47.313 -15.177  0.00  0.00    +0.019 A 
ATOM     38  C   UNL     1     -21.157  47.886 -16.211  0.00  0.00    +0.120 A 
ATOM     39  N   UNL     1     -20.617  47.067 -17.198  0.00  0.00    -0.263 NA
ATOM     40  C   UNL     1     -20.858  45.685 -17.246  0.00  0.00    +0.111 A 
ENDBRANCH   4   3
ENDBRANCH  10   9
BRANCH  12  13
ATOM     13  N   UNL     1     -24.890  49.266  -6.722  0.00  0.00    -0.281 N 
ATOM     14  C   UNL     1     -24.551  50.417  -6.029  0.00  0.00    +0.248 C 
ATOM     30  O   UNL     1     -24.546  51.539  -6.514  0.00  0.00    -0.270 OA
ATOM     31  H   UNL     1     -24.666  48.383  -6.262  0.00  0.00    +0.155 HD
BRANCH  14  15
ATOM     15  C   UNL     1     -24.145  50.303  -4.595  0.00  0.00    +0.037 A 
ATOM     16  C   UNL     1     -22.894  50.892  -4.111  0.00  0.00    +0.013 A 
ATOM     17  C   UNL     1     -22.518  50.753  -2.726  0.00  0.00    +0.005 A 
ATOM     18  C   UNL     1     -23.396  50.023  -1.815  0.00  0.00    -0.033 A 
ATOM     28  C   UNL     1     -24.634  49.455  -2.321  0.00  0.00    +0.005 A 
ATOM     29  C   UNL     1     -25.006  49.587  -3.678  0.00  0.00    +0.013 A 
BRANCH  18  19
ATOM     19  C   UNL     1     -23.065  49.808  -0.326  0.00  0.00    +0.119 C 
BRANCH  19  20
ATOM     20  N   UNL     1     -22.659  51.008   0.464  0.00  0.00    -0.302 NA
ATOM     21  C   UNL     1     -21.148  51.054   0.706  0.00  0.00    +0.066 C 
ATOM     22  C   UNL     1     -20.738  52.327   1.515  0.00  0.00    -0.064 C 
ATOM     23  N   UNL     1     -21.500  52.352   2.841  0.00  0.00    +0.379 N 
ATOM     24  C   UNL     1     -21.074  53.518   3.630  0.00  0.00    -0.096 C 
ATOM     25  H   UNL     1     -21.216  51.436   3.411  0.00  0.00    -0.082 HD
ATOM     26  C   UNL     1     -23.004  52.304   2.611  0.00  0.00    -0.064 C 
ATOM     27  C   UNL     1     -23.396  51.050   1.780  0.00  0.00    +0.066 C 
ENDBRANCH  19  20
ENDBRANCH  18  19
ENDBRANCH  14  15
ENDBRANCH  12  13
TORSDOF 6
ENDMDL
MODEL 5
REMARK VINA RESULT:      -7.2      1.537      2.434
REMARK  Name = C:\Users\Docking\Desktop\test protocol\1iep_ligandH.pdb
REMARK  8 active torsions:
REMARK  status: ('A' for Active; 'I' for Inactive)
REMARK    1  A    between atoms: _5  and  _11
REMARK    2  A    between atoms: _19  and  _21
REMARK    3  A    between atoms: _22  and  _66
REMARK    4  A    between atoms: _27  and  _30
REMARK    5  A    between atoms: _32  and  _33
REMARK    6  A    between atoms: _38  and  _43
REMARK    7  A    between atoms: _43  and  _46
REMARK    8  A    between atoms: _53  and  _55
REMARK                            x       y       z     vdW  Elec       q    Type
REMARK                         _______ _______ _______ _____ _____    ______ ____
ROOT
ATOM     10  C   UNL     1       1.797  33.903   1.697  0.00  0.00    +0.038 A 
ATOM     11  C   UNL     1       1.126  33.480   0.521  0.00  0.00    +0.047 A 
ATOM     12  C   UNL     1       1.854  33.242  -0.716  0.00  0.00    +0.035 A 
ATOM     32  C   UNL     1       3.265  33.442  -0.719  0.00  0.00    +0.024 A 
ATOM     33  C   UNL     1       3.963  33.872   0.467  0.00  0.00    +0.007 A 
ATOM     34  C   UNL     1       3.250  34.111   1.690  0.00  0.00    -0.029 A 
ATOM     35  C   UNL     1       4.049  34.578   2.929  0.00  0.00    +0.045 C 
ENDROOT
BRANCH  10   9
ATOM      4  C   UNL     1      -0.145  32.394   5.819  0.00  0.00    +0.077 A 
ATOM      5  C   UNL     1       0.350  31.061   5.633  0.00  0.00    +0.048 A 
ATOM      6  C   UNL     1       1.094  30.803   4.460  0.00  0.00    +0.116 A 
ATOM      7  N   UNL     1       1.320  31.811   3.548  0.00  0.00    -0.223 NA
ATOM      8  C   UNL     1       0.827  33.085   3.757  0.00  0.00    +0.220 A 
ATOM      9  N   UNL     1       1.049  34.116   2.857  0.00  0.00    -0.283 N 
ATOM     36  H   UNL     1       0.662  35.041   3.044  0.00  0.00    +0.155 HD
ATOM     37  N   UNL     1       0.112  33.357   4.869  0.00  0.00    -0.214 NA
BRANCH   4   3
ATOM      1  C   UNL     1      -3.070  32.899   8.367  0.00  0.00    +0.020 A 
ATOM      2  C   UNL     1      -2.343  32.458   7.199  0.00  0.00    +0.013 A 
ATOM      3  C   UNL     1      -0.945  32.824   7.010  0.00  0.00    +0.019 A 
ATOM     38  C   UNL     1      -0.306  33.642   8.030  0.00  0.00    +0.120 A 
ATOM     39  N   UNL     1      -1.032  34.052   9.144  0.00  0.00    -0.263 NA
ATOM     40  C   UNL     1      -2.378  33.708   9.335  0.00  0.00    +0.111 A 
ENDBRANCH   4   3
ENDBRANCH  10   9
BRANCH  12  13
ATOM     13  N   UNL     1       1.226  32.820  -1.943  0.00  0.00    -0.281 N 
ATOM     14  C   UNL     1       1.023  33.562  -3.095  0.00  0.00    +0.248 C 
ATOM     30  O   UNL     1       1.160  34.774  -3.170  0.00  0.00    -0.270 OA
ATOM     31  H   UNL     1       0.890  31.857  -1.965  0.00  0.00    +0.155 HD
BRANCH  14  15
ATOM     15  C   UNL     1       0.590  32.858  -4.341  0.00  0.00    +0.037 A 
ATOM     16  C   UNL     1      -0.108  31.571  -4.283  0.00  0.00    +0.013 A 
ATOM     17  C   UNL     1      -0.499  30.905  -5.500  0.00  0.00    +0.005 A 
ATOM     18  C   UNL     1      -0.194  31.527  -6.786  0.00  0.00    -0.033 A 
ATOM     28  C   UNL     1       0.496  32.806  -6.814  0.00  0.00    +0.005 A 
ATOM     29  C   UNL     1       0.881  33.461  -5.624  0.00  0.00    +0.013 A 
BRANCH  18  19
ATOM     19  C   UNL     1      -0.555  30.877  -8.136  0.00  0.00    +0.119 C 
BRANCH  19  20
ATOM     20  N   UNL     1      -0.998  29.451  -8.111  0.00  0.00    -0.302 NA
ATOM     21  C   UNL     1       0.177  28.482  -8.269  0.00  0.00    +0.066 C 
ATOM     22  C   UNL     1      -0.302  26.995  -8.219  0.00  0.00    -0.064 C 
ATOM     23  N   UNL     1      -1.346  26.761  -9.311  0.00  0.00    +0.379 N 
ATOM     24  C   UNL     1      -1.756  25.349  -9.304  0.00  0.00    -0.096 C 
ATOM     25  H   UNL     1      -0.861  26.968 -10.293  0.00  0.00    -0.082 HD
ATOM     26  C   UNL     1      -2.517  27.723  -9.164  0.00  0.00    -0.064 C 
ATOM     27  C   UNL     1      -2.027  29.197  -9.185  0.00  0.00    +0.066 C 
ENDBRANCH  19  20
ENDBRANCH  18  19
ENDBRANCH  14  15
ENDBRANCH  12  13
TORSDOF 6
ENDMDL
