MODEL 1
REMARK VINA RESULT:      -8.3      0.000      0.000
REMARK  Name = C:\Users\Docking\Desktop\test protocol\1iep_ligandH.pdb
REMARK  8 active torsions:
REMARK  status: ('A' for Active; 'I' for Inactive)
REMARK    1  A    between atoms: _5  and  _11
REMARK    2  A    between atoms: _19  and  _21
REMARK    3  A    between atoms: _22  and  _66
REMARK    4  A    between atoms: _27  and  _30
REMARK    5  A    between atoms: _32  and  _33
REMARK    6  A    between atoms: _38  and  _43
REMARK    7  A    between atoms: _43  and  _46
REMARK    8  A    between atoms: _53  and  _55
REMARK                            x       y       z     vdW  Elec       q    Type
REMARK                         _______ _______ _______ _____ _____    ______ ____
ROOT
ATOM     10  C   UNL     1      31.821  -0.031   7.507  0.00  0.00    +0.038 A 
ATOM     11  C   UNL     1      31.669  -0.434   6.155  0.00  0.00    +0.047 A 
ATOM     12  C   UNL     1      32.706  -0.168   5.170  0.00  0.00    +0.035 A 
ATOM     32  C   UNL     1      33.886   0.508   5.596  0.00  0.00    +0.024 A 
ATOM     33  C   UNL     1      34.057   0.926   6.966  0.00  0.00    +0.007 A 
ATOM     34  C   UNL     1      33.036   0.668   7.942  0.00  0.00    -0.029 A 
ATOM     35  C   UNL     1      33.270   1.144   9.394  0.00  0.00    +0.045 C 
ENDROOT
BRANCH  10   9
ATOM      4  C   UNL     1      29.545  -2.964  10.549  0.00  0.00    +0.077 A 
ATOM      5  C   UNL     1      30.464  -4.036  10.295  0.00  0.00    +0.048 A 
ATOM      6  C   UNL     1      31.504  -3.794   9.370  0.00  0.00    +0.116 A 
ATOM      7  N   UNL     1      31.608  -2.568   8.751  0.00  0.00    -0.223 NA
ATOM      8  C   UNL     1      30.704  -1.556   9.016  0.00  0.00    +0.220 A 
ATOM      9  N   UNL     1      30.794  -0.312   8.411  0.00  0.00    -0.283 N 
ATOM     36  H   UNL     1      30.103   0.406   8.628  0.00  0.00    +0.155 HD
ATOM     37  N   UNL     1      29.701  -1.762   9.895  0.00  0.00    -0.214 NA
BRANCH   4   3
ATOM      1  C   UNL     1      26.374  -4.237  12.452  0.00  0.00    +0.020 A 
ATOM      2  C   UNL     1      27.468  -4.189  11.510  0.00  0.00    +0.013 A 
ATOM      3  C   UNL     1      28.396  -3.064  11.503  0.00  0.00    +0.019 A 
ATOM     38  C   UNL     1      28.188  -1.998  12.470  0.00  0.00    +0.120 A 
ATOM     39  N   UNL     1      27.125  -2.071  13.365  0.00  0.00    -0.263 NA
ATOM     40  C   UNL     1      26.225  -3.147  13.380  0.00  0.00    +0.111 A 
ENDBRANCH   4   3
ENDBRANCH  10   9
BRANCH  12  13
ATOM     13  N   UNL     1      32.604  -0.545   3.782  0.00  0.00    -0.281 N 
ATOM     14  C   UNL     1      32.651  -1.820   3.240  0.00  0.00    +0.248 C 
ATOM     30  O   UNL     1      33.003  -2.818   3.851  0.00  0.00    -0.270 OA
ATOM     31  H   UNL     1      32.483   0.220   3.118  0.00  0.00    +0.155 HD
BRANCH  14  15
ATOM     15  C   UNL     1      32.264  -2.011   1.810  0.00  0.00    +0.037 A 
ATOM     16  C   UNL     1      32.461  -3.296   1.134  0.00  0.00    +0.013 A 
ATOM     17  C   UNL     1      32.095  -3.448  -0.252  0.00  0.00    +0.005 A 
ATOM     18  C   UNL     1      31.526  -2.311  -0.971  0.00  0.00    -0.033 A 
ATOM     28  C   UNL     1      31.336  -1.050  -0.275  0.00  0.00    +0.005 A 
ATOM     29  C   UNL     1      31.694  -0.896   1.083  0.00  0.00    +0.013 A 
BRANCH  18  19
ATOM     19  C   UNL     1      31.126  -2.377  -2.457  0.00  0.00    +0.119 C 
BRANCH  19  20
ATOM     20  N   UNL     1      30.742  -1.095  -3.119  0.00  0.00    -0.302 NA
ATOM     21  C   UNL     1      29.480  -1.246  -3.974  0.00  0.00    +0.066 C 
ATOM     22  C   UNL     1      29.080   0.110  -4.641  0.00  0.00    -0.064 C 
ATOM     23  N   UNL     1      30.247   0.625  -5.485  0.00  0.00    +0.379 N 
ATOM     24  C   UNL     1      29.853   1.870  -6.160  0.00  0.00    -0.096 C 
ATOM     25  H   UNL     1      30.456  -0.136  -6.273  0.00  0.00    -0.082 HD
ATOM     26  C   UNL     1      31.507   0.775  -4.643  0.00  0.00    -0.064 C 
ATOM     27  C   UNL     1      31.879  -0.571  -3.961  0.00  0.00    +0.066 C 
ENDBRANCH  19  20
ENDBRANCH  18  19
ENDBRANCH  14  15
ENDBRANCH  12  13
TORSDOF 6
ENDMDL
MODEL 2
REMARK VINA RESULT:      -8.2      3.159     13.181
REMARK  Name = C:\Users\Docking\Desktop\test protocol\1iep_ligandH.pdb
REMARK  8 active torsions:
REMARK  status: ('A' for Active; 'I' for Inactive)
REMARK    1  A    between atoms: _5  and  _11
REMARK    2  A    between atoms: _19  and  _21
REMARK    3  A    between atoms: _22  and  _66
REMARK    4  A    between atoms: _27  and  _30
REMARK    5  A    between atoms: _32  and  _33
REMARK    6  A    between atoms: _38  and  _43
REMARK    7  A    between atoms: _43  and  _46
REMARK    8  A    between atoms: _53  and  _55
REMARK                            x       y       z     vdW  Elec       q    Type
REMARK                         _______ _______ _______ _____ _____    ______ ____
ROOT
ATOM     10  C   UNL     1      32.363  -2.157  -2.027  0.00  0.00    +0.038 A 
ATOM     11  C   UNL     1      32.320  -1.693  -0.688  0.00  0.00    +0.047 A 
ATOM     12  C   UNL     1      32.407  -2.616   0.432  0.00  0.00    +0.035 A 
ATOM     32  C   UNL     1      32.540  -4.008   0.152  0.00  0.00    +0.024 A 
ATOM     33  C   UNL     1      32.585  -4.497  -1.203  0.00  0.00    +0.007 A 
ATOM     34  C   UNL     1      32.497  -3.591  -2.312  0.00  0.00    -0.029 A 
ATOM     35  C   UNL     1      32.544  -4.173  -3.744  0.00  0.00    +0.045 C 
ENDROOT
BRANCH  10   9
ATOM      4  C   UNL     1      29.840   0.578  -5.058  0.00  0.00    +0.077 A 
ATOM      5  C   UNL     1      28.589   0.091  -4.550  0.00  0.00    +0.048 A 
ATOM      6  C   UNL     1      28.640  -0.868  -3.513  0.00  0.00    +0.116 A 
ATOM      7  N   UNL     1      29.855  -1.300  -3.029  0.00  0.00    -0.223 NA
ATOM      8  C   UNL     1      31.042  -0.811  -3.542  0.00  0.00    +0.220 A 
ATOM      9  N   UNL     1      32.276  -1.226  -3.065  0.00  0.00    -0.283 N 
ATOM     36  H   UNL     1      33.129  -0.847  -3.475  0.00  0.00    +0.155 HD
ATOM     37  N   UNL     1      31.021   0.104  -4.533  0.00  0.00    -0.214 NA
BRANCH   4   3
ATOM      1  C   UNL     1      29.607   3.910  -7.094  0.00  0.00    +0.020 A 
ATOM      2  C   UNL     1      29.474   2.966  -6.008  0.00  0.00    +0.013 A 
ATOM      3  C   UNL     1      29.951   1.596  -6.150  0.00  0.00    +0.019 A 
ATOM     38  C   UNL     1      30.563   1.210  -7.413  0.00  0.00    +0.120 A 
ATOM     39  N   UNL     1      30.675   2.141  -8.442  0.00  0.00    -0.263 NA
ATOM     40  C   UNL     1      30.218   3.461  -8.317  0.00  0.00    +0.111 A 
ENDBRANCH   4   3
ENDBRANCH  10   9
BRANCH  12  13
ATOM     13  N   UNL     1      32.360  -2.204   1.813  0.00  0.00    -0.281 N 
ATOM     14  C   UNL     1      31.956  -0.980   2.323  0.00  0.00    +0.248 C 
ATOM     30  O   UNL     1      31.776   0.023   1.650  0.00  0.00    -0.270 OA
ATOM     31  H   UNL     1      32.660  -2.897   2.498  0.00  0.00    +0.155 HD
BRANCH  14  15
ATOM     15  C   UNL     1      31.736  -0.849   3.796  0.00  0.00    +0.037 A 
ATOM     16  C   UNL     1      32.290  -1.825   4.737  0.00  0.00    +0.013 A 
ATOM     17  C   UNL     1      32.048  -1.685   6.151  0.00  0.00    +0.005 A 
ATOM     18  C   UNL     1      31.248  -0.561   6.632  0.00  0.00    -0.033 A 
ATOM     28  C   UNL     1      30.714   0.395   5.677  0.00  0.00    +0.005 A 
ATOM     29  C   UNL     1      30.949   0.260   4.290  0.00  0.00    +0.013 A 
BRANCH  18  19
ATOM     19  C   UNL     1      30.921  -0.344   8.122  0.00  0.00    +0.119 C 
BRANCH  19  20
ATOM     20  N   UNL     1      32.053   0.027   9.023  0.00  0.00    -0.302 NA
ATOM     21  C   UNL     1      32.949   1.105   8.405  0.00  0.00    +0.066 C 
ATOM     22  C   UNL     1      34.114   1.498   9.371  0.00  0.00    -0.064 C 
ATOM     23  N   UNL     1      34.928   0.250   9.717  0.00  0.00    +0.379 N 
ATOM     24  C   UNL     1      36.059   0.626  10.579  0.00  0.00    -0.096 C 
ATOM     25  H   UNL     1      35.346  -0.155   8.767  0.00  0.00    -0.082 HD
ATOM     26  C   UNL     1      34.044  -0.827  10.329  0.00  0.00    -0.064 C 
ATOM     27  C   UNL     1      32.873  -1.189   9.375  0.00  0.00    +0.066 C 
ENDBRANCH  19  20
ENDBRANCH  18  19
ENDBRANCH  14  15
ENDBRANCH  12  13
TORSDOF 6
ENDMDL
MODEL 3
REMARK VINA RESULT:      -7.9      1.751      2.284
REMARK  Name = C:\Users\Docking\Desktop\test protocol\1iep_ligandH.pdb
REMARK  8 active torsions:
REMARK  status: ('A' for Active; 'I' for Inactive)
REMARK    1  A    between atoms: _5  and  _11
REMARK    2  A    between atoms: _19  and  _21
REMARK    3  A    between atoms: _22  and  _66
REMARK    4  A    between atoms: _27  and  _30
REMARK    5  A    between atoms: _32  and  _33
REMARK    6  A    between atoms: _38  and  _43
REMARK    7  A    between atoms: _43  and  _46
REMARK    8  A    between atoms: _53  and  _55
REMARK                            x       y       z     vdW  Elec       q    Type
REMARK                         _______ _______ _______ _____ _____    ______ ____
ROOT
ATOM     10  C   UNL     1      31.949  -0.812   8.285  0.00  0.00    +0.038 A 
ATOM     11  C   UNL     1      31.766  -0.809   6.879  0.00  0.00    +0.047 A 
ATOM     12  C   UNL     1      32.892  -0.639   5.974  0.00  0.00    +0.035 A 
ATOM     32  C   UNL     1      34.192  -0.477   6.536  0.00  0.00    +0.024 A 
ATOM     33  C   UNL     1      34.396  -0.477   7.963  0.00  0.00    +0.007 A 
ATOM     34  C   UNL     1      33.289  -0.641   8.861  0.00  0.00    -0.029 A 
ATOM     35  C   UNL     1      33.565  -0.626  10.382  0.00  0.00    +0.045 C 
ENDROOT
BRANCH  10   9
ATOM      4  C   UNL     1      28.984  -3.539  10.894  0.00  0.00    +0.077 A 
ATOM      5  C   UNL     1      29.704  -4.737  10.569  0.00  0.00    +0.048 A 
ATOM      6  C   UNL     1      30.828  -4.608   9.722  0.00  0.00    +0.116 A 
ATOM      7  N   UNL     1      31.195  -3.370   9.242  0.00  0.00    -0.223 NA
ATOM      8  C   UNL     1      30.477  -2.236   9.573  0.00  0.00    +0.220 A 
ATOM      9  N   UNL     1      30.832  -0.979   9.108  0.00  0.00    -0.283 N 
ATOM     36  H   UNL     1      30.273  -0.168   9.369  0.00  0.00    +0.155 HD
ATOM     37  N   UNL     1      29.399  -2.332  10.379  0.00  0.00    -0.214 NA
BRANCH   4   3
ATOM      1  C   UNL     1      26.353  -2.477  13.587  0.00  0.00    +0.020 A 
ATOM      2  C   UNL     1      27.535  -2.457  12.756  0.00  0.00    +0.013 A 
ATOM      3  C   UNL     1      27.777  -3.512  11.779  0.00  0.00    +0.019 A 
ATOM     38  C   UNL     1      26.795  -4.580  11.667  0.00  0.00    +0.120 A 
ATOM     39  N   UNL     1      25.667  -4.574  12.481  0.00  0.00    -0.263 NA
ATOM     40  C   UNL     1      25.425  -3.565  13.426  0.00  0.00    +0.111 A 
ENDBRANCH   4   3
ENDBRANCH  10   9
BRANCH  12  13
ATOM     13  N   UNL     1      32.766  -0.619   4.538  0.00  0.00    -0.281 N 
ATOM     14  C   UNL     1      32.156   0.343   3.749  0.00  0.00    +0.248 C 
ATOM     30  O   UNL     1      31.435   1.232   4.177  0.00  0.00    -0.270 OA
ATOM     31  H   UNL     1      33.177  -1.411   4.042  0.00  0.00    +0.155 HD
BRANCH  14  15
ATOM     15  C   UNL     1      32.366   0.303   2.270  0.00  0.00    +0.037 A 
ATOM     16  C   UNL     1      31.670  -0.674   1.430  0.00  0.00    +0.013 A 
ATOM     17  C   UNL     1      31.903  -0.702   0.007  0.00  0.00    +0.005 A 
ATOM     18  C   UNL     1      32.837   0.253  -0.584  0.00  0.00    -0.033 A 
ATOM     28  C   UNL     1      33.510   1.216   0.273  0.00  0.00    +0.005 A 
ATOM     29  C   UNL     1      33.285   1.245   1.667  0.00  0.00    +0.013 A 
BRANCH  18  19
ATOM     19  C   UNL     1      33.163   0.282  -2.089  0.00  0.00    +0.119 C 
BRANCH  19  20
ATOM     20  N   UNL     1      32.272  -0.500  -2.997  0.00  0.00    -0.302 NA
ATOM     21  C   UNL     1      32.980  -1.724  -3.583  0.00  0.00    +0.066 C 
ATOM     22  C   UNL     1      32.026  -2.543  -4.513  0.00  0.00    -0.064 C 
ATOM     23  N   UNL     1      31.502  -1.635  -5.627  0.00  0.00    +0.379 N 
ATOM     24  C   UNL     1      30.650  -2.416  -6.536  0.00  0.00    -0.096 C 
ATOM     25  H   UNL     1      32.380  -1.275  -6.211  0.00  0.00    -0.082 HD
ATOM     26  C   UNL     1      30.798  -0.414  -5.052  0.00  0.00    -0.064 C 
ATOM     27  C   UNL     1      31.745   0.376  -4.107  0.00  0.00    +0.066 C 
ENDBRANCH  19  20
ENDBRANCH  18  19
ENDBRANCH  14  15
ENDBRANCH  12  13
TORSDOF 6
ENDMDL
MODEL 4
REMARK VINA RESULT:      -7.7      2.028      2.766
REMARK  Name = C:\Users\Docking\Desktop\test protocol\1iep_ligandH.pdb
REMARK  8 active torsions:
REMARK  status: ('A' for Active; 'I' for Inactive)
REMARK    1  A    between atoms: _5  and  _11
REMARK    2  A    between atoms: _19  and  _21
REMARK    3  A    between atoms: _22  and  _66
REMARK    4  A    between atoms: _27  and  _30
REMARK    5  A    between atoms: _32  and  _33
REMARK    6  A    between atoms: _38  and  _43
REMARK    7  A    between atoms: _43  and  _46
REMARK    8  A    between atoms: _53  and  _55
REMARK                            x       y       z     vdW  Elec       q    Type
REMARK                         _______ _______ _______ _____ _____    ______ ____
ROOT
ATOM     10  C   UNL     1      31.514   0.138   7.458  0.00  0.00    +0.038 A 
ATOM     11  C   UNL     1      31.244  -0.094   6.085  0.00  0.00    +0.047 A 
ATOM     12  C   UNL     1      32.222   0.233   5.060  0.00  0.00    +0.035 A 
ATOM     32  C   UNL     1      33.468   0.793   5.469  0.00  0.00    +0.024 A 
ATOM     33  C   UNL     1      33.759   1.036   6.860  0.00  0.00    +0.007 A 
ATOM     34  C   UNL     1      32.796   0.718   7.876  0.00  0.00    -0.029 A 
ATOM     35  C   UNL     1      33.159   1.007   9.351  0.00  0.00    +0.045 C 
ENDROOT
BRANCH  10   9
ATOM      4  C   UNL     1      29.524  -2.897  10.599  0.00  0.00    +0.077 A 
ATOM      5  C   UNL     1      30.494  -3.916  10.320  0.00  0.00    +0.048 A 
ATOM      6  C   UNL     1      31.485  -3.622   9.356  0.00  0.00    +0.116 A 
ATOM      7  N   UNL     1      31.494  -2.396   8.725  0.00  0.00    -0.223 NA
ATOM      8  C   UNL     1      30.543  -1.437   9.017  0.00  0.00    +0.220 A 
ATOM      9  N   UNL     1      30.538  -0.195   8.400  0.00  0.00    -0.283 N 
ATOM     36  H   UNL     1      29.814   0.483   8.638  0.00  0.00    +0.155 HD
ATOM     37  N   UNL     1      29.585  -1.694   9.932  0.00  0.00    -0.214 NA
BRANCH   4   3
ATOM      1  C   UNL     1      26.454  -4.301  12.576  0.00  0.00    +0.020 A 
ATOM      2  C   UNL     1      27.506  -4.195  11.592  0.00  0.00    +0.013 A 
ATOM      3  C   UNL     1      28.417  -3.056  11.594  0.00  0.00    +0.019 A 
ATOM     38  C   UNL     1      28.234  -2.035  12.615  0.00  0.00    +0.120 A 
ATOM     39  N   UNL     1      27.210  -2.163  13.549  0.00  0.00    -0.263 NA
ATOM     40  C   UNL     1      26.327  -3.254  13.555  0.00  0.00    +0.111 A 
ENDBRANCH   4   3
ENDBRANCH  10   9
BRANCH  12  13
ATOM     13  N   UNL     1      32.001   0.027   3.650  0.00  0.00    -0.281 N 
ATOM     14  C   UNL     1      32.556   0.725   2.590  0.00  0.00    +0.248 C 
ATOM     30  O   UNL     1      33.166   1.779   2.700  0.00  0.00    -0.270 OA
ATOM     31  H   UNL     1      31.357  -0.725   3.404  0.00  0.00    +0.155 HD
BRANCH  14  15
ATOM     15  C   UNL     1      32.398   0.183   1.207  0.00  0.00    +0.037 A 
ATOM     16  C   UNL     1      33.166   0.728   0.084  0.00  0.00    +0.013 A 
ATOM     17  C   UNL     1      32.982   0.198  -1.243  0.00  0.00    +0.005 A 
ATOM     18  C   UNL     1      32.025  -0.886  -1.456  0.00  0.00    -0.033 A 
ATOM     28  C   UNL     1      31.279  -1.411  -0.324  0.00  0.00    +0.005 A 
ATOM     29  C   UNL     1      31.457  -0.893   0.979  0.00  0.00    +0.013 A 
BRANCH  18  19
ATOM     19  C   UNL     1      31.748  -1.498  -2.842  0.00  0.00    +0.119 C 
BRANCH  19  20
ATOM     20  N   UNL     1      32.913  -2.071  -3.581  0.00  0.00    -0.302 NA
ATOM     21  C   UNL     1      32.593  -2.312  -5.059  0.00  0.00    +0.066 C 
ATOM     22  C   UNL     1      33.829  -2.890  -5.822  0.00  0.00    -0.064 C 
ATOM     23  N   UNL     1      34.280  -4.187  -5.147  0.00  0.00    +0.379 N 
ATOM     24  C   UNL     1      35.406  -4.764  -5.896  0.00  0.00    -0.096 C 
ATOM     25  H   UNL     1      33.432  -4.909  -5.200  0.00  0.00    -0.082 HD
ATOM     26  C   UNL     1      34.598  -3.957  -3.676  0.00  0.00    -0.064 C 
ATOM     27  C   UNL     1      33.372  -3.354  -2.934  0.00  0.00    +0.066 C 
ENDBRANCH  19  20
ENDBRANCH  18  19
ENDBRANCH  14  15
ENDBRANCH  12  13
TORSDOF 6
ENDMDL
MODEL 5
REMARK VINA RESULT:      -7.3      3.275     13.867
REMARK  Name = C:\Users\Docking\Desktop\test protocol\1iep_ligandH.pdb
REMARK  8 active torsions:
REMARK  status: ('A' for Active; 'I' for Inactive)
REMARK    1  A    between atoms: _5  and  _11
REMARK    2  A    between atoms: _19  and  _21
REMARK    3  A    between atoms: _22  and  _66
REMARK    4  A    between atoms: _27  and  _30
REMARK    5  A    between atoms: _32  and  _33
REMARK    6  A    between atoms: _38  and  _43
REMARK    7  A    between atoms: _43  and  _46
REMARK    8  A    between atoms: _53  and  _55
REMARK                            x       y       z     vdW  Elec       q    Type
REMARK                         _______ _______ _______ _____ _____    ______ ____
ROOT
ATOM     10  C   UNL     1      31.039  -1.528  -3.814  0.00  0.00    +0.038 A 
ATOM     11  C   UNL     1      30.962  -1.358  -2.408  0.00  0.00    +0.047 A 
ATOM     12  C   UNL     1      31.626  -2.281  -1.501  0.00  0.00    +0.035 A 
ATOM     32  C   UNL     1      32.363  -3.365  -2.060  0.00  0.00    +0.024 A 
ATOM     33  C   UNL     1      32.451  -3.554  -3.487  0.00  0.00    +0.007 A 
ATOM     34  C   UNL     1      31.796  -2.648  -4.387  0.00  0.00    -0.029 A 
ATOM     35  C   UNL     1      31.919  -2.903  -5.907  0.00  0.00    +0.045 C 
ENDROOT
BRANCH  10   9
ATOM      4  C   UNL     1      30.898   2.551  -6.340  0.00  0.00    +0.077 A 
ATOM      5  C   UNL     1      32.238   2.900  -5.963  0.00  0.00    +0.048 A 
ATOM      6  C   UNL     1      32.926   2.006  -5.112  0.00  0.00    +0.116 A 
ATOM      7  N   UNL     1      32.311   0.852  -4.677  0.00  0.00    -0.223 NA
ATOM      8  C   UNL     1      31.018   0.546  -5.058  0.00  0.00    +0.220 A 
ATOM      9  N   UNL     1      30.382  -0.612  -4.639  0.00  0.00    -0.283 N 
ATOM     36  H   UNL     1      29.425  -0.798  -4.936  0.00  0.00    +0.155 HD
ATOM     37  N   UNL     1      30.338   1.384  -5.869  0.00  0.00    -0.214 NA
BRANCH   4   3
ATOM      1  C   UNL     1      28.003   4.800  -7.703  0.00  0.00    +0.020 A 
ATOM      2  C   UNL     1      28.791   3.996  -6.797  0.00  0.00    +0.013 A 
ATOM      3  C   UNL     1      30.043   3.391  -7.236  0.00  0.00    +0.019 A 
ATOM     38  C   UNL     1      30.472   3.622  -8.607  0.00  0.00    +0.120 A 
ATOM     39  N   UNL     1      29.691   4.400  -9.456  0.00  0.00    -0.263 NA
ATOM     40  C   UNL     1      28.484   4.985  -9.046  0.00  0.00    +0.111 A 
ENDBRANCH   4   3
ENDBRANCH  10   9
BRANCH  12  13
ATOM     13  N   UNL     1      31.576  -2.164  -0.065  0.00  0.00    -0.281 N 
ATOM     14  C   UNL     1      32.594  -1.781   0.794  0.00  0.00    +0.248 C 
ATOM     30  O   UNL     1      33.769  -1.686   0.474  0.00  0.00    -0.270 OA
ATOM     31  H   UNL     1      30.683  -2.391   0.372  0.00  0.00    +0.155 HD
BRANCH  14  15
ATOM     15  C   UNL     1      32.259  -1.472   2.218  0.00  0.00    +0.037 A 
ATOM     16  C   UNL     1      32.714  -2.336   3.310  0.00  0.00    +0.013 A 
ATOM     17  C   UNL     1      32.363  -2.025   4.673  0.00  0.00    +0.005 A 
ATOM     18  C   UNL     1      31.551  -0.842   4.951  0.00  0.00    -0.033 A 
ATOM     28  C   UNL     1      31.117   0.000   3.849  0.00  0.00    +0.005 A 
ATOM     29  C   UNL     1      31.459  -0.302   2.512  0.00  0.00    +0.013 A 
BRANCH  18  19
ATOM     19  C   UNL     1      31.111  -0.445   6.373  0.00  0.00    +0.119 C 
BRANCH  19  20
ATOM     20  N   UNL     1      32.184  -0.275   7.398  0.00  0.00    -0.302 NA
ATOM     21  C   UNL     1      32.081  -1.316   8.515  0.00  0.00    +0.066 C 
ATOM     22  C   UNL     1      33.224  -1.137   9.567  0.00  0.00    -0.064 C 
ATOM     23  N   UNL     1      33.168   0.280  10.141  0.00  0.00    +0.379 N 
ATOM     24  C   UNL     1      34.204   0.433  11.172  0.00  0.00    -0.096 C 
ATOM     25  H   UNL     1      32.177   0.405  10.636  0.00  0.00    -0.082 HD
ATOM     26  C   UNL     1      33.266   1.322   9.036  0.00  0.00    -0.064 C 
ATOM     27  C   UNL     1      32.144   1.117   7.980  0.00  0.00    +0.066 C 
ENDBRANCH  19  20
ENDBRANCH  18  19
ENDBRANCH  14  15
ENDBRANCH  12  13
TORSDOF 6
ENDMDL
