MODEL 1
REMARK VINA RESULT:      -9.2      0.000      0.000
REMARK  Name = C:\Users\Docking\Desktop\test protocol\1iep_ligandH.pdb
REMARK  8 active torsions:
REMARK  status: ('A' for Active; 'I' for Inactive)
REMARK    1  A    between atoms: _5  and  _11
REMARK    2  A    between atoms: _19  and  _21
REMARK    3  A    between atoms: _22  and  _66
REMARK    4  A    between atoms: _27  and  _30
REMARK    5  A    between atoms: _32  and  _33
REMARK    6  A    between atoms: _38  and  _43
REMARK    7  A    between atoms: _43  and  _46
REMARK    8  A    between atoms: _53  and  _55
REMARK                            x       y       z     vdW  Elec       q    Type
REMARK                         _______ _______ _______ _____ _____    ______ ____
ROOT
ATOM     10  C   UNL     1       1.473  28.430  64.299  0.00  0.00    +0.038 A 
ATOM     11  C   UNL     1       1.599  28.761  62.926  0.00  0.00    +0.047 A 
ATOM     12  C   UNL     1       0.461  28.677  62.024  0.00  0.00    +0.035 A 
ATOM     32  C   UNL     1      -0.792  28.254  62.555  0.00  0.00    +0.024 A 
ATOM     33  C   UNL     1      -0.938  27.912  63.948  0.00  0.00    +0.007 A 
ATOM     34  C   UNL     1       0.182  27.991  64.842  0.00  0.00    -0.029 A 
ATOM     35  C   UNL     1      -0.031  27.606  66.325  0.00  0.00    +0.045 C 
ENDROOT
BRANCH  10   9
ATOM      4  C   UNL     1       4.456  30.928  67.109  0.00  0.00    +0.077 A 
ATOM      5  C   UNL     1       3.726  32.146  66.903  0.00  0.00    +0.048 A 
ATOM      6  C   UNL     1       2.592  32.088  66.061  0.00  0.00    +0.116 A 
ATOM      7  N   UNL     1       2.226  30.895  65.475  0.00  0.00    -0.223 NA
ATOM      8  C   UNL     1       2.954  29.740  65.693  0.00  0.00    +0.220 A 
ATOM      9  N   UNL     1       2.599  28.529  65.120  0.00  0.00    -0.283 N 
ATOM     36  H   UNL     1       3.166  27.700  65.300  0.00  0.00    +0.155 HD
ATOM     37  N   UNL     1       4.041  29.770  66.492  0.00  0.00    -0.214 NA
BRANCH   4   3
ATOM      1  C   UNL     1       8.079  31.360  68.521  0.00  0.00    +0.020 A 
ATOM      2  C   UNL     1       6.932  31.488  67.651  0.00  0.00    +0.013 A 
ATOM      3  C   UNL     1       5.674  30.828  67.974  0.00  0.00    +0.019 A 
ATOM     38  C   UNL     1       5.608  30.039  69.196  0.00  0.00    +0.120 A 
ATOM     39  N   UNL     1       6.729  29.932  70.013  0.00  0.00    -0.263 NA
ATOM     40  C   UNL     1       7.945  30.562  69.711  0.00  0.00    +0.111 A 
ENDBRANCH   4   3
ENDBRANCH  10   9
BRANCH  12  13
ATOM     13  N   UNL     1       0.531  28.993  60.619  0.00  0.00    -0.281 N 
ATOM     14  C   UNL     1       0.427  30.238  60.020  0.00  0.00    +0.248 C 
ATOM     30  O   UNL     1       0.044  31.249  60.589  0.00  0.00    -0.270 OA
ATOM     31  H   UNL     1       0.673  28.203  59.989  0.00  0.00    +0.155 HD
BRANCH  14  15
ATOM     15  C   UNL     1       0.789  30.377  58.576  0.00  0.00    +0.037 A 
ATOM     16  C   UNL     1       1.300  31.640  58.039  0.00  0.00    +0.013 A 
ATOM     17  C   UNL     1       1.624  31.752  56.639  0.00  0.00    +0.005 A 
ATOM     18  C   UNL     1       1.440  30.595  55.766  0.00  0.00    -0.033 A 
ATOM     28  C   UNL     1       0.936  29.352  56.327  0.00  0.00    +0.005 A 
ATOM     29  C   UNL     1       0.616  29.239  57.698  0.00  0.00    +0.013 A 
BRANCH  18  19
ATOM     19  C   UNL     1       1.740  30.630  54.256  0.00  0.00    +0.119 C 
BRANCH  19  20
ATOM     20  N   UNL     1       1.912  29.319  53.563  0.00  0.00    -0.302 NA
ATOM     21  C   UNL     1       3.132  29.313  52.638  0.00  0.00    +0.066 C 
ATOM     22  C   UNL     1       3.310  27.927  51.937  0.00  0.00    -0.064 C 
ATOM     23  N   UNL     1       2.039  27.585  51.159  0.00  0.00    +0.379 N 
ATOM     24  C   UNL     1       2.224  26.309  50.452  0.00  0.00    -0.096 C 
ATOM     25  H   UNL     1       1.890  28.379  50.390  0.00  0.00    -0.082 HD
ATOM     26  C   UNL     1       0.820  27.591  52.070  0.00  0.00    -0.064 C 
ATOM     27  C   UNL     1       0.669  28.964  52.784  0.00  0.00    +0.066 C 
ENDBRANCH  19  20
ENDBRANCH  18  19
ENDBRANCH  14  15
ENDBRANCH  12  13
TORSDOF 6
ENDMDL
MODEL 2
REMARK VINA RESULT:      -8.7      3.015      6.627
REMARK  Name = C:\Users\Docking\Desktop\test protocol\1iep_ligandH.pdb
REMARK  8 active torsions:
REMARK  status: ('A' for Active; 'I' for Inactive)
REMARK    1  A    between atoms: _5  and  _11
REMARK    2  A    between atoms: _19  and  _21
REMARK    3  A    between atoms: _22  and  _66
REMARK    4  A    between atoms: _27  and  _30
REMARK    5  A    between atoms: _32  and  _33
REMARK    6  A    between atoms: _38  and  _43
REMARK    7  A    between atoms: _43  and  _46
REMARK    8  A    between atoms: _53  and  _55
REMARK                            x       y       z     vdW  Elec       q    Type
REMARK                         _______ _______ _______ _____ _____    ______ ____
ROOT
ATOM     10  C   UNL     1       5.810  30.974  68.840  0.00  0.00    +0.038 A 
ATOM     11  C   UNL     1       5.290  30.675  67.555  0.00  0.00    +0.047 A 
ATOM     12  C   UNL     1       3.974  31.143  67.148  0.00  0.00    +0.035 A 
ATOM     32  C   UNL     1       3.216  31.915  68.075  0.00  0.00    +0.024 A 
ATOM     33  C   UNL     1       3.728  32.227  69.386  0.00  0.00    +0.007 A 
ATOM     34  C   UNL     1       5.024  31.766  69.794  0.00  0.00    -0.029 A 
ATOM     35  C   UNL     1       5.521  32.125  71.214  0.00  0.00    +0.045 C 
ENDROOT
BRANCH  10   9
ATOM      4  C   UNL     1       8.748  27.565  70.510  0.00  0.00    +0.077 A 
ATOM      5  C   UNL     1       7.659  26.664  70.755  0.00  0.00    +0.048 A 
ATOM      6  C   UNL     1       6.358  27.118  70.444  0.00  0.00    +0.116 A 
ATOM      7  N   UNL     1       6.171  28.382  69.927  0.00  0.00    -0.223 NA
ATOM      8  C   UNL     1       7.243  29.227  69.705  0.00  0.00    +0.220 A 
ATOM      9  N   UNL     1       7.079  30.499  69.178  0.00  0.00    -0.283 N 
ATOM     36  H   UNL     1       7.895  31.094  69.036  0.00  0.00    +0.155 HD
ATOM     37  N   UNL     1       8.495  28.817  69.995  0.00  0.00    -0.214 NA
BRANCH   4   3
ATOM      1  C   UNL     1      12.151  25.653  70.765  0.00  0.00    +0.020 A 
ATOM      2  C   UNL     1      10.761  25.927  70.481  0.00  0.00    +0.013 A 
ATOM      3  C   UNL     1      10.181  27.229  70.784  0.00  0.00    +0.019 A 
ATOM     38  C   UNL     1      11.041  28.241  71.378  0.00  0.00    +0.120 A 
ATOM     39  N   UNL     1      12.376  27.949  71.642  0.00  0.00    -0.263 NA
ATOM     40  C   UNL     1      12.945  26.699  71.356  0.00  0.00    +0.111 A 
ENDBRANCH   4   3
ENDBRANCH  10   9
BRANCH  12  13
ATOM     13  N   UNL     1       3.391  30.864  65.859  0.00  0.00    -0.281 N 
ATOM     14  C   UNL     1       2.808  29.685  65.425  0.00  0.00    +0.248 C 
ATOM     30  O   UNL     1       2.892  28.616  66.011  0.00  0.00    -0.270 OA
ATOM     31  H   UNL     1       3.410  31.630  65.185  0.00  0.00    +0.155 HD
BRANCH  14  15
ATOM     15  C   UNL     1       2.032  29.690  64.148  0.00  0.00    +0.037 A 
ATOM     16  C   UNL     1       1.644  28.440  63.489  0.00  0.00    +0.013 A 
ATOM     17  C   UNL     1       0.911  28.474  62.249  0.00  0.00    +0.005 A 
ATOM     18  C   UNL     1       0.559  29.764  61.660  0.00  0.00    -0.033 A 
ATOM     28  C   UNL     1       0.951  30.988  62.337  0.00  0.00    +0.005 A 
ATOM     29  C   UNL     1       1.671  30.959  63.552  0.00  0.00    +0.013 A 
BRANCH  18  19
ATOM     19  C   UNL     1      -0.205  29.894  60.328  0.00  0.00    +0.119 C 
BRANCH  19  20
ATOM     20  N   UNL     1       0.606  30.125  59.095  0.00  0.00    -0.302 NA
ATOM     21  C   UNL     1       0.511  31.573  58.608  0.00  0.00    +0.066 C 
ATOM     22  C   UNL     1       1.383  31.802  57.330  0.00  0.00    -0.064 C 
ATOM     23  N   UNL     1       0.941  30.831  56.234  0.00  0.00    +0.379 N 
ATOM     24  C   UNL     1       1.719  31.083  55.012  0.00  0.00    -0.096 C 
ATOM     25  H   UNL     1      -0.129  31.046  56.004  0.00  0.00    -0.082 HD
ATOM     26  C   UNL     1       1.029  29.389  56.711  0.00  0.00    -0.064 C 
ATOM     27  C   UNL     1       0.183  29.179  57.998  0.00  0.00    +0.066 C 
ENDBRANCH  19  20
ENDBRANCH  18  19
ENDBRANCH  14  15
ENDBRANCH  12  13
TORSDOF 6
ENDMDL
MODEL 3
REMARK VINA RESULT:      -8.6      1.698      2.465
REMARK  Name = C:\Users\Docking\Desktop\test protocol\1iep_ligandH.pdb
REMARK  8 active torsions:
REMARK  status: ('A' for Active; 'I' for Inactive)
REMARK    1  A    between atoms: _5  and  _11
REMARK    2  A    between atoms: _19  and  _21
REMARK    3  A    between atoms: _22  and  _66
REMARK    4  A    between atoms: _27  and  _30
REMARK    5  A    between atoms: _32  and  _33
REMARK    6  A    between atoms: _38  and  _43
REMARK    7  A    between atoms: _43  and  _46
REMARK    8  A    between atoms: _53  and  _55
REMARK                            x       y       z     vdW  Elec       q    Type
REMARK                         _______ _______ _______ _____ _____    ______ ____
ROOT
ATOM     10  C   UNL     1       1.423  28.430  64.224  0.00  0.00    +0.038 A 
ATOM     11  C   UNL     1       1.551  28.780  62.856  0.00  0.00    +0.047 A 
ATOM     12  C   UNL     1       0.417  28.700  61.949  0.00  0.00    +0.035 A 
ATOM     32  C   UNL     1      -0.835  28.262  62.470  0.00  0.00    +0.024 A 
ATOM     33  C   UNL     1      -0.983  27.902  63.859  0.00  0.00    +0.007 A 
ATOM     34  C   UNL     1       0.133  27.976  64.757  0.00  0.00    -0.029 A 
ATOM     35  C   UNL     1      -0.082  27.572  66.234  0.00  0.00    +0.045 C 
ENDROOT
BRANCH  10   9
ATOM      4  C   UNL     1       4.403  30.922  67.044  0.00  0.00    +0.077 A 
ATOM      5  C   UNL     1       3.678  32.142  66.832  0.00  0.00    +0.048 A 
ATOM      6  C   UNL     1       2.548  32.087  65.985  0.00  0.00    +0.116 A 
ATOM      7  N   UNL     1       2.180  30.895  65.399  0.00  0.00    -0.223 NA
ATOM      8  C   UNL     1       2.902  29.737  65.623  0.00  0.00    +0.220 A 
ATOM      9  N   UNL     1       2.545  28.526  65.050  0.00  0.00    -0.283 N 
ATOM     36  H   UNL     1       3.108  27.696  65.234  0.00  0.00    +0.155 HD
ATOM     37  N   UNL     1       3.986  29.764  66.426  0.00  0.00    -0.214 NA
BRANCH   4   3
ATOM      1  C   UNL     1       8.022  31.337  68.468  0.00  0.00    +0.020 A 
ATOM      2  C   UNL     1       6.880  31.468  67.592  0.00  0.00    +0.013 A 
ATOM      3  C   UNL     1       5.616  30.818  67.915  0.00  0.00    +0.019 A 
ATOM     38  C   UNL     1       5.540  30.038  69.140  0.00  0.00    +0.120 A 
ATOM     39  N   UNL     1       6.656  29.928  69.963  0.00  0.00    -0.263 NA
ATOM     40  C   UNL     1       7.878  30.547  69.663  0.00  0.00    +0.111 A 
ENDBRANCH   4   3
ENDBRANCH  10   9
BRANCH  12  13
ATOM     13  N   UNL     1       0.489  29.034  60.548  0.00  0.00    -0.281 N 
ATOM     14  C   UNL     1       0.539  30.294  59.974  0.00  0.00    +0.248 C 
ATOM     30  O   UNL     1       0.312  31.335  60.573  0.00  0.00    -0.270 OA
ATOM     31  H   UNL     1       0.505  28.245  59.901  0.00  0.00    +0.155 HD
BRANCH  14  15
ATOM     15  C   UNL     1       0.875  30.413  58.523  0.00  0.00    +0.037 A 
ATOM     16  C   UNL     1       1.330  31.683  57.950  0.00  0.00    +0.013 A 
ATOM     17  C   UNL     1       1.631  31.775  56.544  0.00  0.00    +0.005 A 
ATOM     18  C   UNL     1       1.479  30.593  55.699  0.00  0.00    -0.033 A 
ATOM     28  C   UNL     1       1.030  29.345  56.294  0.00  0.00    +0.005 A 
ATOM     29  C   UNL     1       0.733  29.251  57.673  0.00  0.00    +0.013 A 
BRANCH  18  19
ATOM     19  C   UNL     1       1.757  30.605  54.185  0.00  0.00    +0.119 C 
BRANCH  19  20
ATOM     20  N   UNL     1       2.334  31.855  53.606  0.00  0.00    -0.302 NA
ATOM     21  C   UNL     1       2.137  31.930  52.089  0.00  0.00    +0.066 C 
ATOM     22  C   UNL     1       2.726  33.254  51.503  0.00  0.00    -0.064 C 
ATOM     23  N   UNL     1       4.210  33.350  51.861  0.00  0.00    +0.379 N 
ATOM     24  C   UNL     1       4.781  34.566  51.262  0.00  0.00    -0.096 C 
ATOM     25  H   UNL     1       4.726  32.474  51.405  0.00  0.00    -0.082 HD
ATOM     26  C   UNL     1       4.416  33.274  53.367  0.00  0.00    -0.064 C 
ATOM     27  C   UNL     1       3.800  31.968  53.944  0.00  0.00    +0.066 C 
ENDBRANCH  19  20
ENDBRANCH  18  19
ENDBRANCH  14  15
ENDBRANCH  12  13
TORSDOF 6
ENDMDL
MODEL 4
REMARK VINA RESULT:      -8.6      3.378      5.820
REMARK  Name = C:\Users\Docking\Desktop\test protocol\1iep_ligandH.pdb
REMARK  8 active torsions:
REMARK  status: ('A' for Active; 'I' for Inactive)
REMARK    1  A    between atoms: _5  and  _11
REMARK    2  A    between atoms: _19  and  _21
REMARK    3  A    between atoms: _22  and  _66
REMARK    4  A    between atoms: _27  and  _30
REMARK    5  A    between atoms: _32  and  _33
REMARK    6  A    between atoms: _38  and  _43
REMARK    7  A    between atoms: _43  and  _46
REMARK    8  A    between atoms: _53  and  _55
REMARK                            x       y       z     vdW  Elec       q    Type
REMARK                         _______ _______ _______ _____ _____    ______ ____
ROOT
ATOM     10  C   UNL     1       1.227  27.868  64.491  0.00  0.00    +0.038 A 
ATOM     11  C   UNL     1       1.024  27.747  63.093  0.00  0.00    +0.047 A 
ATOM     12  C   UNL     1       0.920  28.922  62.242  0.00  0.00    +0.035 A 
ATOM     32  C   UNL     1       1.030  30.207  62.849  0.00  0.00    +0.024 A 
ATOM     33  C   UNL     1       1.235  30.349  64.269  0.00  0.00    +0.007 A 
ATOM     34  C   UNL     1       1.336  29.193  65.114  0.00  0.00    -0.029 A 
ATOM     35  C   UNL     1       1.549  29.405  66.630  0.00  0.00    +0.045 C 
ENDROOT
BRANCH  10   9
ATOM      4  C   UNL     1      -0.747  24.153  66.802  0.00  0.00    +0.077 A 
ATOM      5  C   UNL     1      -2.077  24.579  66.472  0.00  0.00    +0.048 A 
ATOM      6  C   UNL     1      -2.210  25.763  65.712  0.00  0.00    +0.116 A 
ATOM      7  N   UNL     1      -1.089  26.461  65.317  0.00  0.00    -0.223 NA
ATOM      8  C   UNL     1       0.179  26.024  65.654  0.00  0.00    +0.220 A 
ATOM      9  N   UNL     1       1.320  26.706  65.260  0.00  0.00    -0.283 N 
ATOM     36  H   UNL     1       2.237  26.355  65.535  0.00  0.00    +0.155 HD
ATOM     37  N   UNL     1       0.332  24.897  66.380  0.00  0.00    -0.214 NA
BRANCH   4   3
ATOM      1  C   UNL     1      -0.098  21.692  69.772  0.00  0.00    +0.020 A 
ATOM      2  C   UNL     1      -0.395  22.909  69.053  0.00  0.00    +0.013 A 
ATOM      3  C   UNL     1      -0.443  22.921  67.596  0.00  0.00    +0.019 A 
ATOM     38  C   UNL     1      -0.184  21.675  66.892  0.00  0.00    +0.120 A 
ATOM     39  N   UNL     1       0.102  20.518  67.611  0.00  0.00    -0.263 NA
ATOM     40  C   UNL     1       0.152  20.495  69.013  0.00  0.00    +0.111 A 
ENDBRANCH   4   3
ENDBRANCH  10   9
BRANCH  12  13
ATOM     13  N   UNL     1       0.706  28.861  60.817  0.00  0.00    -0.281 N 
ATOM     14  C   UNL     1      -0.494  28.950  60.132  0.00  0.00    +0.248 C 
ATOM     30  O   UNL     1      -1.596  28.883  60.656  0.00  0.00    -0.270 OA
ATOM     31  H   UNL     1       1.542  28.736  60.245  0.00  0.00    +0.155 HD
BRANCH  14  15
ATOM     15  C   UNL     1      -0.466  29.126  58.648  0.00  0.00    +0.037 A 
ATOM     16  C   UNL     1       0.764  29.508  57.950  0.00  0.00    +0.013 A 
ATOM     17  C   UNL     1       0.759  29.687  56.520  0.00  0.00    +0.005 A 
ATOM     18  C   UNL     1      -0.482  29.483  55.777  0.00  0.00    -0.033 A 
ATOM     28  C   UNL     1      -1.687  29.099  56.493  0.00  0.00    +0.005 A 
ATOM     29  C   UNL     1      -1.686  28.923  57.895  0.00  0.00    +0.013 A 
BRANCH  18  19
ATOM     19  C   UNL     1      -0.584  29.673  54.252  0.00  0.00    +0.119 C 
BRANCH  19  20
ATOM     20  N   UNL     1      -0.048  28.578  53.389  0.00  0.00    -0.302 NA
ATOM     21  C   UNL     1      -0.676  27.222  53.724  0.00  0.00    +0.066 C 
ATOM     22  C   UNL     1      -0.120  26.093  52.797  0.00  0.00    -0.064 C 
ATOM     23  N   UNL     1       1.403  26.032  52.929  0.00  0.00    +0.379 N 
ATOM     24  C   UNL     1       1.923  24.933  52.102  0.00  0.00    -0.096 C 
ATOM     25  H   UNL     1       1.640  25.797  53.992  0.00  0.00    -0.082 HD
ATOM     26  C   UNL     1       2.035  27.377  52.600  0.00  0.00    -0.064 C 
ATOM     27  C   UNL     1       1.454  28.497  53.507  0.00  0.00    +0.066 C 
ENDBRANCH  19  20
ENDBRANCH  18  19
ENDBRANCH  14  15
ENDBRANCH  12  13
TORSDOF 6
ENDMDL
MODEL 5
REMARK VINA RESULT:      -8.5     33.608     35.361
REMARK  Name = C:\Users\Docking\Desktop\test protocol\1iep_ligandH.pdb
REMARK  8 active torsions:
REMARK  status: ('A' for Active; 'I' for Inactive)
REMARK    1  A    between atoms: _5  and  _11
REMARK    2  A    between atoms: _19  and  _21
REMARK    3  A    between atoms: _22  and  _66
REMARK    4  A    between atoms: _27  and  _30
REMARK    5  A    between atoms: _32  and  _33
REMARK    6  A    between atoms: _38  and  _43
REMARK    7  A    between atoms: _43  and  _46
REMARK    8  A    between atoms: _53  and  _55
REMARK                            x       y       z     vdW  Elec       q    Type
REMARK                         _______ _______ _______ _____ _____    ______ ____
ROOT
ATOM     10  C   UNL     1      32.878  19.670  52.079  0.00  0.00    +0.038 A 
ATOM     11  C   UNL     1      32.596  18.392  51.531  0.00  0.00    +0.047 A 
ATOM     12  C   UNL     1      32.353  18.222  50.107  0.00  0.00    +0.035 A 
ATOM     32  C   UNL     1      32.408  19.374  49.269  0.00  0.00    +0.024 A 
ATOM     33  C   UNL     1      32.692  20.680  49.810  0.00  0.00    +0.007 A 
ATOM     34  C   UNL     1      32.929  20.855  51.215  0.00  0.00    -0.029 A 
ATOM     35  C   UNL     1      33.223  22.279  51.740  0.00  0.00    +0.045 C 
ENDROOT
BRANCH  10   9
ATOM      4  C   UNL     1      35.700  19.315  55.945  0.00  0.00    +0.077 A 
ATOM      5  C   UNL     1      36.811  18.854  55.165  0.00  0.00    +0.048 A 
ATOM      6  C   UNL     1      36.613  18.715  53.773  0.00  0.00    +0.116 A 
ATOM      7  N   UNL     1      35.391  19.017  53.214  0.00  0.00    -0.223 NA
ATOM      8  C   UNL     1      34.339  19.458  53.996  0.00  0.00    +0.220 A 
ATOM      9  N   UNL     1      33.103  19.776  53.454  0.00  0.00    -0.283 N 
ATOM     36  H   UNL     1      32.350  20.090  54.065  0.00  0.00    +0.155 HD
ATOM     37  N   UNL     1      34.502  19.598  55.328  0.00  0.00    -0.214 NA
BRANCH   4   3
ATOM      1  C   UNL     1      34.684  19.621  59.710  0.00  0.00    +0.020 A 
ATOM      2  C   UNL     1      34.578  19.419  58.284  0.00  0.00    +0.013 A 
ATOM      3  C   UNL     1      35.753  19.516  57.428  0.00  0.00    +0.019 A 
ATOM     38  C   UNL     1      37.032  19.821  58.052  0.00  0.00    +0.120 A 
ATOM     39  N   UNL     1      37.104  20.012  59.429  0.00  0.00    -0.263 NA
ATOM     40  C   UNL     1      35.979  19.923  60.262  0.00  0.00    +0.111 A 
ENDBRANCH   4   3
ENDBRANCH  10   9
BRANCH  12  13
ATOM     13  N   UNL     1      32.054  16.951  49.494  0.00  0.00    -0.281 N 
ATOM     14  C   UNL     1      32.824  16.241  48.587  0.00  0.00    +0.248 C 
ATOM     30  O   UNL     1      33.794  16.695  47.999  0.00  0.00    -0.270 OA
ATOM     31  H   UNL     1      31.168  16.523  49.761  0.00  0.00    +0.155 HD
BRANCH  14  15
ATOM     15  C   UNL     1      32.454  14.826  48.278  0.00  0.00    +0.037 A 
ATOM     16  C   UNL     1      33.476  13.826  47.960  0.00  0.00    +0.013 A 
ATOM     17  C   UNL     1      33.090  12.472  47.648  0.00  0.00    +0.005 A 
ATOM     18  C   UNL     1      31.675  12.111  47.656  0.00  0.00    -0.033 A 
ATOM     28  C   UNL     1      30.682  13.122  47.981  0.00  0.00    +0.005 A 
ATOM     29  C   UNL     1      31.056  14.450  48.285  0.00  0.00    +0.013 A 
BRANCH  18  19
ATOM     19  C   UNL     1      31.171  10.696  47.316  0.00  0.00    +0.119 C 
BRANCH  19  20
ATOM     20  N   UNL     1      30.404   9.971  48.372  0.00  0.00    -0.302 NA
ATOM     21  C   UNL     1      31.039  10.132  49.756  0.00  0.00    +0.066 C 
ATOM     22  C   UNL     1      30.212   9.385  50.853  0.00  0.00    -0.064 C 
ATOM     23  N   UNL     1      30.093   7.907  50.480  0.00  0.00    +0.379 N 
ATOM     24  C   UNL     1      29.365   7.191  51.538  0.00  0.00    -0.096 C 
ATOM     25  H   UNL     1      31.124   7.486  50.435  0.00  0.00    -0.082 HD
ATOM     26  C   UNL     1      29.465   7.737  49.104  0.00  0.00    -0.064 C 
ATOM     27  C   UNL     1      30.278   8.507  48.027  0.00  0.00    +0.066 C 
ENDBRANCH  19  20
ENDBRANCH  18  19
ENDBRANCH  14  15
ENDBRANCH  12  13
TORSDOF 6
ENDMDL
