MODEL 1
REMARK VINA RESULT:      -7.8      0.000      0.000
REMARK  Name = C:\Users\Docking\Desktop\test protocol\1iep_ligandH.pdb
REMARK  8 active torsions:
REMARK  status: ('A' for Active; 'I' for Inactive)
REMARK    1  A    between atoms: _5  and  _11
REMARK    2  A    between atoms: _19  and  _21
REMARK    3  A    between atoms: _22  and  _66
REMARK    4  A    between atoms: _27  and  _30
REMARK    5  A    between atoms: _32  and  _33
REMARK    6  A    between atoms: _38  and  _43
REMARK    7  A    between atoms: _43  and  _46
REMARK    8  A    between atoms: _53  and  _55
REMARK                            x       y       z     vdW  Elec       q    Type
REMARK                         _______ _______ _______ _____ _____    ______ ____
ROOT
ATOM     10  C   UNL     1      54.511 -41.205   2.658  0.00  0.00    +0.038 A 
ATOM     11  C   UNL     1      53.165 -40.761   2.689  0.00  0.00    +0.047 A 
ATOM     12  C   UNL     1      52.358 -40.719   1.480  0.00  0.00    +0.035 A 
ATOM     32  C   UNL     1      52.955 -41.139   0.255  0.00  0.00    +0.024 A 
ATOM     33  C   UNL     1      54.322 -41.592   0.205  0.00  0.00    +0.007 A 
ATOM     34  C   UNL     1      55.123 -41.634   1.395  0.00  0.00    -0.029 A 
ATOM     35  C   UNL     1      56.586 -42.123   1.281  0.00  0.00    +0.045 C 
ENDROOT
BRANCH  10   9
ATOM      4  C   UNL     1      57.126 -39.051   6.058  0.00  0.00    +0.077 A 
ATOM      5  C   UNL     1      57.058 -37.783   5.390  0.00  0.00    +0.048 A 
ATOM      6  C   UNL     1      56.346 -37.730   4.171  0.00  0.00    +0.116 A 
ATOM      7  N   UNL     1      55.751 -38.865   3.666  0.00  0.00    -0.223 NA
ATOM      8  C   UNL     1      55.837 -40.073   4.335  0.00  0.00    +0.220 A 
ATOM      9  N   UNL     1      55.239 -41.226   3.850  0.00  0.00    -0.283 N 
ATOM     36  H   UNL     1      55.332 -42.098   4.369  0.00  0.00    +0.155 HD
ATOM     37  N   UNL     1      56.512 -40.150   5.501  0.00  0.00    -0.214 NA
BRANCH   4   3
ATOM      1  C   UNL     1      58.494 -38.569   9.691  0.00  0.00    +0.020 A 
ATOM      2  C   UNL     1      57.788 -38.312   8.457  0.00  0.00    +0.013 A 
ATOM      3  C   UNL     1      57.838 -39.267   7.357  0.00  0.00    +0.019 A 
ATOM     38  C   UNL     1      58.617 -40.482   7.540  0.00  0.00    +0.120 A 
ATOM     39  N   UNL     1      59.288 -40.702   8.739  0.00  0.00    -0.263 NA
ATOM     40  C   UNL     1      59.248 -39.789   9.804  0.00  0.00    +0.111 A 
ENDBRANCH   4   3
ENDBRANCH  10   9
BRANCH  12  13
ATOM     13  N   UNL     1      50.988 -40.270   1.448  0.00  0.00    -0.281 N 
ATOM     14  C   UNL     1      50.479 -39.129   0.849  0.00  0.00    +0.248 C 
ATOM     30  O   UNL     1      51.161 -38.207   0.428  0.00  0.00    -0.270 OA
ATOM     31  H   UNL     1      50.312 -40.865   1.927  0.00  0.00    +0.155 HD
BRANCH  14  15
ATOM     15  C   UNL     1      48.998 -38.987   0.709  0.00  0.00    +0.037 A 
ATOM     16  C   UNL     1      48.151 -38.695   1.868  0.00  0.00    +0.013 A 
ATOM     17  C   UNL     1      46.723 -38.579   1.709  0.00  0.00    +0.005 A 
ATOM     18  C   UNL     1      46.133 -38.754   0.384  0.00  0.00    -0.033 A 
ATOM     28  C   UNL     1      46.998 -39.038  -0.750  0.00  0.00    +0.005 A 
ATOM     29  C   UNL     1      48.398 -39.153  -0.597  0.00  0.00    +0.013 A 
BRANCH  18  19
ATOM     19  C   UNL     1      44.617 -38.668   0.124  0.00  0.00    +0.119 C 
BRANCH  19  20
ATOM     20  N   UNL     1      43.949 -39.884  -0.429  0.00  0.00    -0.302 NA
ATOM     21  C   UNL     1      43.189 -39.582  -1.724  0.00  0.00    +0.066 C 
ATOM     22  C   UNL     1      42.515 -40.869  -2.301  0.00  0.00    -0.064 C 
ATOM     23  N   UNL     1      41.578 -41.466  -1.250  0.00  0.00    +0.379 N 
ATOM     24  C   UNL     1      40.898 -42.643  -1.810  0.00  0.00    -0.096 C 
ATOM     25  H   UNL     1      40.798 -40.703  -1.019  0.00  0.00    -0.082 HD
ATOM     26  C   UNL     1      42.325 -41.766   0.042  0.00  0.00    -0.064 C 
ATOM     27  C   UNL     1      43.016 -40.487   0.592  0.00  0.00    +0.066 C 
ENDBRANCH  19  20
ENDBRANCH  18  19
ENDBRANCH  14  15
ENDBRANCH  12  13
TORSDOF 6
ENDMDL
MODEL 2
REMARK VINA RESULT:      -7.2     23.593     25.420
REMARK  Name = C:\Users\Docking\Desktop\test protocol\1iep_ligandH.pdb
REMARK  8 active torsions:
REMARK  status: ('A' for Active; 'I' for Inactive)
REMARK    1  A    between atoms: _5  and  _11
REMARK    2  A    between atoms: _19  and  _21
REMARK    3  A    between atoms: _22  and  _66
REMARK    4  A    between atoms: _27  and  _30
REMARK    5  A    between atoms: _32  and  _33
REMARK    6  A    between atoms: _38  and  _43
REMARK    7  A    between atoms: _43  and  _46
REMARK    8  A    between atoms: _53  and  _55
REMARK                            x       y       z     vdW  Elec       q    Type
REMARK                         _______ _______ _______ _____ _____    ______ ____
ROOT
ATOM     10  C   UNL     1      56.289 -23.861 -14.149  0.00  0.00    +0.038 A 
ATOM     11  C   UNL     1      55.429 -23.645 -15.255  0.00  0.00    +0.047 A 
ATOM     12  C   UNL     1      55.936 -23.109 -16.509  0.00  0.00    +0.035 A 
ATOM     32  C   UNL     1      57.326 -22.806 -16.601  0.00  0.00    +0.024 A 
ATOM     33  C   UNL     1      58.214 -23.019 -15.486  0.00  0.00    +0.007 A 
ATOM     34  C   UNL     1      57.720 -23.545 -14.246  0.00  0.00    -0.029 A 
ATOM     35  C   UNL     1      58.716 -23.747 -13.081  0.00  0.00    +0.045 C 
ENDROOT
BRANCH  10   9
ATOM      4  C   UNL     1      55.204 -27.520 -11.238  0.00  0.00    +0.077 A 
ATOM      5  C   UNL     1      55.734 -28.486 -12.157  0.00  0.00    +0.048 A 
ATOM      6  C   UNL     1      56.270 -28.000 -13.371  0.00  0.00    +0.116 A 
ATOM      7  N   UNL     1      56.271 -26.648 -13.635  0.00  0.00    -0.223 NA
ATOM      8  C   UNL     1      55.751 -25.743 -12.728  0.00  0.00    +0.220 A 
ATOM      9  N   UNL     1      55.749 -24.378 -12.969  0.00  0.00    -0.283 N 
ATOM     36  H   UNL     1      55.349 -23.744 -12.278  0.00  0.00    +0.155 HD
ATOM     37  N   UNL     1      55.232 -26.182 -11.562  0.00  0.00    -0.214 NA
BRANCH   4   3
ATOM      1  C   UNL     1      52.716 -28.709  -8.464  0.00  0.00    +0.020 A 
ATOM      2  C   UNL     1      53.245 -28.378  -9.767  0.00  0.00    +0.013 A 
ATOM      3  C   UNL     1      54.606 -27.877  -9.913  0.00  0.00    +0.019 A 
ATOM     38  C   UNL     1      55.411 -27.722  -8.711  0.00  0.00    +0.120 A 
ATOM     39  N   UNL     1      54.874 -28.047  -7.469  0.00  0.00    -0.263 NA
ATOM     40  C   UNL     1      53.565 -28.528  -7.317  0.00  0.00    +0.111 A 
ENDBRANCH   4   3
ENDBRANCH  10   9
BRANCH  12  13
ATOM     13  N   UNL     1      55.109 -22.860 -17.664  0.00  0.00    -0.281 N 
ATOM     14  C   UNL     1      55.286 -23.330 -18.955  0.00  0.00    +0.248 C 
ATOM     30  O   UNL     1      56.307 -23.865 -19.362  0.00  0.00    -0.270 OA
ATOM     31  H   UNL     1      54.295 -22.266 -17.511  0.00  0.00    +0.155 HD
BRANCH  14  15
ATOM     15  C   UNL     1      54.174 -23.170 -19.940  0.00  0.00    +0.037 A 
ATOM     16  C   UNL     1      54.406 -23.319 -21.379  0.00  0.00    +0.013 A 
ATOM     17  C   UNL     1      53.319 -23.142 -22.309  0.00  0.00    +0.005 A 
ATOM     18  C   UNL     1      51.988 -22.816 -21.802  0.00  0.00    -0.033 A 
ATOM     28  C   UNL     1      51.785 -22.680 -20.369  0.00  0.00    +0.005 A 
ATOM     29  C   UNL     1      52.848 -22.851 -19.455  0.00  0.00    +0.013 A 
BRANCH  18  19
ATOM     19  C   UNL     1      50.775 -22.590 -22.723  0.00  0.00    +0.119 C 
BRANCH  19  20
ATOM     20  N   UNL     1      50.700 -23.408 -23.970  0.00  0.00    -0.302 NA
ATOM     21  C   UNL     1      50.062 -22.634 -25.127  0.00  0.00    +0.066 C 
ATOM     22  C   UNL     1      50.013 -23.497 -26.430  0.00  0.00    -0.064 C 
ATOM     23  N   UNL     1      49.243 -24.790 -26.153  0.00  0.00    +0.379 N 
ATOM     24  C   UNL     1      49.145 -25.577 -27.391  0.00  0.00    -0.096 C 
ATOM     25  H   UNL     1      48.209 -24.509 -25.848  0.00  0.00    -0.082 HD
ATOM     26  C   UNL     1      49.869 -25.564 -25.002  0.00  0.00    -0.064 C 
ATOM     27  C   UNL     1      49.941 -24.687 -23.720  0.00  0.00    +0.066 C 
ENDBRANCH  19  20
ENDBRANCH  18  19
ENDBRANCH  14  15
ENDBRANCH  12  13
TORSDOF 6
ENDMDL
MODEL 3
REMARK VINA RESULT:      -6.9     13.781     16.792
REMARK  Name = C:\Users\Docking\Desktop\test protocol\1iep_ligandH.pdb
REMARK  8 active torsions:
REMARK  status: ('A' for Active; 'I' for Inactive)
REMARK    1  A    between atoms: _5  and  _11
REMARK    2  A    between atoms: _19  and  _21
REMARK    3  A    between atoms: _22  and  _66
REMARK    4  A    between atoms: _27  and  _30
REMARK    5  A    between atoms: _32  and  _33
REMARK    6  A    between atoms: _38  and  _43
REMARK    7  A    between atoms: _43  and  _46
REMARK    8  A    between atoms: _53  and  _55
REMARK                            x       y       z     vdW  Elec       q    Type
REMARK                         _______ _______ _______ _____ _____    ______ ____
ROOT
ATOM     10  C   UNL     1      53.406 -30.649  -2.909  0.00  0.00    +0.038 A 
ATOM     11  C   UNL     1      53.700 -30.587  -4.296  0.00  0.00    +0.047 A 
ATOM     12  C   UNL     1      54.077 -29.333  -4.929  0.00  0.00    +0.035 A 
ATOM     32  C   UNL     1      54.148 -28.161  -4.120  0.00  0.00    +0.024 A 
ATOM     33  C   UNL     1      53.851 -28.206  -2.710  0.00  0.00    +0.007 A 
ATOM     34  C   UNL     1      53.476 -29.440  -2.080  0.00  0.00    -0.029 A 
ATOM     35  C   UNL     1      53.163 -29.428  -0.565  0.00  0.00    +0.045 C 
ENDROOT
BRANCH  10   9
ATOM      4  C   UNL     1      50.165 -34.007  -1.788  0.00  0.00    +0.077 A 
ATOM      5  C   UNL     1      49.087 -33.232  -2.333  0.00  0.00    +0.048 A 
ATOM      6  C   UNL     1      49.408 -31.972  -2.886  0.00  0.00    +0.116 A 
ATOM      7  N   UNL     1      50.713 -31.530  -2.889  0.00  0.00    -0.223 NA
ATOM      8  C   UNL     1      51.728 -32.301  -2.354  0.00  0.00    +0.220 A 
ATOM      9  N   UNL     1      53.049 -31.879  -2.353  0.00  0.00    -0.283 N 
ATOM     36  H   UNL     1      53.768 -32.474  -1.942  0.00  0.00    +0.155 HD
ATOM     37  N   UNL     1      51.448 -33.507  -1.818  0.00  0.00    -0.214 NA
BRANCH   4   3
ATOM      1  C   UNL     1      48.957 -37.661  -1.090  0.00  0.00    +0.020 A 
ATOM      2  C   UNL     1      49.093 -36.370  -1.724  0.00  0.00    +0.013 A 
ATOM      3  C   UNL     1      49.986 -35.359  -1.171  0.00  0.00    +0.019 A 
ATOM     38  C   UNL     1      50.733 -35.690   0.033  0.00  0.00    +0.120 A 
ATOM     39  N   UNL     1      50.581 -36.941   0.622  0.00  0.00    -0.263 NA
ATOM     40  C   UNL     1      49.723 -37.921   0.100  0.00  0.00    +0.111 A 
ENDBRANCH   4   3
ENDBRANCH  10   9
BRANCH  12  13
ATOM     13  N   UNL     1      54.379 -29.207  -6.334  0.00  0.00    -0.281 N 
ATOM     14  C   UNL     1      53.781 -28.370  -7.262  0.00  0.00    +0.248 C 
ATOM     30  O   UNL     1      52.745 -27.752  -7.068  0.00  0.00    -0.270 OA
ATOM     31  H   UNL     1      55.124 -29.808  -6.687  0.00  0.00    +0.155 HD
BRANCH  14  15
ATOM     15  C   UNL     1      54.418 -28.207  -8.604  0.00  0.00    +0.037 A 
ATOM     16  C   UNL     1      55.732 -27.576  -8.749  0.00  0.00    +0.013 A 
ATOM     17  C   UNL     1      56.317 -27.416 -10.057  0.00  0.00    +0.005 A 
ATOM     18  C   UNL     1      55.587 -27.891 -11.230  0.00  0.00    -0.033 A 
ATOM     28  C   UNL     1      54.288 -28.518 -11.057  0.00  0.00    +0.005 A 
ATOM     29  C   UNL     1      53.711 -28.676  -9.777  0.00  0.00    +0.013 A 
BRANCH  18  19
ATOM     19  C   UNL     1      56.125 -27.743 -12.666  0.00  0.00    +0.119 C 
BRANCH  19  20
ATOM     20  N   UNL     1      57.313 -26.859 -12.863  0.00  0.00    -0.302 NA
ATOM     21  C   UNL     1      56.923 -25.489 -13.424  0.00  0.00    +0.066 C 
ATOM     22  C   UNL     1      58.175 -24.570 -13.603  0.00  0.00    -0.064 C 
ATOM     23  N   UNL     1      59.185 -25.262 -14.519  0.00  0.00    +0.379 N 
ATOM     24  C   UNL     1      60.338 -24.376 -14.736  0.00  0.00    -0.096 C 
ATOM     25  H   UNL     1      58.692 -25.423 -15.506  0.00  0.00    -0.082 HD
ATOM     26  C   UNL     1      59.577 -26.627 -13.971  0.00  0.00    -0.064 C 
ATOM     27  C   UNL     1      58.322 -27.522 -13.769  0.00  0.00    +0.066 C 
ENDBRANCH  19  20
ENDBRANCH  18  19
ENDBRANCH  14  15
ENDBRANCH  12  13
TORSDOF 6
ENDMDL
MODEL 4
REMARK VINA RESULT:      -6.8      9.991     15.402
REMARK  Name = C:\Users\Docking\Desktop\test protocol\1iep_ligandH.pdb
REMARK  8 active torsions:
REMARK  status: ('A' for Active; 'I' for Inactive)
REMARK    1  A    between atoms: _5  and  _11
REMARK    2  A    between atoms: _19  and  _21
REMARK    3  A    between atoms: _22  and  _66
REMARK    4  A    between atoms: _27  and  _30
REMARK    5  A    between atoms: _32  and  _33
REMARK    6  A    between atoms: _38  and  _43
REMARK    7  A    between atoms: _43  and  _46
REMARK    8  A    between atoms: _53  and  _55
REMARK                            x       y       z     vdW  Elec       q    Type
REMARK                         _______ _______ _______ _____ _____    ______ ____
ROOT
ATOM     10  C   UNL     1      54.326 -33.327  -3.333  0.00  0.00    +0.038 A 
ATOM     11  C   UNL     1      55.711 -33.155  -3.587  0.00  0.00    +0.047 A 
ATOM     12  C   UNL     1      56.238 -31.883  -4.057  0.00  0.00    +0.035 A 
ATOM     32  C   UNL     1      55.325 -30.806  -4.255  0.00  0.00    +0.024 A 
ATOM     33  C   UNL     1      53.915 -30.964  -4.003  0.00  0.00    +0.007 A 
ATOM     34  C   UNL     1      53.389 -32.217  -3.541  0.00  0.00    -0.029 A 
ATOM     35  C   UNL     1      51.867 -32.330  -3.293  0.00  0.00    +0.045 C 
ENDROOT
BRANCH  10   9
ATOM      4  C   UNL     1      53.551 -36.541   0.146  0.00  0.00    +0.077 A 
ATOM      5  C   UNL     1      54.117 -35.683   1.147  0.00  0.00    +0.048 A 
ATOM      6  C   UNL     1      54.603 -34.426   0.724  0.00  0.00    +0.116 A 
ATOM      7  N   UNL     1      54.523 -34.064  -0.604  0.00  0.00    -0.223 NA
ATOM      8  C   UNL     1      53.973 -34.916  -1.543  0.00  0.00    +0.220 A 
ATOM      9  N   UNL     1      53.875 -34.570  -2.882  0.00  0.00    -0.283 N 
ATOM     36  H   UNL     1      53.469 -35.229  -3.546  0.00  0.00    +0.155 HD
ATOM     37  N   UNL     1      53.503 -36.123  -1.165  0.00  0.00    -0.214 NA
BRANCH   4   3
ATOM      1  C   UNL     1      53.226 -40.389   0.771  0.00  0.00    +0.020 A 
ATOM      2  C   UNL     1      53.816 -39.101   0.485  0.00  0.00    +0.013 A 
ATOM      3  C   UNL     1      52.992 -37.900   0.438  0.00  0.00    +0.019 A 
ATOM     38  C   UNL     1      51.565 -38.036   0.688  0.00  0.00    +0.120 A 
ATOM     39  N   UNL     1      51.026 -39.290   0.959  0.00  0.00    -0.263 NA
ATOM     40  C   UNL     1      51.808 -40.453   1.006  0.00  0.00    +0.111 A 
ENDBRANCH   4   3
ENDBRANCH  10   9
BRANCH  12  13
ATOM     13  N   UNL     1      57.632 -31.652  -4.340  0.00  0.00    -0.281 N 
ATOM     14  C   UNL     1      58.696 -31.672  -3.453  0.00  0.00    +0.248 C 
ATOM     30  O   UNL     1      58.581 -31.682  -2.236  0.00  0.00    -0.270 OA
ATOM     31  H   UNL     1      57.864 -31.449  -5.313  0.00  0.00    +0.155 HD
BRANCH  14  15
ATOM     15  C   UNL     1      60.089 -31.666  -3.995  0.00  0.00    +0.037 A 
ATOM     16  C   UNL     1      60.864 -30.426  -4.085  0.00  0.00    +0.013 A 
ATOM     17  C   UNL     1      62.199 -30.446  -4.627  0.00  0.00    +0.005 A 
ATOM     18  C   UNL     1      62.768 -31.712  -5.084  0.00  0.00    -0.033 A 
ATOM     28  C   UNL     1      61.979 -32.928  -4.979  0.00  0.00    +0.005 A 
ATOM     29  C   UNL     1      60.670 -32.912  -4.449  0.00  0.00    +0.013 A 
BRANCH  18  19
ATOM     19  C   UNL     1      64.177 -31.823  -5.696  0.00  0.00    +0.119 C 
BRANCH  19  20
ATOM     20  N   UNL     1      64.708 -33.196  -5.947  0.00  0.00    -0.302 NA
ATOM     21  C   UNL     1      65.653 -33.659  -4.834  0.00  0.00    +0.066 C 
ATOM     22  C   UNL     1      66.181 -35.106  -5.101  0.00  0.00    -0.064 C 
ATOM     23  N   UNL     1      66.882 -35.148  -6.460  0.00  0.00    +0.379 N 
ATOM     24  C   UNL     1      67.430 -36.493  -6.688  0.00  0.00    -0.096 C 
ATOM     25  H   UNL     1      67.739 -34.436  -6.420  0.00  0.00    -0.082 HD
ATOM     26  C   UNL     1      65.950 -34.687  -7.571  0.00  0.00    -0.064 C 
ATOM     27  C   UNL     1      65.408 -33.259  -7.282  0.00  0.00    +0.066 C 
ENDBRANCH  19  20
ENDBRANCH  18  19
ENDBRANCH  14  15
ENDBRANCH  12  13
TORSDOF 6
ENDMDL
MODEL 5
REMARK VINA RESULT:      -6.7     13.510     15.754
REMARK  Name = C:\Users\Docking\Desktop\test protocol\1iep_ligandH.pdb
REMARK  8 active torsions:
REMARK  status: ('A' for Active; 'I' for Inactive)
REMARK    1  A    between atoms: _5  and  _11
REMARK    2  A    between atoms: _19  and  _21
REMARK    3  A    between atoms: _22  and  _66
REMARK    4  A    between atoms: _27  and  _30
REMARK    5  A    between atoms: _32  and  _33
REMARK    6  A    between atoms: _38  and  _43
REMARK    7  A    between atoms: _43  and  _46
REMARK    8  A    between atoms: _53  and  _55
REMARK                            x       y       z     vdW  Elec       q    Type
REMARK                         _______ _______ _______ _____ _____    ______ ____
ROOT
ATOM     10  C   UNL     1      57.020 -55.194  -4.156  0.00  0.00    +0.038 A 
ATOM     11  C   UNL     1      55.807 -54.928  -4.841  0.00  0.00    +0.047 A 
ATOM     12  C   UNL     1      54.673 -55.834  -4.743  0.00  0.00    +0.035 A 
ATOM     32  C   UNL     1      54.809 -57.001  -3.935  0.00  0.00    +0.024 A 
ATOM     33  C   UNL     1      56.035 -57.287  -3.233  0.00  0.00    +0.007 A 
ATOM     34  C   UNL     1      57.157 -56.398  -3.328  0.00  0.00    -0.029 A 
ATOM     35  C   UNL     1      58.449 -56.759  -2.558  0.00  0.00    +0.045 C 
ENDROOT
BRANCH  10   9
ATOM      4  C   UNL     1      59.445 -51.291  -2.769  0.00  0.00    +0.077 A 
ATOM      5  C   UNL     1      58.513 -51.014  -1.713  0.00  0.00    +0.048 A 
ATOM      6  C   UNL     1      57.419 -51.897  -1.566  0.00  0.00    +0.116 A 
ATOM      7  N   UNL     1      57.278 -52.973  -2.415  0.00  0.00    -0.223 NA
ATOM      8  C   UNL     1      58.194 -53.209  -3.424  0.00  0.00    +0.220 A 
ATOM      9  N   UNL     1      58.076 -54.289  -4.285  0.00  0.00    -0.283 N 
ATOM     36  H   UNL     1      58.769 -54.425  -5.021  0.00  0.00    +0.155 HD
ATOM     37  N   UNL     1      59.246 -52.380  -3.587  0.00  0.00    -0.214 NA
BRANCH   4   3
ATOM      1  C   UNL     1      62.057 -48.379  -2.739  0.00  0.00    +0.020 A 
ATOM      2  C   UNL     1      60.873 -49.149  -2.434  0.00  0.00    +0.013 A 
ATOM      3  C   UNL     1      60.653 -50.452  -3.049  0.00  0.00    +0.019 A 
ATOM     38  C   UNL     1      61.658 -50.952  -3.975  0.00  0.00    +0.120 A 
ATOM     39  N   UNL     1      62.787 -50.187  -4.251  0.00  0.00    -0.263 NA
ATOM     40  C   UNL     1      63.009 -48.932  -3.666  0.00  0.00    +0.111 A 
ENDBRANCH   4   3
ENDBRANCH  10   9
BRANCH  12  13
ATOM     13  N   UNL     1      53.419 -55.621  -5.422  0.00  0.00    -0.281 N 
ATOM     14  C   UNL     1      52.259 -55.060  -4.913  0.00  0.00    +0.248 C 
ATOM     30  O   UNL     1      52.056 -54.850  -3.726  0.00  0.00    -0.270 OA
ATOM     31  H   UNL     1      53.382 -55.919  -6.397  0.00  0.00    +0.155 HD
BRANCH  14  15
ATOM     15  C   UNL     1      51.160 -54.692  -5.857  0.00  0.00    +0.037 A 
ATOM     16  C   UNL     1      51.005 -55.373  -7.144  0.00  0.00    +0.013 A 
ATOM     17  C   UNL     1      49.947 -54.987  -8.044  0.00  0.00    +0.005 A 
ATOM     18  C   UNL     1      49.034 -53.914  -7.657  0.00  0.00    -0.033 A 
ATOM     28  C   UNL     1      49.208 -53.258  -6.371  0.00  0.00    +0.005 A 
ATOM     29  C   UNL     1      50.245 -53.633  -5.487  0.00  0.00    +0.013 A 
BRANCH  18  19
ATOM     19  C   UNL     1      47.889 -53.422  -8.562  0.00  0.00    +0.119 C 
BRANCH  19  20
ATOM     20  N   UNL     1      47.211 -52.148  -8.177  0.00  0.00    -0.302 NA
ATOM     21  C   UNL     1      45.733 -52.364  -7.841  0.00  0.00    +0.066 C 
ATOM     22  C   UNL     1      45.044 -51.025  -7.418  0.00  0.00    -0.064 C 
ATOM     23  N   UNL     1      45.201 -49.997  -8.540  0.00  0.00    +0.379 N 
ATOM     24  C   UNL     1      44.505 -48.757  -8.169  0.00  0.00    -0.096 C 
ATOM     25  H   UNL     1      44.700 -50.408  -9.447  0.00  0.00    -0.082 HD
ATOM     26  C   UNL     1      46.668 -49.779  -8.882  0.00  0.00    -0.064 C 
ATOM     27  C   UNL     1      47.350 -51.120  -9.272  0.00  0.00    +0.066 C 
ENDBRANCH  19  20
ENDBRANCH  18  19
ENDBRANCH  14  15
ENDBRANCH  12  13
TORSDOF 6
ENDMDL
