MODEL 1
REMARK VINA RESULT:      -8.6      0.000      0.000
REMARK  Name = C:\Users\Docking\Desktop\test protocol\1iep_ligandH.pdb
REMARK  8 active torsions:
REMARK  status: ('A' for Active; 'I' for Inactive)
REMARK    1  A    between atoms: _5  and  _11
REMARK    2  A    between atoms: _19  and  _21
REMARK    3  A    between atoms: _22  and  _66
REMARK    4  A    between atoms: _27  and  _30
REMARK    5  A    between atoms: _32  and  _33
REMARK    6  A    between atoms: _38  and  _43
REMARK    7  A    between atoms: _43  and  _46
REMARK    8  A    between atoms: _53  and  _55
REMARK                            x       y       z     vdW  Elec       q    Type
REMARK                         _______ _______ _______ _____ _____    ______ ____
ROOT
ATOM     10  C   UNL     1      28.127  10.158  15.341  0.00  0.00    +0.038 A 
ATOM     11  C   UNL     1      27.454  10.735  16.448  0.00  0.00    +0.047 A 
ATOM     12  C   UNL     1      28.106  11.724  17.293  0.00  0.00    +0.035 A 
ATOM     32  C   UNL     1      29.443  12.104  16.979  0.00  0.00    +0.024 A 
ATOM     33  C   UNL     1      30.143  11.526  15.858  0.00  0.00    +0.007 A 
ATOM     34  C   UNL     1      29.506  10.548  15.023  0.00  0.00    -0.029 A 
ATOM     35  C   UNL     1      30.306   9.957  13.839  0.00  0.00    +0.045 C 
ENDROOT
BRANCH  10   9
ATOM      4  C   UNL     1      25.119   8.960  11.798  0.00  0.00    +0.077 A 
ATOM      5  C   UNL     1      24.845  10.334  11.486  0.00  0.00    +0.048 A 
ATOM      6  C   UNL     1      25.494  11.317  12.266  0.00  0.00    +0.116 A 
ATOM      7  N   UNL     1      26.350  10.944  13.279  0.00  0.00    -0.223 NA
ATOM      8  C   UNL     1      26.590   9.611  13.555  0.00  0.00    +0.220 A 
ATOM      9  N   UNL     1      27.453   9.213  14.564  0.00  0.00    -0.283 N 
ATOM     36  H   UNL     1      27.598   8.219  14.741  0.00  0.00    +0.155 HD
ATOM     37  N   UNL     1      25.982   8.652  12.826  0.00  0.00    -0.214 NA
BRANCH   4   3
ATOM      1  C   UNL     1      24.666   5.603   9.842  0.00  0.00    +0.020 A 
ATOM      2  C   UNL     1      25.301   6.694  10.546  0.00  0.00    +0.013 A 
ATOM      3  C   UNL     1      24.513   7.806  11.062  0.00  0.00    +0.019 A 
ATOM     38  C   UNL     1      23.073   7.783  10.849  0.00  0.00    +0.120 A 
ATOM     39  N   UNL     1      22.490   6.720  10.167  0.00  0.00    -0.263 NA
ATOM     40  C   UNL     1      23.239   5.645   9.664  0.00  0.00    +0.111 A 
ENDBRANCH   4   3
ENDBRANCH  10   9
BRANCH  12  13
ATOM     13  N   UNL     1      27.476  12.339  18.434  0.00  0.00    -0.281 N 
ATOM     14  C   UNL     1      26.247  12.976  18.488  0.00  0.00    +0.248 C 
ATOM     30  O   UNL     1      25.594  13.303  17.508  0.00  0.00    -0.270 OA
ATOM     31  H   UNL     1      27.999  12.300  19.309  0.00  0.00    +0.155 HD
BRANCH  14  15
ATOM     15  C   UNL     1      25.666  13.312  19.824  0.00  0.00    +0.037 A 
ATOM     16  C   UNL     1      24.489  14.177  19.945  0.00  0.00    +0.013 A 
ATOM     17  C   UNL     1      23.959  14.499  21.246  0.00  0.00    +0.005 A 
ATOM     18  C   UNL     1      24.605  13.953  22.438  0.00  0.00    -0.033 A 
ATOM     28  C   UNL     1      25.768  13.093  22.288  0.00  0.00    +0.005 A 
ATOM     29  C   UNL     1      26.291  12.777  21.015  0.00  0.00    +0.013 A 
BRANCH  18  19
ATOM     19  C   UNL     1      24.121  14.261  23.867  0.00  0.00    +0.119 C 
BRANCH  19  20
ATOM     20  N   UNL     1      24.807  15.367  24.599  0.00  0.00    -0.302 NA
ATOM     21  C   UNL     1      25.910  16.015  23.757  0.00  0.00    +0.066 C 
ATOM     22  C   UNL     1      26.603  17.184  24.529  0.00  0.00    -0.064 C 
ATOM     23  N   UNL     1      27.169  16.656  25.848  0.00  0.00    +0.379 N 
ATOM     24  C   UNL     1      27.871  17.740  26.550  0.00  0.00    -0.096 C 
ATOM     25  H   UNL     1      27.920  15.869  25.603  0.00  0.00    -0.082 HD
ATOM     26  C   UNL     1      26.080  16.007  26.691  0.00  0.00    -0.064 C 
ATOM     27  C   UNL     1      25.378  14.866  25.903  0.00  0.00    +0.066 C 
ENDBRANCH  19  20
ENDBRANCH  18  19
ENDBRANCH  14  15
ENDBRANCH  12  13
TORSDOF 6
ENDMDL
MODEL 2
REMARK VINA RESULT:      -8.0     16.472     19.239
REMARK  Name = C:\Users\Docking\Desktop\test protocol\1iep_ligandH.pdb
REMARK  8 active torsions:
REMARK  status: ('A' for Active; 'I' for Inactive)
REMARK    1  A    between atoms: _5  and  _11
REMARK    2  A    between atoms: _19  and  _21
REMARK    3  A    between atoms: _22  and  _66
REMARK    4  A    between atoms: _27  and  _30
REMARK    5  A    between atoms: _32  and  _33
REMARK    6  A    between atoms: _38  and  _43
REMARK    7  A    between atoms: _43  and  _46
REMARK    8  A    between atoms: _53  and  _55
REMARK                            x       y       z     vdW  Elec       q    Type
REMARK                         _______ _______ _______ _____ _____    ______ ____
ROOT
ATOM     10  C   UNL     1       8.421   1.328  17.047  0.00  0.00    +0.038 A 
ATOM     11  C   UNL     1       9.671   1.293  17.717  0.00  0.00    +0.047 A 
ATOM     12  C   UNL     1      10.106   2.400  18.555  0.00  0.00    +0.035 A 
ATOM     32  C   UNL     1       9.243   3.526  18.690  0.00  0.00    +0.024 A 
ATOM     33  C   UNL     1       7.970   3.578  18.015  0.00  0.00    +0.007 A 
ATOM     34  C   UNL     1       7.536   2.490  17.185  0.00  0.00    -0.029 A 
ATOM     35  C   UNL     1       6.164   2.604  16.480  0.00  0.00    +0.045 C 
ENDROOT
BRANCH  10   9
ATOM      4  C   UNL     1       6.208  -2.883  16.407  0.00  0.00    +0.077 A 
ATOM      5  C   UNL     1       5.770  -2.927  17.773  0.00  0.00    +0.048 A 
ATOM      6  C   UNL     1       6.142  -1.851  18.609  0.00  0.00    +0.116 A 
ATOM      7  N   UNL     1       6.895  -0.812  18.106  0.00  0.00    -0.223 NA
ATOM      8  C   UNL     1       7.302  -0.800  16.784  0.00  0.00    +0.220 A 
ATOM      9  N   UNL     1       8.053   0.238  16.255  0.00  0.00    -0.283 N 
ATOM     36  H   UNL     1       8.340   0.205  15.277  0.00  0.00    +0.155 HD
ATOM     37  N   UNL     1       6.961  -1.818  15.966  0.00  0.00    -0.214 NA
BRANCH   4   3
ATOM      1  C   UNL     1       5.560  -4.753  13.033  0.00  0.00    +0.020 A 
ATOM      2  C   UNL     1       5.870  -3.693  13.964  0.00  0.00    +0.013 A 
ATOM      3  C   UNL     1       5.892  -3.944  15.400  0.00  0.00    +0.019 A 
ATOM     38  C   UNL     1       5.594  -5.291  15.864  0.00  0.00    +0.120 A 
ATOM     39  N   UNL     1       5.298  -6.292  14.945  0.00  0.00    -0.263 NA
ATOM     40  C   UNL     1       5.272  -6.061  13.561  0.00  0.00    +0.111 A 
ENDBRANCH   4   3
ENDBRANCH  10   9
BRANCH  12  13
ATOM     13  N   UNL     1      11.368   2.424  19.253  0.00  0.00    -0.281 N 
ATOM     14  C   UNL     1      12.642   2.405  18.711  0.00  0.00    +0.248 C 
ATOM     30  O   UNL     1      12.892   2.147  17.543  0.00  0.00    -0.270 OA
ATOM     31  H   UNL     1      11.314   2.460  20.271  0.00  0.00    +0.155 HD
BRANCH  14  15
ATOM     15  C   UNL     1      13.809   2.701  19.597  0.00  0.00    +0.037 A 
ATOM     16  C   UNL     1      15.056   1.940  19.490  0.00  0.00    +0.013 A 
ATOM     17  C   UNL     1      16.161   2.235  20.369  0.00  0.00    +0.005 A 
ATOM     18  C   UNL     1      16.022   3.297  21.362  0.00  0.00    -0.033 A 
ATOM     28  C   UNL     1      14.774   4.039  21.443  0.00  0.00    +0.005 A 
ATOM     29  C   UNL     1      13.690   3.753  20.584  0.00  0.00    +0.013 A 
BRANCH  18  19
ATOM     19  C   UNL     1      17.140   3.666  22.354  0.00  0.00    +0.119 C 
BRANCH  19  20
ATOM     20  N   UNL     1      17.748   5.024  22.226  0.00  0.00    -0.302 NA
ATOM     21  C   UNL     1      19.271   4.989  22.384  0.00  0.00    +0.066 C 
ATOM     22  C   UNL     1      19.893   6.415  22.225  0.00  0.00    -0.064 C 
ATOM     23  N   UNL     1      19.263   7.360  23.250  0.00  0.00    +0.379 N 
ATOM     24  C   UNL     1      19.887   8.687  23.141  0.00  0.00    -0.096 C 
ATOM     25  H   UNL     1      19.493   6.960  24.264  0.00  0.00    -0.082 HD
ATOM     26  C   UNL     1      17.749   7.399  23.101  0.00  0.00    -0.064 C 
ATOM     27  C   UNL     1      17.144   5.973  23.232  0.00  0.00    +0.066 C 
ENDBRANCH  19  20
ENDBRANCH  18  19
ENDBRANCH  14  15
ENDBRANCH  12  13
TORSDOF 6
ENDMDL
MODEL 3
REMARK VINA RESULT:      -7.9      3.516      4.672
REMARK  Name = C:\Users\Docking\Desktop\test protocol\1iep_ligandH.pdb
REMARK  8 active torsions:
REMARK  status: ('A' for Active; 'I' for Inactive)
REMARK    1  A    between atoms: _5  and  _11
REMARK    2  A    between atoms: _19  and  _21
REMARK    3  A    between atoms: _22  and  _66
REMARK    4  A    between atoms: _27  and  _30
REMARK    5  A    between atoms: _32  and  _33
REMARK    6  A    between atoms: _38  and  _43
REMARK    7  A    between atoms: _43  and  _46
REMARK    8  A    between atoms: _53  and  _55
REMARK                            x       y       z     vdW  Elec       q    Type
REMARK                         _______ _______ _______ _____ _____    ______ ____
ROOT
ATOM     10  C   UNL     1      26.229  12.393  17.106  0.00  0.00    +0.038 A 
ATOM     11  C   UNL     1      25.667  12.137  18.382  0.00  0.00    +0.047 A 
ATOM     12  C   UNL     1      26.194  12.776  19.578  0.00  0.00    +0.035 A 
ATOM     32  C   UNL     1      27.292  13.674  19.437  0.00  0.00    +0.024 A 
ATOM     33  C   UNL     1      27.876  13.945  18.147  0.00  0.00    +0.007 A 
ATOM     34  C   UNL     1      27.363  13.315  16.964  0.00  0.00    -0.029 A 
ATOM     35  C   UNL     1      28.032  13.638  15.608  0.00  0.00    +0.045 C 
ENDROOT
BRANCH  10   9
ATOM      4  C   UNL     1      26.299   8.982  13.730  0.00  0.00    +0.077 A 
ATOM      5  C   UNL     1      27.541   8.448  14.212  0.00  0.00    +0.048 A 
ATOM      6  C   UNL     1      28.132   9.084  15.326  0.00  0.00    +0.116 A 
ATOM      7  N   UNL     1      27.519  10.173  15.908  0.00  0.00    -0.223 NA
ATOM      8  C   UNL     1      26.323  10.664  15.417  0.00  0.00    +0.220 A 
ATOM      9  N   UNL     1      25.684  11.752  15.991  0.00  0.00    -0.283 N 
ATOM     36  H   UNL     1      24.807  12.089  15.595  0.00  0.00    +0.155 HD
ATOM     37  N   UNL     1      25.739  10.074  14.353  0.00  0.00    -0.214 NA
BRANCH   4   3
ATOM      1  C   UNL     1      25.142   6.645  10.815  0.00  0.00    +0.020 A 
ATOM      2  C   UNL     1      25.898   7.147  11.939  0.00  0.00    +0.013 A 
ATOM      3  C   UNL     1      25.550   8.417  12.564  0.00  0.00    +0.019 A 
ATOM     38  C   UNL     1      24.422   9.160  12.024  0.00  0.00    +0.120 A 
ATOM     39  N   UNL     1      23.713   8.653  10.939  0.00  0.00    -0.263 NA
ATOM     40  C   UNL     1      24.039   7.433  10.328  0.00  0.00    +0.111 A 
ENDBRANCH   4   3
ENDBRANCH  10   9
BRANCH  12  13
ATOM     13  N   UNL     1      25.670  12.548  20.902  0.00  0.00    -0.281 N 
ATOM     14  C   UNL     1      24.682  13.262  21.561  0.00  0.00    +0.248 C 
ATOM     30  O   UNL     1      24.247  14.342  21.192  0.00  0.00    -0.270 OA
ATOM     31  H   UNL     1      26.076  11.766  21.416  0.00  0.00    +0.155 HD
BRANCH  14  15
ATOM     15  C   UNL     1      24.105  12.701  22.821  0.00  0.00    +0.037 A 
ATOM     16  C   UNL     1      23.849  13.553  23.985  0.00  0.00    +0.013 A 
ATOM     17  C   UNL     1      23.308  12.983  25.193  0.00  0.00    +0.005 A 
ATOM     18  C   UNL     1      23.016  11.552  25.242  0.00  0.00    -0.033 A 
ATOM     28  C   UNL     1      23.274  10.731  24.071  0.00  0.00    +0.005 A 
ATOM     29  C   UNL     1      23.806  11.286  22.885  0.00  0.00    +0.013 A 
BRANCH  18  19
ATOM     19  C   UNL     1      22.457  10.855  26.497  0.00  0.00    +0.119 C 
BRANCH  19  20
ATOM     20  N   UNL     1      23.433  10.476  27.561  0.00  0.00    -0.302 NA
ATOM     21  C   UNL     1      23.501   8.960  27.765  0.00  0.00    +0.066 C 
ATOM     22  C   UNL     1      24.543   8.580  28.866  0.00  0.00    -0.064 C 
ATOM     23  N   UNL     1      24.181   9.287  30.174  0.00  0.00    +0.379 N 
ATOM     24  C   UNL     1      25.125   8.886  31.226  0.00  0.00    -0.096 C 
ATOM     25  H   UNL     1      23.167   8.936  30.477  0.00  0.00    -0.082 HD
ATOM     26  C   UNL     1      24.108  10.795  29.979  0.00  0.00    -0.064 C 
ATOM     27  C   UNL     1      23.091  11.160  28.862  0.00  0.00    +0.066 C 
ENDBRANCH  19  20
ENDBRANCH  18  19
ENDBRANCH  14  15
ENDBRANCH  12  13
TORSDOF 6
ENDMDL
MODEL 4
REMARK VINA RESULT:      -7.8     11.004     14.982
REMARK  Name = C:\Users\Docking\Desktop\test protocol\1iep_ligandH.pdb
REMARK  8 active torsions:
REMARK  status: ('A' for Active; 'I' for Inactive)
REMARK    1  A    between atoms: _5  and  _11
REMARK    2  A    between atoms: _19  and  _21
REMARK    3  A    between atoms: _22  and  _66
REMARK    4  A    between atoms: _27  and  _30
REMARK    5  A    between atoms: _32  and  _33
REMARK    6  A    between atoms: _38  and  _43
REMARK    7  A    between atoms: _43  and  _46
REMARK    8  A    between atoms: _53  and  _55
REMARK                            x       y       z     vdW  Elec       q    Type
REMARK                         _______ _______ _______ _____ _____    ______ ____
ROOT
ATOM     10  C   UNL     1      22.161   4.445  22.896  0.00  0.00    +0.038 A 
ATOM     11  C   UNL     1      20.856   4.452  22.340  0.00  0.00    +0.047 A 
ATOM     12  C   UNL     1      19.763   3.734  22.976  0.00  0.00    +0.035 A 
ATOM     32  C   UNL     1      20.034   3.022  24.181  0.00  0.00    +0.024 A 
ATOM     33  C   UNL     1      21.354   3.004  24.760  0.00  0.00    +0.007 A 
ATOM     34  C   UNL     1      22.437   3.708  24.135  0.00  0.00    -0.029 A 
ATOM     35  C   UNL     1      23.834   3.648  24.796  0.00  0.00    +0.045 C 
ENDROOT
BRANCH  10   9
ATOM      4  C   UNL     1      24.787   8.401  22.194  0.00  0.00    +0.077 A 
ATOM      5  C   UNL     1      24.063   9.131  23.195  0.00  0.00    +0.048 A 
ATOM      6  C   UNL     1      23.018   8.454  23.862  0.00  0.00    +0.116 A 
ATOM      7  N   UNL     1      22.727   7.145  23.544  0.00  0.00    -0.223 NA
ATOM      8  C   UNL     1      23.444   6.471  22.573  0.00  0.00    +0.220 A 
ATOM      9  N   UNL     1      23.173   5.152  22.243  0.00  0.00    -0.283 N 
ATOM     36  H   UNL     1      23.720   4.692  21.515  0.00  0.00    +0.155 HD
ATOM     37  N   UNL     1      24.446   7.096  21.920  0.00  0.00    -0.214 NA
BRANCH   4   3
ATOM      1  C   UNL     1      27.841   8.783  19.780  0.00  0.00    +0.020 A 
ATOM      2  C   UNL     1      26.759   8.177  20.521  0.00  0.00    +0.013 A 
ATOM      3  C   UNL     1      25.921   8.978  21.404  0.00  0.00    +0.019 A 
ATOM     38  C   UNL     1      26.205  10.401  21.515  0.00  0.00    +0.120 A 
ATOM     39  N   UNL     1      27.255  10.957  20.791  0.00  0.00    -0.263 NA
ATOM     40  C   UNL     1      28.070  10.196  19.939  0.00  0.00    +0.111 A 
ENDBRANCH   4   3
ENDBRANCH  10   9
BRANCH  12  13
ATOM     13  N   UNL     1      18.420   3.698  22.454  0.00  0.00    -0.281 N 
ATOM     14  C   UNL     1      18.014   3.371  21.170  0.00  0.00    +0.248 C 
ATOM     30  O   UNL     1      18.767   3.266  20.213  0.00  0.00    -0.270 OA
ATOM     31  H   UNL     1      17.678   3.944  23.110  0.00  0.00    +0.155 HD
BRANCH  14  15
ATOM     15  C   UNL     1      16.560   3.142  20.909  0.00  0.00    +0.037 A 
ATOM     16  C   UNL     1      16.077   1.867  20.372  0.00  0.00    +0.013 A 
ATOM     17  C   UNL     1      14.671   1.679  20.113  0.00  0.00    +0.005 A 
ATOM     18  C   UNL     1      13.739   2.768  20.393  0.00  0.00    -0.033 A 
ATOM     28  C   UNL     1      14.245   4.020  20.931  0.00  0.00    +0.005 A 
ATOM     29  C   UNL     1      15.622   4.209  21.185  0.00  0.00    +0.013 A 
BRANCH  18  19
ATOM     19  C   UNL     1      12.225   2.662  20.128  0.00  0.00    +0.119 C 
BRANCH  19  20
ATOM     20  N   UNL     1      11.708   3.268  18.865  0.00  0.00    -0.302 NA
ATOM     21  C   UNL     1      10.179   3.352  18.851  0.00  0.00    +0.066 C 
ATOM     22  C   UNL     1       9.657   4.009  17.532  0.00  0.00    -0.064 C 
ATOM     23  N   UNL     1      10.166   3.210  16.332  0.00  0.00    +0.379 N 
ATOM     24  C   UNL     1       9.629   3.791  15.092  0.00  0.00    -0.096 C 
ATOM     25  H   UNL     1       9.765   2.173  16.421  0.00  0.00    -0.082 HD
ATOM     26  C   UNL     1      11.686   3.119  16.339  0.00  0.00    -0.064 C 
ATOM     27  C   UNL     1      12.196   2.492  17.666  0.00  0.00    +0.066 C 
ENDBRANCH  19  20
ENDBRANCH  18  19
ENDBRANCH  14  15
ENDBRANCH  12  13
TORSDOF 6
ENDMDL
MODEL 5
REMARK VINA RESULT:      -7.7     26.932     29.912
REMARK  Name = C:\Users\Docking\Desktop\test protocol\1iep_ligandH.pdb
REMARK  8 active torsions:
REMARK  status: ('A' for Active; 'I' for Inactive)
REMARK    1  A    between atoms: _5  and  _11
REMARK    2  A    between atoms: _19  and  _21
REMARK    3  A    between atoms: _22  and  _66
REMARK    4  A    between atoms: _27  and  _30
REMARK    5  A    between atoms: _32  and  _33
REMARK    6  A    between atoms: _38  and  _43
REMARK    7  A    between atoms: _43  and  _46
REMARK    8  A    between atoms: _53  and  _55
REMARK                            x       y       z     vdW  Elec       q    Type
REMARK                         _______ _______ _______ _____ _____    ______ ____
ROOT
ATOM     10  C   UNL     1      38.523 -15.986  17.260  0.00  0.00    +0.038 A 
ATOM     11  C   UNL     1      39.426 -15.076  17.867  0.00  0.00    +0.047 A 
ATOM     12  C   UNL     1      39.649 -15.082  19.304  0.00  0.00    +0.035 A 
ATOM     32  C   UNL     1      38.936 -16.031  20.094  0.00  0.00    +0.024 A 
ATOM     33  C   UNL     1      38.014 -16.962  19.494  0.00  0.00    +0.007 A 
ATOM     34  C   UNL     1      37.788 -16.959  18.077  0.00  0.00    -0.029 A 
ATOM     35  C   UNL     1      36.783 -17.976  17.489  0.00  0.00    +0.045 C 
ENDROOT
BRANCH  10   9
ATOM      4  C   UNL     1      39.592 -17.412  12.804  0.00  0.00    +0.077 A 
ATOM      5  C   UNL     1      40.605 -18.314  13.272  0.00  0.00    +0.048 A 
ATOM      6  C   UNL     1      40.824 -18.376  14.666  0.00  0.00    +0.116 A 
ATOM      7  N   UNL     1      40.080 -17.590  15.520  0.00  0.00    -0.223 NA
ATOM      8  C   UNL     1      39.113 -16.729  15.035  0.00  0.00    +0.220 A 
ATOM      9  N   UNL     1      38.348 -15.935  15.875  0.00  0.00    -0.283 N 
ATOM     36  H   UNL     1      37.649 -15.308  15.478  0.00  0.00    +0.155 HD
ATOM     37  N   UNL     1      38.885 -16.651  13.707  0.00  0.00    -0.214 NA
BRANCH   4   3
ATOM      1  C   UNL     1      38.841 -15.818   9.312  0.00  0.00    +0.020 A 
ATOM      2  C   UNL     1      39.184 -15.933  10.710  0.00  0.00    +0.013 A 
ATOM      3  C   UNL     1      39.241 -17.237  11.359  0.00  0.00    +0.019 A 
ATOM     38  C   UNL     1      38.944 -18.414  10.558  0.00  0.00    +0.120 A 
ATOM     39  N   UNL     1      38.614 -18.273   9.213  0.00  0.00    -0.263 NA
ATOM     40  C   UNL     1      38.555 -17.023   8.579  0.00  0.00    +0.111 A 
ENDBRANCH   4   3
ENDBRANCH  10   9
BRANCH  12  13
ATOM     13  N   UNL     1      40.547 -14.177  19.977  0.00  0.00    -0.281 N 
ATOM     14  C   UNL     1      41.912 -14.318  20.170  0.00  0.00    +0.248 C 
ATOM     30  O   UNL     1      42.533 -15.353  19.979  0.00  0.00    -0.270 OA
ATOM     31  H   UNL     1      40.126 -13.329  20.357  0.00  0.00    +0.155 HD
BRANCH  14  15
ATOM     15  C   UNL     1      42.697 -13.145  20.661  0.00  0.00    +0.037 A 
ATOM     16  C   UNL     1      43.798 -12.585  19.874  0.00  0.00    +0.013 A 
ATOM     17  C   UNL     1      44.550 -11.463  20.378  0.00  0.00    +0.005 A 
ATOM     18  C   UNL     1      44.202 -10.894  21.678  0.00  0.00    -0.033 A 
ATOM     28  C   UNL     1      43.101 -11.466  22.435  0.00  0.00    +0.005 A 
ATOM     29  C   UNL     1      42.362 -12.566  21.945  0.00  0.00    +0.013 A 
BRANCH  18  19
ATOM     19  C   UNL     1      44.964  -9.710  22.303  0.00  0.00    +0.119 C 
BRANCH  19  20
ATOM     20  N   UNL     1      44.148  -8.607  22.892  0.00  0.00    -0.302 NA
ATOM     21  C   UNL     1      43.592  -7.667  21.819  0.00  0.00    +0.066 C 
ATOM     22  C   UNL     1      42.722  -6.532  22.451  0.00  0.00    -0.064 C 
ATOM     23  N   UNL     1      43.562  -5.756  23.467  0.00  0.00    +0.379 N 
ATOM     24  C   UNL     1      42.766  -4.651  24.020  0.00  0.00    -0.096 C 
ATOM     25  H   UNL     1      44.426  -5.310  22.921  0.00  0.00    -0.082 HD
ATOM     26  C   UNL     1      44.122  -6.683  24.537  0.00  0.00    -0.064 C 
ATOM     27  C   UNL     1      44.960  -7.825  23.896  0.00  0.00    +0.066 C 
ENDBRANCH  19  20
ENDBRANCH  18  19
ENDBRANCH  14  15
ENDBRANCH  12  13
TORSDOF 6
ENDMDL
