MODEL 1
REMARK VINA RESULT:      -9.2      0.000      0.000
REMARK  Name = C:\Users\Docking\Desktop\test protocol\1iep_ligandH.pdb
REMARK  8 active torsions:
REMARK  status: ('A' for Active; 'I' for Inactive)
REMARK    1  A    between atoms: _5  and  _11
REMARK    2  A    between atoms: _19  and  _21
REMARK    3  A    between atoms: _22  and  _66
REMARK    4  A    between atoms: _27  and  _30
REMARK    5  A    between atoms: _32  and  _33
REMARK    6  A    between atoms: _38  and  _43
REMARK    7  A    between atoms: _43  and  _46
REMARK    8  A    between atoms: _53  and  _55
REMARK                            x       y       z     vdW  Elec       q    Type
REMARK                         _______ _______ _______ _____ _____    ______ ____
ROOT
ATOM     10  C   UNL     1      16.802  52.085  47.715  0.00  0.00    +0.038 A 
ATOM     11  C   UNL     1      18.010  52.828  47.763  0.00  0.00    +0.047 A 
ATOM     12  C   UNL     1      19.211  52.354  47.094  0.00  0.00    +0.035 A 
ATOM     32  C   UNL     1      19.147  51.121  46.382  0.00  0.00    +0.024 A 
ATOM     33  C   UNL     1      17.928  50.353  46.323  0.00  0.00    +0.007 A 
ATOM     34  C   UNL     1      16.740  50.814  46.984  0.00  0.00    -0.029 A 
ATOM     35  C   UNL     1      15.463  49.947  46.893  0.00  0.00    +0.045 C 
ENDROOT
BRANCH  10   9
ATOM      4  C   UNL     1      12.857  54.814  47.881  0.00  0.00    +0.077 A 
ATOM      5  C   UNL     1      13.067  55.303  46.549  0.00  0.00    +0.048 A 
ATOM      6  C   UNL     1      14.206  54.833  45.858  0.00  0.00    +0.116 A 
ATOM      7  N   UNL     1      15.064  53.940  46.463  0.00  0.00    -0.223 NA
ATOM      8  C   UNL     1      14.833  53.490  47.750  0.00  0.00    +0.220 A 
ATOM      9  N   UNL     1      15.678  52.587  48.376  0.00  0.00    -0.283 N 
ATOM     36  H   UNL     1      15.477  52.285  49.329  0.00  0.00    +0.155 HD
ATOM     37  N   UNL     1      13.753  53.925  48.432  0.00  0.00    -0.214 NA
BRANCH   4   3
ATOM      1  C   UNL     1       9.244  55.668  49.113  0.00  0.00    +0.020 A 
ATOM      2  C   UNL     1      10.328  55.275  48.243  0.00  0.00    +0.013 A 
ATOM      3  C   UNL     1      11.697  55.215  48.739  0.00  0.00    +0.019 A 
ATOM     38  C   UNL     1      11.937  55.562  50.132  0.00  0.00    +0.120 A 
ATOM     39  N   UNL     1      10.873  55.939  50.946  0.00  0.00    -0.263 NA
ATOM     40  C   UNL     1       9.552  56.001  50.479  0.00  0.00    +0.111 A 
ENDBRANCH   4   3
ENDBRANCH  10   9
BRANCH  12  13
ATOM     13  N   UNL     1      20.468  53.061  47.115  0.00  0.00    -0.281 N 
ATOM     14  C   UNL     1      21.008  53.869  46.128  0.00  0.00    +0.248 C 
ATOM     30  O   UNL     1      20.586  53.936  44.983  0.00  0.00    -0.270 OA
ATOM     31  H   UNL     1      21.028  52.952  47.961  0.00  0.00    +0.155 HD
BRANCH  14  15
ATOM     15  C   UNL     1      22.196  54.714  46.456  0.00  0.00    +0.037 A 
ATOM     16  C   UNL     1      22.142  55.722  47.517  0.00  0.00    +0.013 A 
ATOM     17  C   UNL     1      23.297  56.536  47.802  0.00  0.00    +0.005 A 
ATOM     18  C   UNL     1      24.518  56.343  47.023  0.00  0.00    -0.033 A 
ATOM     28  C   UNL     1      24.546  55.332  45.979  0.00  0.00    +0.005 A 
ATOM     29  C   UNL     1      23.415  54.534  45.696  0.00  0.00    +0.013 A 
BRANCH  18  19
ATOM     19  C   UNL     1      25.792  57.181  47.243  0.00  0.00    +0.119 C 
BRANCH  19  20
ATOM     20  N   UNL     1      26.723  56.737  48.323  0.00  0.00    -0.302 NA
ATOM     21  C   UNL     1      27.404  55.408  47.984  0.00  0.00    +0.066 C 
ATOM     22  C   UNL     1      28.392  54.971  49.114  0.00  0.00    -0.064 C 
ATOM     23  N   UNL     1      27.634  54.869  50.439  0.00  0.00    +0.379 N 
ATOM     24  C   UNL     1      28.548  54.402  51.492  0.00  0.00    -0.096 C 
ATOM     25  H   UNL     1      26.839  54.098  50.315  0.00  0.00    -0.082 HD
ATOM     26  C   UNL     1      26.952  56.186  50.782  0.00  0.00    -0.064 C 
ATOM     27  C   UNL     1      25.994  56.626  49.640  0.00  0.00    +0.066 C 
ENDBRANCH  19  20
ENDBRANCH  18  19
ENDBRANCH  14  15
ENDBRANCH  12  13
TORSDOF 6
ENDMDL
MODEL 2
REMARK VINA RESULT:      -9.0      8.041     11.424
REMARK  Name = C:\Users\Docking\Desktop\test protocol\1iep_ligandH.pdb
REMARK  8 active torsions:
REMARK  status: ('A' for Active; 'I' for Inactive)
REMARK    1  A    between atoms: _5  and  _11
REMARK    2  A    between atoms: _19  and  _21
REMARK    3  A    between atoms: _22  and  _66
REMARK    4  A    between atoms: _27  and  _30
REMARK    5  A    between atoms: _32  and  _33
REMARK    6  A    between atoms: _38  and  _43
REMARK    7  A    between atoms: _43  and  _46
REMARK    8  A    between atoms: _53  and  _55
REMARK                            x       y       z     vdW  Elec       q    Type
REMARK                         _______ _______ _______ _____ _____    ______ ____
ROOT
ATOM     10  C   UNL     1      25.809  56.661  45.709  0.00  0.00    +0.038 A 
ATOM     11  C   UNL     1      26.649  56.424  46.827  0.00  0.00    +0.047 A 
ATOM     12  C   UNL     1      26.521  57.211  48.044  0.00  0.00    +0.035 A 
ATOM     32  C   UNL     1      25.525  58.229  48.089  0.00  0.00    +0.024 A 
ATOM     33  C   UNL     1      24.664  58.484  46.962  0.00  0.00    +0.007 A 
ATOM     34  C   UNL     1      24.787  57.713  45.757  0.00  0.00    -0.029 A 
ATOM     35  C   UNL     1      23.840  58.035  44.577  0.00  0.00    +0.045 C 
ENDROOT
BRANCH  10   9
ATOM      4  C   UNL     1      24.744  52.840  43.007  0.00  0.00    +0.077 A 
ATOM      5  C   UNL     1      23.796  52.352  43.967  0.00  0.00    +0.048 A 
ATOM      6  C   UNL     1      23.617  53.110  45.146  0.00  0.00    +0.116 A 
ATOM      7  N   UNL     1      24.338  54.268  45.340  0.00  0.00    -0.223 NA
ATOM      8  C   UNL     1      25.246  54.710  44.395  0.00  0.00    +0.220 A 
ATOM      9  N   UNL     1      25.975  55.876  44.566  0.00  0.00    -0.283 N 
ATOM     36  H   UNL     1      26.641  56.164  43.849  0.00  0.00    +0.155 HD
ATOM     37  N   UNL     1      25.436  54.003  43.262  0.00  0.00    -0.214 NA
BRANCH   4   3
ATOM      1  C   UNL     1      24.578  51.665  39.280  0.00  0.00    +0.020 A 
ATOM      2  C   UNL     1      24.247  52.354  40.506  0.00  0.00    +0.013 A 
ATOM      3  C   UNL     1      25.042  52.152  41.711  0.00  0.00    +0.019 A 
ATOM     38  C   UNL     1      26.175  51.241  41.641  0.00  0.00    +0.120 A 
ATOM     39  N   UNL     1      26.468  50.591  40.446  0.00  0.00    -0.263 NA
ATOM     40  C   UNL     1      25.709  50.776  39.281  0.00  0.00    +0.111 A 
ENDBRANCH   4   3
ENDBRANCH  10   9
BRANCH  12  13
ATOM     13  N   UNL     1      27.351  57.021  49.208  0.00  0.00    -0.281 N 
ATOM     14  C   UNL     1      28.262  56.006  49.448  0.00  0.00    +0.248 C 
ATOM     30  O   UNL     1      28.347  54.982  48.786  0.00  0.00    -0.270 OA
ATOM     31  H   UNL     1      27.255  57.720  49.945  0.00  0.00    +0.155 HD
BRANCH  14  15
ATOM     15  C   UNL     1      29.206  56.140  50.600  0.00  0.00    +0.037 A 
ATOM     16  C   UNL     1      29.047  55.330  51.811  0.00  0.00    +0.013 A 
ATOM     17  C   UNL     1      29.961  55.492  52.913  0.00  0.00    +0.005 A 
ATOM     18  C   UNL     1      31.045  56.466  52.809  0.00  0.00    -0.033 A 
ATOM     28  C   UNL     1      31.182  57.252  51.594  0.00  0.00    +0.005 A 
ATOM     29  C   UNL     1      30.287  57.098  50.511  0.00  0.00    +0.013 A 
BRANCH  18  19
ATOM     19  C   UNL     1      32.054  56.720  53.944  0.00  0.00    +0.119 C 
BRANCH  19  20
ATOM     20  N   UNL     1      31.504  57.143  55.266  0.00  0.00    -0.302 NA
ATOM     21  C   UNL     1      30.390  58.184  55.118  0.00  0.00    +0.066 C 
ATOM     22  C   UNL     1      29.810  58.599  56.510  0.00  0.00    -0.064 C 
ATOM     23  N   UNL     1      30.940  59.136  57.390  0.00  0.00    +0.379 N 
ATOM     24  C   UNL     1      30.389  59.581  58.678  0.00  0.00    -0.096 C 
ATOM     25  H   UNL     1      31.370  60.029  56.880  0.00  0.00    -0.082 HD
ATOM     26  C   UNL     1      32.053  58.109  57.540  0.00  0.00    -0.064 C 
ATOM     27  C   UNL     1      32.602  57.682  56.150  0.00  0.00    +0.066 C 
ENDBRANCH  19  20
ENDBRANCH  18  19
ENDBRANCH  14  15
ENDBRANCH  12  13
TORSDOF 6
ENDMDL
MODEL 3
REMARK VINA RESULT:      -9.0      6.568      9.100
REMARK  Name = C:\Users\Docking\Desktop\test protocol\1iep_ligandH.pdb
REMARK  8 active torsions:
REMARK  status: ('A' for Active; 'I' for Inactive)
REMARK    1  A    between atoms: _5  and  _11
REMARK    2  A    between atoms: _19  and  _21
REMARK    3  A    between atoms: _22  and  _66
REMARK    4  A    between atoms: _27  and  _30
REMARK    5  A    between atoms: _32  and  _33
REMARK    6  A    between atoms: _38  and  _43
REMARK    7  A    between atoms: _43  and  _46
REMARK    8  A    between atoms: _53  and  _55
REMARK                            x       y       z     vdW  Elec       q    Type
REMARK                         _______ _______ _______ _____ _____    ______ ____
ROOT
ATOM     10  C   UNL     1      23.157  53.501  45.867  0.00  0.00    +0.038 A 
ATOM     11  C   UNL     1      24.039  52.661  45.141  0.00  0.00    +0.047 A 
ATOM     12  C   UNL     1      25.250  53.189  44.531  0.00  0.00    +0.035 A 
ATOM     32  C   UNL     1      25.532  54.578  44.682  0.00  0.00    +0.024 A 
ATOM     33  C   UNL     1      24.645  55.446  45.416  0.00  0.00    +0.007 A 
ATOM     34  C   UNL     1      23.448  54.931  46.018  0.00  0.00    -0.029 A 
ATOM     35  C   UNL     1      22.531  55.910  46.787  0.00  0.00    +0.045 C 
ENDROOT
BRANCH  10   9
ATOM      4  C   UNL     1      18.528  52.244  45.679  0.00  0.00    +0.077 A 
ATOM      5  C   UNL     1      18.377  52.772  44.354  0.00  0.00    +0.048 A 
ATOM      6  C   UNL     1      19.513  53.366  43.759  0.00  0.00    +0.116 A 
ATOM      7  N   UNL     1      20.706  53.420  44.447  0.00  0.00    -0.223 NA
ATOM      8  C   UNL     1      20.817  52.903  45.724  0.00  0.00    +0.220 A 
ATOM      9  N   UNL     1      22.009  52.940  46.431  0.00  0.00    -0.283 N 
ATOM     36  H   UNL     1      22.048  52.554  47.374  0.00  0.00    +0.155 HD
ATOM     37  N   UNL     1      19.747  52.333  46.315  0.00  0.00    -0.214 NA
BRANCH   4   3
ATOM      1  C   UNL     1      16.052  49.570  47.100  0.00  0.00    +0.020 A 
ATOM      2  C   UNL     1      17.133  50.158  46.343  0.00  0.00    +0.013 A 
ATOM      3  C   UNL     1      17.421  51.584  46.440  0.00  0.00    +0.019 A 
ATOM     38  C   UNL     1      16.590  52.392  47.319  0.00  0.00    +0.120 A 
ATOM     39  N   UNL     1      15.555  51.798  48.035  0.00  0.00    -0.263 NA
ATOM     40  C   UNL     1      15.268  50.428  47.948  0.00  0.00    +0.111 A 
ENDBRANCH   4   3
ENDBRANCH  10   9
BRANCH  12  13
ATOM     13  N   UNL     1      26.179  52.386  43.776  0.00  0.00    -0.281 N 
ATOM     14  C   UNL     1      26.047  51.926  42.476  0.00  0.00    +0.248 C 
ATOM     30  O   UNL     1      25.007  51.956  41.835  0.00  0.00    -0.270 OA
ATOM     31  H   UNL     1      27.040  52.125  44.258  0.00  0.00    +0.155 HD
BRANCH  14  15
ATOM     15  C   UNL     1      27.237  51.333  41.795  0.00  0.00    +0.037 A 
ATOM     16  C   UNL     1      28.600  51.712  42.178  0.00  0.00    +0.013 A 
ATOM     17  C   UNL     1      29.730  51.138  41.493  0.00  0.00    +0.005 A 
ATOM     18  C   UNL     1      29.503  50.176  40.418  0.00  0.00    -0.033 A 
ATOM     28  C   UNL     1      28.142  49.813  40.061  0.00  0.00    +0.005 A 
ATOM     29  C   UNL     1      27.031  50.375  40.730  0.00  0.00    +0.013 A 
BRANCH  18  19
ATOM     19  C   UNL     1      30.650  49.529  39.618  0.00  0.00    +0.119 C 
BRANCH  19  20
ATOM     20  N   UNL     1      31.443  50.418  38.718  0.00  0.00    -0.302 NA
ATOM     21  C   UNL     1      32.479  51.240  39.489  0.00  0.00    +0.066 C 
ATOM     22  C   UNL     1      33.315  52.148  38.529  0.00  0.00    -0.064 C 
ATOM     23  N   UNL     1      32.371  53.063  37.748  0.00  0.00    +0.379 N 
ATOM     24  C   UNL     1      33.157  53.959  36.887  0.00  0.00    -0.096 C 
ATOM     25  H   UNL     1      31.826  53.696  38.486  0.00  0.00    -0.082 HD
ATOM     26  C   UNL     1      31.335  52.254  36.980  0.00  0.00    -0.064 C 
ATOM     27  C   UNL     1      30.530  51.334  37.939  0.00  0.00    +0.066 C 
ENDBRANCH  19  20
ENDBRANCH  18  19
ENDBRANCH  14  15
ENDBRANCH  12  13
TORSDOF 6
ENDMDL
MODEL 4
REMARK VINA RESULT:      -8.6     19.854     25.754
REMARK  Name = C:\Users\Docking\Desktop\test protocol\1iep_ligandH.pdb
REMARK  8 active torsions:
REMARK  status: ('A' for Active; 'I' for Inactive)
REMARK    1  A    between atoms: _5  and  _11
REMARK    2  A    between atoms: _19  and  _21
REMARK    3  A    between atoms: _22  and  _66
REMARK    4  A    between atoms: _27  and  _30
REMARK    5  A    between atoms: _32  and  _33
REMARK    6  A    between atoms: _38  and  _43
REMARK    7  A    between atoms: _43  and  _46
REMARK    8  A    between atoms: _53  and  _55
REMARK                            x       y       z     vdW  Elec       q    Type
REMARK                         _______ _______ _______ _____ _____    ______ ____
ROOT
ATOM     10  C   UNL     1      18.542  33.905  43.357  0.00  0.00    +0.038 A 
ATOM     11  C   UNL     1      17.955  33.276  42.230  0.00  0.00    +0.047 A 
ATOM     12  C   UNL     1      16.765  32.450  42.365  0.00  0.00    +0.035 A 
ATOM     32  C   UNL     1      16.198  32.288  43.663  0.00  0.00    +0.024 A 
ATOM     33  C   UNL     1      16.783  32.920  44.820  0.00  0.00    +0.007 A 
ATOM     34  C   UNL     1      17.958  33.734  44.693  0.00  0.00    -0.029 A 
ATOM     35  C   UNL     1      18.546  34.382  45.968  0.00  0.00    +0.045 C 
ENDROOT
BRANCH  10   9
ATOM      4  C   UNL     1      20.738  38.150  42.914  0.00  0.00    +0.077 A 
ATOM      5  C   UNL     1      19.503  38.869  43.039  0.00  0.00    +0.048 A 
ATOM      6  C   UNL     1      18.324  38.109  43.209  0.00  0.00    +0.116 A 
ATOM      7  N   UNL     1      18.388  36.733  43.250  0.00  0.00    -0.223 NA
ATOM      8  C   UNL     1      19.596  36.071  43.124  0.00  0.00    +0.220 A 
ATOM      9  N   UNL     1      19.684  34.688  43.170  0.00  0.00    -0.283 N 
ATOM     36  H   UNL     1      20.593  34.237  43.066  0.00  0.00    +0.155 HD
ATOM     37  N   UNL     1      20.735  36.774  42.960  0.00  0.00    -0.214 NA
BRANCH   4   3
ATOM      1  C   UNL     1      23.547  40.657  41.850  0.00  0.00    +0.020 A 
ATOM      2  C   UNL     1      22.240  40.059  41.996  0.00  0.00    +0.013 A 
ATOM      3  C   UNL     1      22.069  38.812  42.732  0.00  0.00    +0.019 A 
ATOM     38  C   UNL     1      23.250  38.193  43.314  0.00  0.00    +0.120 A 
ATOM     39  N   UNL     1      24.496  38.791  43.156  0.00  0.00    -0.263 NA
ATOM     40  C   UNL     1      24.673  39.989  42.449  0.00  0.00    +0.111 A 
ENDBRANCH   4   3
ENDBRANCH  10   9
BRANCH  12  13
ATOM     13  N   UNL     1      16.129  31.779  41.259  0.00  0.00    -0.281 N 
ATOM     14  C   UNL     1      16.074  30.419  41.005  0.00  0.00    +0.248 C 
ATOM     30  O   UNL     1      16.751  29.580  41.581  0.00  0.00    -0.270 OA
ATOM     31  H   UNL     1      15.662  32.381  40.580  0.00  0.00    +0.155 HD
BRANCH  14  15
ATOM     15  C   UNL     1      15.144  29.918  39.948  0.00  0.00    +0.037 A 
ATOM     16  C   UNL     1      14.916  28.484  39.753  0.00  0.00    +0.013 A 
ATOM     17  C   UNL     1      14.027  28.027  38.714  0.00  0.00    +0.005 A 
ATOM     18  C   UNL     1      13.356  29.007  37.863  0.00  0.00    -0.033 A 
ATOM     28  C   UNL     1      13.596  30.424  38.082  0.00  0.00    +0.005 A 
ATOM     29  C   UNL     1      14.468  30.875  39.098  0.00  0.00    +0.013 A 
BRANCH  18  19
ATOM     19  C   UNL     1      12.407  28.610  36.718  0.00  0.00    +0.119 C 
BRANCH  19  20
ATOM     20  N   UNL     1      11.009  28.235  37.087  0.00  0.00    -0.302 NA
ATOM     21  C   UNL     1      10.842  26.720  37.238  0.00  0.00    +0.066 C 
ATOM     22  C   UNL     1       9.380  26.347  37.646  0.00  0.00    -0.064 C 
ATOM     23  N   UNL     1       8.406  26.898  36.603  0.00  0.00    +0.379 N 
ATOM     24  C   UNL     1       7.035  26.499  36.954  0.00  0.00    -0.096 C 
ATOM     25  H   UNL     1       8.656  26.426  35.625  0.00  0.00    -0.082 HD
ATOM     26  C   UNL     1       8.567  28.403  36.445  0.00  0.00    -0.064 C 
ATOM     27  C   UNL     1      10.031  28.765  36.068  0.00  0.00    +0.066 C 
ENDBRANCH  19  20
ENDBRANCH  18  19
ENDBRANCH  14  15
ENDBRANCH  12  13
TORSDOF 6
ENDMDL
MODEL 5
REMARK VINA RESULT:      -8.5      2.924     13.358
REMARK  Name = C:\Users\Docking\Desktop\test protocol\1iep_ligandH.pdb
REMARK  8 active torsions:
REMARK  status: ('A' for Active; 'I' for Inactive)
REMARK    1  A    between atoms: _5  and  _11
REMARK    2  A    between atoms: _19  and  _21
REMARK    3  A    between atoms: _22  and  _66
REMARK    4  A    between atoms: _27  and  _30
REMARK    5  A    between atoms: _32  and  _33
REMARK    6  A    between atoms: _38  and  _43
REMARK    7  A    between atoms: _43  and  _46
REMARK    8  A    between atoms: _53  and  _55
REMARK                            x       y       z     vdW  Elec       q    Type
REMARK                         _______ _______ _______ _____ _____    ______ ____
ROOT
ATOM     10  C   UNL     1      17.104  52.050  47.794  0.00  0.00    +0.038 A 
ATOM     11  C   UNL     1      16.061  52.910  48.223  0.00  0.00    +0.047 A 
ATOM     12  C   UNL     1      14.675  52.466  48.233  0.00  0.00    +0.035 A 
ATOM     32  C   UNL     1      14.389  51.138  47.802  0.00  0.00    +0.024 A 
ATOM     33  C   UNL     1      15.436  50.251  47.361  0.00  0.00    +0.007 A 
ATOM     34  C   UNL     1      16.804  50.684  47.347  0.00  0.00    -0.029 A 
ATOM     35  C   UNL     1      17.886  49.693  46.859  0.00  0.00    +0.045 C 
ENDROOT
BRANCH  10   9
ATOM      4  C   UNL     1      20.906  54.026  45.632  0.00  0.00    +0.077 A 
ATOM      5  C   UNL     1      20.231  54.086  44.368  0.00  0.00    +0.048 A 
ATOM      6  C   UNL     1      18.908  53.592  44.315  0.00  0.00    +0.116 A 
ATOM      7  N   UNL     1      18.315  53.078  45.448  0.00  0.00    -0.223 NA
ATOM      8  C   UNL     1      18.995  53.033  46.651  0.00  0.00    +0.220 A 
ATOM      9  N   UNL     1      18.416  52.528  47.805  0.00  0.00    -0.283 N 
ATOM     36  H   UNL     1      18.953  52.506  48.671  0.00  0.00    +0.155 HD
ATOM     37  N   UNL     1      20.260  53.498  46.727  0.00  0.00    -0.214 NA
BRANCH   4   3
ATOM      1  C   UNL     1      23.980  56.235  46.621  0.00  0.00    +0.020 A 
ATOM      2  C   UNL     1      22.611  55.813  46.432  0.00  0.00    +0.013 A 
ATOM      3  C   UNL     1      22.306  54.512  45.849  0.00  0.00    +0.019 A 
ATOM     38  C   UNL     1      23.417  53.655  45.466  0.00  0.00    +0.120 A 
ATOM     39  N   UNL     1      24.725  54.089  45.658  0.00  0.00    -0.263 NA
ATOM     40  C   UNL     1      25.031  55.339  46.216  0.00  0.00    +0.111 A 
ENDBRANCH   4   3
ENDBRANCH  10   9
BRANCH  12  13
ATOM     13  N   UNL     1      13.574  53.297  48.650  0.00  0.00    -0.281 N 
ATOM     14  C   UNL     1      12.788  54.127  47.867  0.00  0.00    +0.248 C 
ATOM     30  O   UNL     1      13.052  54.445  46.717  0.00  0.00    -0.270 OA
ATOM     31  H   UNL     1      13.345  53.271  49.644  0.00  0.00    +0.155 HD
BRANCH  14  15
ATOM     15  C   UNL     1      11.536  54.697  48.450  0.00  0.00    +0.037 A 
ATOM     16  C   UNL     1      10.246  54.549  47.772  0.00  0.00    +0.013 A 
ATOM     17  C   UNL     1       9.056  55.124  48.347  0.00  0.00    +0.005 A 
ATOM     18  C   UNL     1       9.151  55.852  49.610  0.00  0.00    -0.033 A 
ATOM     28  C   UNL     1      10.443  55.980  50.264  0.00  0.00    +0.005 A 
ATOM     29  C   UNL     1      11.611  55.419  49.702  0.00  0.00    +0.013 A 
BRANCH  18  19
ATOM     19  C   UNL     1       7.937  56.516  50.286  0.00  0.00    +0.119 C 
BRANCH  19  20
ATOM     20  N   UNL     1       6.653  55.754  50.287  0.00  0.00    -0.302 NA
ATOM     21  C   UNL     1       5.434  56.681  50.272  0.00  0.00    +0.066 C 
ATOM     22  C   UNL     1       4.099  55.867  50.250  0.00  0.00    -0.064 C 
ATOM     23  N   UNL     1       4.055  54.933  51.461  0.00  0.00    +0.379 N 
ATOM     24  C   UNL     1       2.776  54.208  51.474  0.00  0.00    -0.096 C 
ATOM     25  H   UNL     1       4.095  55.566  52.377  0.00  0.00    -0.082 HD
ATOM     26  C   UNL     1       5.264  54.009  51.484  0.00  0.00    -0.064 C 
ATOM     27  C   UNL     1       6.586  54.828  51.476  0.00  0.00    +0.066 C 
ENDBRANCH  19  20
ENDBRANCH  18  19
ENDBRANCH  14  15
ENDBRANCH  12  13
TORSDOF 6
ENDMDL
