MODEL 1
REMARK VINA RESULT:      -9.9      0.000      0.000
REMARK  Name = C:\Users\Docking\Desktop\test protocol\1iep_ligandH.pdb
REMARK  8 active torsions:
REMARK  status: ('A' for Active; 'I' for Inactive)
REMARK    1  A    between atoms: _5  and  _11
REMARK    2  A    between atoms: _19  and  _21
REMARK    3  A    between atoms: _22  and  _66
REMARK    4  A    between atoms: _27  and  _30
REMARK    5  A    between atoms: _32  and  _33
REMARK    6  A    between atoms: _38  and  _43
REMARK    7  A    between atoms: _43  and  _46
REMARK    8  A    between atoms: _53  and  _55
REMARK                            x       y       z     vdW  Elec       q    Type
REMARK                         _______ _______ _______ _____ _____    ______ ____
ROOT
ATOM     10  C   UNL     1      33.820  10.049 224.721  0.00  0.00    +0.038 A 
ATOM     11  C   UNL     1      33.096  10.178 225.934  0.00  0.00    +0.047 A 
ATOM     12  C   UNL     1      32.014   9.265 226.266  0.00  0.00    +0.035 A 
ATOM     32  C   UNL     1      31.696   8.229 225.339  0.00  0.00    +0.024 A 
ATOM     33  C   UNL     1      32.420   8.084 224.101  0.00  0.00    +0.007 A 
ATOM     34  C   UNL     1      33.488   8.983 223.768  0.00  0.00    -0.029 A 
ATOM     35  C   UNL     1      34.226   8.784 222.424  0.00  0.00    +0.045 C 
ENDROOT
BRANCH  10   9
ATOM      4  C   UNL     1      38.319  11.625 225.279  0.00  0.00    +0.077 A 
ATOM      5  C   UNL     1      38.636  10.573 226.201  0.00  0.00    +0.048 A 
ATOM      6  C   UNL     1      37.611   9.651 226.512  0.00  0.00    +0.116 A 
ATOM      7  N   UNL     1      36.366   9.781 225.936  0.00  0.00    -0.223 NA
ATOM      8  C   UNL     1      36.093  10.808 225.051  0.00  0.00    +0.220 A 
ATOM      9  N   UNL     1      34.850  10.953 224.454  0.00  0.00    -0.283 N 
ATOM     36  H   UNL     1      34.687  11.729 223.813  0.00  0.00    +0.155 HD
ATOM     37  N   UNL     1      37.055  11.702 224.740  0.00  0.00    -0.214 NA
BRANCH   4   3
ATOM      1  C   UNL     1      40.316  14.209 223.126  0.00  0.00    +0.020 A 
ATOM      2  C   UNL     1      39.353  13.195 223.489  0.00  0.00    +0.013 A 
ATOM      3  C   UNL     1      39.297  12.674 224.849  0.00  0.00    +0.019 A 
ATOM     38  C   UNL     1      40.236  13.204 225.826  0.00  0.00    +0.120 A 
ATOM     39  N   UNL     1      41.154  14.179 225.447  0.00  0.00    -0.263 NA
ATOM     40  C   UNL     1      41.218  14.687 224.141  0.00  0.00    +0.111 A 
ENDBRANCH   4   3
ENDBRANCH  10   9
BRANCH  12  13
ATOM     13  N   UNL     1      31.238   9.352 227.478  0.00  0.00    -0.281 N 
ATOM     14  C   UNL     1      30.231  10.254 227.782  0.00  0.00    +0.248 C 
ATOM     30  O   UNL     1      29.989  11.263 227.137  0.00  0.00    -0.270 OA
ATOM     31  H   UNL     1      31.459   8.666 228.200  0.00  0.00    +0.155 HD
BRANCH  14  15
ATOM     15  C   UNL     1      29.380  10.006 228.986  0.00  0.00    +0.037 A 
ATOM     16  C   UNL     1      29.540  10.800 230.206  0.00  0.00    +0.013 A 
ATOM     17  C   UNL     1      28.717  10.530 231.359  0.00  0.00    +0.005 A 
ATOM     18  C   UNL     1      27.725   9.459 231.294  0.00  0.00    -0.033 A 
ATOM     28  C   UNL     1      27.583   8.691 230.069  0.00  0.00    +0.005 A 
ATOM     29  C   UNL     1      28.389   8.952 228.938  0.00  0.00    +0.013 A 
BRANCH  18  19
ATOM     19  C   UNL     1      26.818   9.087 232.482  0.00  0.00    +0.119 C 
BRANCH  19  20
ATOM     20  N   UNL     1      27.489   8.668 233.749  0.00  0.00    -0.302 NA
ATOM     21  C   UNL     1      28.695   7.761 233.488  0.00  0.00    +0.066 C 
ATOM     22  C   UNL     1      29.398   7.350 234.823  0.00  0.00    -0.064 C 
ATOM     23  N   UNL     1      28.386   6.657 235.737  0.00  0.00    +0.379 N 
ATOM     24  C   UNL     1      29.058   6.218 236.969  0.00  0.00    -0.096 C 
ATOM     25  H   UNL     1      28.021   5.746 235.208  0.00  0.00    -0.082 HD
ATOM     26  C   UNL     1      27.183   7.552 236.000  0.00  0.00    -0.064 C 
ATOM     27  C   UNL     1      26.509   7.978 234.665  0.00  0.00    +0.066 C 
ENDBRANCH  19  20
ENDBRANCH  18  19
ENDBRANCH  14  15
ENDBRANCH  12  13
TORSDOF 6
ENDMDL
MODEL 2
REMARK VINA RESULT:      -9.8      1.635      2.198
REMARK  Name = C:\Users\Docking\Desktop\test protocol\1iep_ligandH.pdb
REMARK  8 active torsions:
REMARK  status: ('A' for Active; 'I' for Inactive)
REMARK    1  A    between atoms: _5  and  _11
REMARK    2  A    between atoms: _19  and  _21
REMARK    3  A    between atoms: _22  and  _66
REMARK    4  A    between atoms: _27  and  _30
REMARK    5  A    between atoms: _32  and  _33
REMARK    6  A    between atoms: _38  and  _43
REMARK    7  A    between atoms: _43  and  _46
REMARK    8  A    between atoms: _53  and  _55
REMARK                            x       y       z     vdW  Elec       q    Type
REMARK                         _______ _______ _______ _____ _____    ______ ____
ROOT
ATOM     10  C   UNL     1      36.160   8.849 225.912  0.00  0.00    +0.038 A 
ATOM     11  C   UNL     1      35.253   9.177 226.952  0.00  0.00    +0.047 A 
ATOM     12  C   UNL     1      33.904   8.632 226.973  0.00  0.00    +0.035 A 
ATOM     32  C   UNL     1      33.514   7.753 225.921  0.00  0.00    +0.024 A 
ATOM     33  C   UNL     1      34.423   7.410 224.856  0.00  0.00    +0.007 A 
ATOM     34  C   UNL     1      35.753   7.947 224.828  0.00  0.00    -0.029 A 
ATOM     35  C   UNL     1      36.683   7.550 223.658  0.00  0.00    +0.045 C 
ENDROOT
BRANCH  10   9
ATOM      4  C   UNL     1      39.245  12.432 225.089  0.00  0.00    +0.077 A 
ATOM      5  C   UNL     1      38.220  13.265 224.529  0.00  0.00    +0.048 A 
ATOM      6  C   UNL     1      36.914  12.731 224.465  0.00  0.00    +0.116 A 
ATOM      7  N   UNL     1      36.662  11.459 224.929  0.00  0.00    -0.223 NA
ATOM      8  C   UNL     1      37.674  10.681 225.461  0.00  0.00    +0.220 A 
ATOM      9  N   UNL     1      37.443   9.401 225.941  0.00  0.00    -0.283 N 
ATOM     36  H   UNL     1      38.217   8.857 226.320  0.00  0.00    +0.155 HD
ATOM     37  N   UNL     1      38.931  11.167 225.533  0.00  0.00    -0.214 NA
BRANCH   4   3
ATOM      1  C   UNL     1      43.156  12.453 225.022  0.00  0.00    +0.020 A 
ATOM      2  C   UNL     1      41.795  11.996 224.868  0.00  0.00    +0.013 A 
ATOM      3  C   UNL     1      40.675  12.856 225.228  0.00  0.00    +0.019 A 
ATOM     38  C   UNL     1      40.969  14.184 225.744  0.00  0.00    +0.120 A 
ATOM     39  N   UNL     1      42.291  14.597 225.883  0.00  0.00    -0.263 NA
ATOM     40  C   UNL     1      43.377  13.778 225.541  0.00  0.00    +0.111 A 
ENDBRANCH   4   3
ENDBRANCH  10   9
BRANCH  12  13
ATOM     13  N   UNL     1      32.937   8.935 227.999  0.00  0.00    -0.281 N 
ATOM     14  C   UNL     1      31.856   9.798 227.921  0.00  0.00    +0.248 C 
ATOM     30  O   UNL     1      31.680  10.606 227.021  0.00  0.00    -0.270 OA
ATOM     31  H   UNL     1      33.064   8.456 228.890  0.00  0.00    +0.155 HD
BRANCH  14  15
ATOM     15  C   UNL     1      30.829   9.768 229.007  0.00  0.00    +0.037 A 
ATOM     16  C   UNL     1      31.096  10.358 230.321  0.00  0.00    +0.013 A 
ATOM     17  C   UNL     1      30.094  10.300 231.356  0.00  0.00    +0.005 A 
ATOM     18  C   UNL     1      28.815   9.652 231.080  0.00  0.00    -0.033 A 
ATOM     28  C   UNL     1      28.574   9.079 229.765  0.00  0.00    +0.005 A 
ATOM     29  C   UNL     1      29.554   9.133 228.748  0.00  0.00    +0.013 A 
BRANCH  18  19
ATOM     19  C   UNL     1      27.696   9.526 232.131  0.00  0.00    +0.119 C 
BRANCH  19  20
ATOM     20  N   UNL     1      27.822   8.427 233.135  0.00  0.00    -0.302 NA
ATOM     21  C   UNL     1      26.868   8.617 234.317  0.00  0.00    +0.066 C 
ATOM     22  C   UNL     1      26.997   7.447 235.346  0.00  0.00    -0.064 C 
ATOM     23  N   UNL     1      28.445   7.353 235.828  0.00  0.00    +0.379 N 
ATOM     24  C   UNL     1      28.558   6.291 236.839  0.00  0.00    -0.096 C 
ATOM     25  H   UNL     1      28.701   8.319 236.322  0.00  0.00    -0.082 HD
ATOM     26  C   UNL     1      29.401   7.166 234.658  0.00  0.00    -0.064 C 
ATOM     27  C   UNL     1      29.244   8.318 233.627  0.00  0.00    +0.066 C 
ENDBRANCH  19  20
ENDBRANCH  18  19
ENDBRANCH  14  15
ENDBRANCH  12  13
TORSDOF 6
ENDMDL
MODEL 3
REMARK VINA RESULT:      -9.4     11.832     17.051
REMARK  Name = C:\Users\Docking\Desktop\test protocol\1iep_ligandH.pdb
REMARK  8 active torsions:
REMARK  status: ('A' for Active; 'I' for Inactive)
REMARK    1  A    between atoms: _5  and  _11
REMARK    2  A    between atoms: _19  and  _21
REMARK    3  A    between atoms: _22  and  _66
REMARK    4  A    between atoms: _27  and  _30
REMARK    5  A    between atoms: _32  and  _33
REMARK    6  A    between atoms: _38  and  _43
REMARK    7  A    between atoms: _43  and  _46
REMARK    8  A    between atoms: _53  and  _55
REMARK                            x       y       z     vdW  Elec       q    Type
REMARK                         _______ _______ _______ _____ _____    ______ ____
ROOT
ATOM     10  C   UNL     1      19.170  11.012 229.768  0.00  0.00    +0.038 A 
ATOM     11  C   UNL     1      19.064  12.369 230.168  0.00  0.00    +0.047 A 
ATOM     12  C   UNL     1      17.785  13.062 230.146  0.00  0.00    +0.035 A 
ATOM     32  C   UNL     1      16.634  12.342 229.712  0.00  0.00    +0.024 A 
ATOM     33  C   UNL     1      16.724  10.963 229.301  0.00  0.00    +0.007 A 
ATOM     34  C   UNL     1      17.983  10.275 229.319  0.00  0.00    -0.029 A 
ATOM     35  C   UNL     1      18.022   8.798 228.861  0.00  0.00    +0.045 C 
ENDROOT
BRANCH  10   9
ATOM      4  C   UNL     1      22.978   9.320 232.150  0.00  0.00    +0.077 A 
ATOM      5  C   UNL     1      22.438   9.722 233.417  0.00  0.00    +0.048 A 
ATOM      6  C   UNL     1      21.181  10.368 233.412  0.00  0.00    +0.116 A 
ATOM      7  N   UNL     1      20.522  10.589 232.222  0.00  0.00    -0.223 NA
ATOM      8  C   UNL     1      21.072  10.190 231.017  0.00  0.00    +0.220 A 
ATOM      9  N   UNL     1      20.423  10.396 229.809  0.00  0.00    -0.283 N 
ATOM     36  H   UNL     1      20.865  10.094 228.942  0.00  0.00    +0.155 HD
ATOM     37  N   UNL     1      22.271   9.573 230.996  0.00  0.00    -0.214 NA
BRANCH   4   3
ATOM      1  C   UNL     1      26.170   7.169 232.844  0.00  0.00    +0.020 A 
ATOM      2  C   UNL     1      24.897   7.820 233.048  0.00  0.00    +0.013 A 
ATOM      3  C   UNL     1      24.294   8.624 231.992  0.00  0.00    +0.019 A 
ATOM     38  C   UNL     1      25.011   8.749 230.732  0.00  0.00    +0.120 A 
ATOM     39  N   UNL     1      26.236   8.111 230.565  0.00  0.00    -0.263 NA
ATOM     40  C   UNL     1      26.827   7.336 231.574  0.00  0.00    +0.111 A 
ENDBRANCH   4   3
ENDBRANCH  10   9
BRANCH  12  13
ATOM     13  N   UNL     1      17.617  14.441 230.533  0.00  0.00    -0.281 N 
ATOM     14  C   UNL     1      17.096  15.479 229.779  0.00  0.00    +0.248 C 
ATOM     30  O   UNL     1      16.891  15.425 228.575  0.00  0.00    -0.270 OA
ATOM     31  H   UNL     1      17.919  14.680 231.477  0.00  0.00    +0.155 HD
BRANCH  14  15
ATOM     15  C   UNL     1      16.769  16.770 230.457  0.00  0.00    +0.037 A 
ATOM     16  C   UNL     1      16.248  17.914 229.704  0.00  0.00    +0.013 A 
ATOM     17  C   UNL     1      15.957  19.153 230.380  0.00  0.00    +0.005 A 
ATOM     18  C   UNL     1      16.185  19.254 231.820  0.00  0.00    -0.033 A 
ATOM     28  C   UNL     1      16.697  18.103 232.543  0.00  0.00    +0.005 A 
ATOM     29  C   UNL     1      16.985  16.887 231.884  0.00  0.00    +0.013 A 
BRANCH  18  19
ATOM     19  C   UNL     1      15.922  20.544 232.619  0.00  0.00    +0.119 C 
BRANCH  19  20
ATOM     20  N   UNL     1      16.163  21.842 231.922  0.00  0.00    -0.302 NA
ATOM     21  C   UNL     1      17.393  22.570 232.472  0.00  0.00    +0.066 C 
ATOM     22  C   UNL     1      17.643  23.915 231.715  0.00  0.00    -0.064 C 
ATOM     23  N   UNL     1      16.399  24.798 231.824  0.00  0.00    +0.379 N 
ATOM     24  C   UNL     1      16.652  26.087 231.164  0.00  0.00    -0.096 C 
ATOM     25  H   UNL     1      16.222  25.001 232.906  0.00  0.00    -0.082 HD
ATOM     26  C   UNL     1      15.170  24.081 231.282  0.00  0.00    -0.064 C 
ATOM     27  C   UNL     1      14.947  22.731 232.020  0.00  0.00    +0.066 C 
ENDBRANCH  19  20
ENDBRANCH  18  19
ENDBRANCH  14  15
ENDBRANCH  12  13
TORSDOF 6
ENDMDL
MODEL 4
REMARK VINA RESULT:      -9.2      4.278      6.249
REMARK  Name = C:\Users\Docking\Desktop\test protocol\1iep_ligandH.pdb
REMARK  8 active torsions:
REMARK  status: ('A' for Active; 'I' for Inactive)
REMARK    1  A    between atoms: _5  and  _11
REMARK    2  A    between atoms: _19  and  _21
REMARK    3  A    between atoms: _22  and  _66
REMARK    4  A    between atoms: _27  and  _30
REMARK    5  A    between atoms: _32  and  _33
REMARK    6  A    between atoms: _38  and  _43
REMARK    7  A    between atoms: _43  and  _46
REMARK    8  A    between atoms: _53  and  _55
REMARK                            x       y       z     vdW  Elec       q    Type
REMARK                         _______ _______ _______ _____ _____    ______ ____
ROOT
ATOM     10  C   UNL     1      32.303  10.467 223.728  0.00  0.00    +0.038 A 
ATOM     11  C   UNL     1      31.578  10.342 224.941  0.00  0.00    +0.047 A 
ATOM     12  C   UNL     1      31.807   9.224 225.843  0.00  0.00    +0.035 A 
ATOM     32  C   UNL     1      32.784   8.252 225.480  0.00  0.00    +0.024 A 
ATOM     33  C   UNL     1      33.530   8.363 224.251  0.00  0.00    +0.007 A 
ATOM     34  C   UNL     1      33.307   9.463 223.356  0.00  0.00    -0.029 A 
ATOM     35  C   UNL     1      34.130   9.527 222.049  0.00  0.00    +0.045 C 
ENDROOT
BRANCH  10   9
ATOM      4  C   UNL     1      30.042  12.535 220.034  0.00  0.00    +0.077 A 
ATOM      5  C   UNL     1      29.340  11.327 219.711  0.00  0.00    +0.048 A 
ATOM      6  C   UNL     1      29.594  10.194 220.515  0.00  0.00    +0.116 A 
ATOM      7  N   UNL     1      30.486  10.274 221.563  0.00  0.00    -0.223 NA
ATOM      8  C   UNL     1      31.148  11.455 221.846  0.00  0.00    +0.220 A 
ATOM      9  N   UNL     1      32.043  11.561 222.900  0.00  0.00    -0.283 N 
ATOM     36  H   UNL     1      32.517  12.447 223.071  0.00  0.00    +0.155 HD
ATOM     37  N   UNL     1      30.924  12.551 221.092  0.00  0.00    -0.214 NA
BRANCH   4   3
ATOM      1  C   UNL     1      29.709  16.331 219.151  0.00  0.00    +0.020 A 
ATOM      2  C   UNL     1      29.871  15.123 219.927  0.00  0.00    +0.013 A 
ATOM      3  C   UNL     1      29.878  13.818 219.279  0.00  0.00    +0.019 A 
ATOM     38  C   UNL     1      29.720  13.769 217.833  0.00  0.00    +0.120 A 
ATOM     39  N   UNL     1      29.566  14.949 217.112  0.00  0.00    -0.263 NA
ATOM     40  C   UNL     1      29.555  16.211 217.725  0.00  0.00    +0.111 A 
ENDBRANCH   4   3
ENDBRANCH  10   9
BRANCH  12  13
ATOM     13  N   UNL     1      31.095   9.040 227.083  0.00  0.00    -0.281 N 
ATOM     14  C   UNL     1      31.223   9.769 228.254  0.00  0.00    +0.248 C 
ATOM     30  O   UNL     1      32.128  10.558 228.482  0.00  0.00    -0.270 OA
ATOM     31  H   UNL     1      30.414   8.281 227.100  0.00  0.00    +0.155 HD
BRANCH  14  15
ATOM     15  C   UNL     1      30.207   9.583 229.335  0.00  0.00    +0.037 A 
ATOM     16  C   UNL     1      28.866   9.075 229.038  0.00  0.00    +0.013 A 
ATOM     17  C   UNL     1      27.899   8.921 230.096  0.00  0.00    +0.005 A 
ATOM     18  C   UNL     1      28.273   9.275 231.464  0.00  0.00    -0.033 A 
ATOM     28  C   UNL     1      29.612   9.772 231.731  0.00  0.00    +0.005 A 
ATOM     29  C   UNL     1      30.562   9.925 230.696  0.00  0.00    +0.013 A 
BRANCH  18  19
ATOM     19  C   UNL     1      27.300   9.163 232.652  0.00  0.00    +0.119 C 
BRANCH  19  20
ATOM     20  N   UNL     1      27.850   8.649 233.941  0.00  0.00    -0.302 NA
ATOM     21  C   UNL     1      28.928   7.584 233.721  0.00  0.00    +0.066 C 
ATOM     22  C   UNL     1      29.510   7.072 235.079  0.00  0.00    -0.064 C 
ATOM     23  N   UNL     1      28.373   6.522 235.942  0.00  0.00    +0.379 N 
ATOM     24  C   UNL     1      28.924   5.988 237.196  0.00  0.00    -0.096 C 
ATOM     25  H   UNL     1      27.909   5.674 235.388  0.00  0.00    -0.082 HD
ATOM     26  C   UNL     1      27.296   7.574 236.164  0.00  0.00    -0.064 C 
ATOM     27  C   UNL     1      26.745   8.096 234.808  0.00  0.00    +0.066 C 
ENDBRANCH  19  20
ENDBRANCH  18  19
ENDBRANCH  14  15
ENDBRANCH  12  13
TORSDOF 6
ENDMDL
MODEL 5
REMARK VINA RESULT:      -9.0      4.291      8.821
REMARK  Name = C:\Users\Docking\Desktop\test protocol\1iep_ligandH.pdb
REMARK  8 active torsions:
REMARK  status: ('A' for Active; 'I' for Inactive)
REMARK    1  A    between atoms: _5  and  _11
REMARK    2  A    between atoms: _19  and  _21
REMARK    3  A    between atoms: _22  and  _66
REMARK    4  A    between atoms: _27  and  _30
REMARK    5  A    between atoms: _32  and  _33
REMARK    6  A    between atoms: _38  and  _43
REMARK    7  A    between atoms: _43  and  _46
REMARK    8  A    between atoms: _53  and  _55
REMARK                            x       y       z     vdW  Elec       q    Type
REMARK                         _______ _______ _______ _____ _____    ______ ____
ROOT
ATOM     10  C   UNL     1      41.773  14.139 225.545  0.00  0.00    +0.038 A 
ATOM     11  C   UNL     1      40.493  13.526 225.530  0.00  0.00    +0.047 A 
ATOM     12  C   UNL     1      39.397  14.093 224.761  0.00  0.00    +0.035 A 
ATOM     32  C   UNL     1      39.639  15.283 224.015  0.00  0.00    +0.024 A 
ATOM     33  C   UNL     1      40.933  15.919 224.019  0.00  0.00    +0.007 A 
ATOM     34  C   UNL     1      42.018  15.366 224.778  0.00  0.00    -0.029 A 
ATOM     35  C   UNL     1      43.382  16.094 224.751  0.00  0.00    +0.045 C 
ENDROOT
BRANCH  10   9
ATOM      4  C   UNL     1      45.472  11.121 226.045  0.00  0.00    +0.077 A 
ATOM      5  C   UNL     1      45.351  10.655 224.693  0.00  0.00    +0.048 A 
ATOM      6  C   UNL     1      44.319  11.212 223.905  0.00  0.00    +0.116 A 
ATOM      7  N   UNL     1      43.477  12.164 224.438  0.00  0.00    -0.223 NA
ATOM      8  C   UNL     1      43.620  12.590 225.746  0.00  0.00    +0.220 A 
ATOM      9  N   UNL     1      42.790  13.552 226.301  0.00  0.00    -0.283 N 
ATOM     36  H   UNL     1      42.923  13.834 227.271  0.00  0.00    +0.155 HD
ATOM     37  N   UNL     1      44.597  12.072 226.520  0.00  0.00    -0.214 NA
BRANCH   4   3
ATOM      1  C   UNL     1      47.281   9.900 229.291  0.00  0.00    +0.020 A 
ATOM      2  C   UNL     1      46.239  10.373 228.409  0.00  0.00    +0.013 A 
ATOM      3  C   UNL     1      46.514  10.631 227.001  0.00  0.00    +0.019 A 
ATOM     38  C   UNL     1      47.865  10.397 226.513  0.00  0.00    +0.120 A 
ATOM     39  N   UNL     1      48.848   9.942 227.386  0.00  0.00    -0.263 NA
ATOM     40  C   UNL     1      48.596   9.693 228.743  0.00  0.00    +0.111 A 
ENDBRANCH   4   3
ENDBRANCH  10   9
BRANCH  12  13
ATOM     13  N   UNL     1      38.074  13.520 224.715  0.00  0.00    -0.281 N 
ATOM     14  C   UNL     1      37.597  12.547 223.852  0.00  0.00    +0.248 C 
ATOM     30  O   UNL     1      38.178  12.173 222.844  0.00  0.00    -0.270 OA
ATOM     31  H   UNL     1      37.409  13.875 225.402  0.00  0.00    +0.155 HD
BRANCH  14  15
ATOM     15  C   UNL     1      36.278  11.908 224.143  0.00  0.00    +0.037 A 
ATOM     16  C   UNL     1      35.018  12.587 223.827  0.00  0.00    +0.013 A 
ATOM     17  C   UNL     1      33.759  11.955 224.133  0.00  0.00    +0.005 A 
ATOM     18  C   UNL     1      33.754  10.635 224.759  0.00  0.00    -0.033 A 
ATOM     28  C   UNL     1      35.018   9.982 225.057  0.00  0.00    +0.005 A 
ATOM     29  C   UNL     1      36.254  10.599 224.759  0.00  0.00    +0.013 A 
BRANCH  18  19
ATOM     19  C   UNL     1      32.458   9.896 225.141  0.00  0.00    +0.119 C 
BRANCH  19  20
ATOM     20  N   UNL     1      31.852  10.218 226.467  0.00  0.00    -0.302 NA
ATOM     21  C   UNL     1      32.594   9.534 227.619  0.00  0.00    +0.066 C 
ATOM     22  C   UNL     1      31.961   9.900 229.001  0.00  0.00    -0.064 C 
ATOM     23  N   UNL     1      30.482   9.508 229.001  0.00  0.00    +0.379 N 
ATOM     24  C   UNL     1      29.898   9.798 230.318  0.00  0.00    -0.096 C 
ATOM     25  H   UNL     1      30.425   8.407 228.839  0.00  0.00    -0.082 HD
ATOM     26  C   UNL     1      29.738  10.182 227.857  0.00  0.00    -0.064 C 
ATOM     27  C   UNL     1      30.393   9.835 226.491  0.00  0.00    +0.066 C 
ENDBRANCH  19  20
ENDBRANCH  18  19
ENDBRANCH  14  15
ENDBRANCH  12  13
TORSDOF 6
ENDMDL
