MODEL 1
REMARK VINA RESULT:     -10.2      0.000      0.000
REMARK  Name = C:\Users\Docking\Desktop\test protocol\1iep_ligandH.pdb
REMARK  8 active torsions:
REMARK  status: ('A' for Active; 'I' for Inactive)
REMARK    1  A    between atoms: _5  and  _11
REMARK    2  A    between atoms: _19  and  _21
REMARK    3  A    between atoms: _22  and  _66
REMARK    4  A    between atoms: _27  and  _30
REMARK    5  A    between atoms: _32  and  _33
REMARK    6  A    between atoms: _38  and  _43
REMARK    7  A    between atoms: _43  and  _46
REMARK    8  A    between atoms: _53  and  _55
REMARK                            x       y       z     vdW  Elec       q    Type
REMARK                         _______ _______ _______ _____ _____    ______ ____
ROOT
ATOM     10  C   UNL     1       7.048  34.798  60.697  0.00  0.00    +0.038 A 
ATOM     11  C   UNL     1       7.532  36.101  60.417  0.00  0.00    +0.047 A 
ATOM     12  C   UNL     1       7.687  37.089  61.473  0.00  0.00    +0.035 A 
ATOM     32  C   UNL     1       7.341  36.715  62.805  0.00  0.00    +0.024 A 
ATOM     33  C   UNL     1       6.846  35.395  63.107  0.00  0.00    +0.007 A 
ATOM     34  C   UNL     1       6.689  34.417  62.068  0.00  0.00    -0.029 A 
ATOM     35  C   UNL     1       6.148  33.019  62.449  0.00  0.00    +0.045 C 
ENDROOT
BRANCH  10   9
ATOM      4  C   UNL     1       8.698  31.193  57.991  0.00  0.00    +0.077 A 
ATOM      5  C   UNL     1       9.932  31.133  58.719  0.00  0.00    +0.048 A 
ATOM      6  C   UNL     1      10.106  32.052  59.778  0.00  0.00    +0.116 A 
ATOM      7  N   UNL     1       9.113  32.959  60.078  0.00  0.00    -0.223 NA
ATOM      8  C   UNL     1       7.935  32.991  59.355  0.00  0.00    +0.220 A 
ATOM      9  N   UNL     1       6.919  33.889  59.644  0.00  0.00    -0.283 N 
ATOM     36  H   UNL     1       6.068  33.885  59.083  0.00  0.00    +0.155 HD
ATOM     37  N   UNL     1       7.745  32.124  58.338  0.00  0.00    -0.214 NA
BRANCH   4   3
ATOM      1  C   UNL     1       6.817  28.723  55.611  0.00  0.00    +0.020 A 
ATOM      2  C   UNL     1       7.090  29.588  56.736  0.00  0.00    +0.013 A 
ATOM      3  C   UNL     1       8.364  30.286  56.848  0.00  0.00    +0.019 A 
ATOM     38  C   UNL     1       9.349  30.087  55.795  0.00  0.00    +0.120 A 
ATOM     39  N   UNL     1       9.059  29.247  54.724  0.00  0.00    -0.263 NA
ATOM     40  C   UNL     1       7.837  28.569  54.607  0.00  0.00    +0.111 A 
ENDBRANCH   4   3
ENDBRANCH  10   9
BRANCH  12  13
ATOM     13  N   UNL     1       8.167  38.430  61.248  0.00  0.00    -0.281 N 
ATOM     14  C   UNL     1       8.999  39.184  62.059  0.00  0.00    +0.248 C 
ATOM     30  O   UNL     1       9.288  38.896  63.211  0.00  0.00    -0.270 OA
ATOM     31  H   UNL     1       7.854  38.878  60.387  0.00  0.00    +0.155 HD
BRANCH  14  15
ATOM     15  C   UNL     1       9.584  40.448  61.516  0.00  0.00    +0.037 A 
ATOM     16  C   UNL     1       9.131  41.759  61.987  0.00  0.00    +0.013 A 
ATOM     17  C   UNL     1       9.700  42.963  61.434  0.00  0.00    +0.005 A 
ATOM     18  C   UNL     1      10.731  42.860  60.404  0.00  0.00    -0.033 A 
ATOM     28  C   UNL     1      11.166  41.547  59.959  0.00  0.00    +0.005 A 
ATOM     29  C   UNL     1      10.610  40.365  60.498  0.00  0.00    +0.013 A 
BRANCH  18  19
ATOM     19  C   UNL     1      11.378  44.091  59.744  0.00  0.00    +0.119 C 
BRANCH  19  20
ATOM     20  N   UNL     1      12.850  44.269  59.923  0.00  0.00    -0.302 NA
ATOM     21  C   UNL     1      13.233  45.740  60.106  0.00  0.00    +0.066 C 
ATOM     22  C   UNL     1      14.774  45.905  60.315  0.00  0.00    -0.064 C 
ATOM     23  N   UNL     1      15.515  45.296  59.123  0.00  0.00    +0.379 N 
ATOM     24  C   UNL     1      16.962  45.501  59.288  0.00  0.00    -0.096 C 
ATOM     25  H   UNL     1      15.197  45.849  58.209  0.00  0.00    -0.082 HD
ATOM     26  C   UNL     1      15.138  43.834  58.932  0.00  0.00    -0.064 C 
ATOM     27  C   UNL     1      13.602  43.678  58.755  0.00  0.00    +0.066 C 
ENDBRANCH  19  20
ENDBRANCH  18  19
ENDBRANCH  14  15
ENDBRANCH  12  13
TORSDOF 6
ENDMDL
MODEL 2
REMARK VINA RESULT:      -9.4      1.599      2.317
REMARK  Name = C:\Users\Docking\Desktop\test protocol\1iep_ligandH.pdb
REMARK  8 active torsions:
REMARK  status: ('A' for Active; 'I' for Inactive)
REMARK    1  A    between atoms: _5  and  _11
REMARK    2  A    between atoms: _19  and  _21
REMARK    3  A    between atoms: _22  and  _66
REMARK    4  A    between atoms: _27  and  _30
REMARK    5  A    between atoms: _32  and  _33
REMARK    6  A    between atoms: _38  and  _43
REMARK    7  A    between atoms: _43  and  _46
REMARK    8  A    between atoms: _53  and  _55
REMARK                            x       y       z     vdW  Elec       q    Type
REMARK                         _______ _______ _______ _____ _____    ______ ____
ROOT
ATOM     10  C   UNL     1       7.166  32.857  60.605  0.00  0.00    +0.038 A 
ATOM     11  C   UNL     1       7.440  34.205  60.260  0.00  0.00    +0.047 A 
ATOM     12  C   UNL     1       7.799  35.183  61.276  0.00  0.00    +0.035 A 
ATOM     32  C   UNL     1       7.872  34.752  62.633  0.00  0.00    +0.024 A 
ATOM     33  C   UNL     1       7.595  33.386  63.000  0.00  0.00    +0.007 A 
ATOM     34  C   UNL     1       7.239  32.418  62.004  0.00  0.00    -0.029 A 
ATOM     35  C   UNL     1       6.946  30.968  62.456  0.00  0.00    +0.045 C 
ENDROOT
BRANCH  10   9
ATOM      4  C   UNL     1       8.270  30.183  56.775  0.00  0.00    +0.077 A 
ATOM      5  C   UNL     1       9.633  30.631  56.781  0.00  0.00    +0.048 A 
ATOM      6  C   UNL     1      10.008  31.556  57.782  0.00  0.00    +0.116 A 
ATOM      7  N   UNL     1       9.080  31.992  58.703  0.00  0.00    -0.223 NA
ATOM      8  C   UNL     1       7.773  31.541  58.668  0.00  0.00    +0.220 A 
ATOM      9  N   UNL     1       6.826  31.960  59.589  0.00  0.00    -0.283 N 
ATOM     36  H   UNL     1       5.871  31.609  59.525  0.00  0.00    +0.155 HD
ATOM     37  N   UNL     1       7.391  30.659  57.721  0.00  0.00    -0.214 NA
BRANCH   4   3
ATOM      1  C   UNL     1       7.919  27.768  53.718  0.00  0.00    +0.020 A 
ATOM      2  C   UNL     1       8.494  28.713  54.647  0.00  0.00    +0.013 A 
ATOM      3  C   UNL     1       7.723  29.205  55.782  0.00  0.00    +0.019 A 
ATOM     38  C   UNL     1       6.363  28.716  55.950  0.00  0.00    +0.120 A 
ATOM     39  N   UNL     1       5.835  27.808  55.038  0.00  0.00    -0.263 NA
ATOM     40  C   UNL     1       6.566  27.329  53.941  0.00  0.00    +0.111 A 
ENDBRANCH   4   3
ENDBRANCH  10   9
BRANCH  12  13
ATOM     13  N   UNL     1       8.080  36.567  60.987  0.00  0.00    -0.281 N 
ATOM     14  C   UNL     1       7.660  37.686  61.688  0.00  0.00    +0.248 C 
ATOM     30  O   UNL     1       6.797  37.676  62.553  0.00  0.00    -0.270 OA
ATOM     31  H   UNL     1       8.659  36.744  60.166  0.00  0.00    +0.155 HD
BRANCH  14  15
ATOM     15  C   UNL     1       8.278  39.010  61.373  0.00  0.00    +0.037 A 
ATOM     16  C   UNL     1       8.537  39.417  59.990  0.00  0.00    +0.013 A 
ATOM     17  C   UNL     1       9.150  40.693  59.714  0.00  0.00    +0.005 A 
ATOM     18  C   UNL     1       9.507  41.571  60.826  0.00  0.00    -0.033 A 
ATOM     28  C   UNL     1       9.234  41.144  62.188  0.00  0.00    +0.005 A 
ATOM     29  C   UNL     1       8.634  39.894  62.462  0.00  0.00    +0.013 A 
BRANCH  18  19
ATOM     19  C   UNL     1      10.184  42.940  60.627  0.00  0.00    +0.119 C 
BRANCH  19  20
ATOM     20  N   UNL     1      11.436  42.972  59.814  0.00  0.00    -0.302 NA
ATOM     21  C   UNL     1      12.691  42.945  60.690  0.00  0.00    +0.066 C 
ATOM     22  C   UNL     1      13.992  42.956  59.823  0.00  0.00    -0.064 C 
ATOM     23  N   UNL     1      13.988  44.190  58.919  0.00  0.00    +0.379 N 
ATOM     24  C   UNL     1      15.237  44.235  58.144  0.00  0.00    -0.096 C 
ATOM     25  H   UNL     1      13.966  45.091  59.576  0.00  0.00    -0.082 HD
ATOM     26  C   UNL     1      12.742  44.226  58.046  0.00  0.00    -0.064 C 
ATOM     27  C   UNL     1      11.455  44.185  58.917  0.00  0.00    +0.066 C 
ENDBRANCH  19  20
ENDBRANCH  18  19
ENDBRANCH  14  15
ENDBRANCH  12  13
TORSDOF 6
ENDMDL
MODEL 3
REMARK VINA RESULT:      -9.1     12.385     14.480
REMARK  Name = C:\Users\Docking\Desktop\test protocol\1iep_ligandH.pdb
REMARK  8 active torsions:
REMARK  status: ('A' for Active; 'I' for Inactive)
REMARK    1  A    between atoms: _5  and  _11
REMARK    2  A    between atoms: _19  and  _21
REMARK    3  A    between atoms: _22  and  _66
REMARK    4  A    between atoms: _27  and  _30
REMARK    5  A    between atoms: _32  and  _33
REMARK    6  A    between atoms: _38  and  _43
REMARK    7  A    between atoms: _43  and  _46
REMARK    8  A    between atoms: _53  and  _55
REMARK                            x       y       z     vdW  Elec       q    Type
REMARK                         _______ _______ _______ _____ _____    ______ ____
ROOT
ATOM     10  C   UNL     1      11.099  26.134  52.813  0.00  0.00    +0.038 A 
ATOM     11  C   UNL     1      12.006  26.959  52.101  0.00  0.00    +0.047 A 
ATOM     12  C   UNL     1      11.637  28.304  51.689  0.00  0.00    +0.035 A 
ATOM     32  C   UNL     1      10.335  28.779  52.023  0.00  0.00    +0.024 A 
ATOM     33  C   UNL     1       9.399  27.954  52.746  0.00  0.00    +0.007 A 
ATOM     34  C   UNL     1       9.757  26.625  53.152  0.00  0.00    -0.029 A 
ATOM     35  C   UNL     1       8.712  25.783  53.920  0.00  0.00    +0.045 C 
ENDROOT
BRANCH  10   9
ATOM      4  C   UNL     1      11.847  21.490  51.858  0.00  0.00    +0.077 A 
ATOM      5  C   UNL     1      11.360  21.627  50.516  0.00  0.00    +0.048 A 
ATOM      6  C   UNL     1      10.919  22.908  50.113  0.00  0.00    +0.116 A 
ATOM      7  N   UNL     1      10.967  23.965  50.994  0.00  0.00    -0.223 NA
ATOM      8  C   UNL     1      11.441  23.799  52.283  0.00  0.00    +0.220 A 
ATOM      9  N   UNL     1      11.506  24.850  53.184  0.00  0.00    -0.283 N 
ATOM     36  H   UNL     1      11.855  24.685  54.128  0.00  0.00    +0.155 HD
ATOM     37  N   UNL     1      11.866  22.586  52.692  0.00  0.00    -0.214 NA
BRANCH   4   3
ATOM      1  C   UNL     1      14.155  18.484  52.826  0.00  0.00    +0.020 A 
ATOM      2  C   UNL     1      13.719  19.736  52.251  0.00  0.00    +0.013 A 
ATOM      3  C   UNL     1      12.350  20.202  52.431  0.00  0.00    +0.019 A 
ATOM     38  C   UNL     1      11.440  19.371  53.204  0.00  0.00    +0.120 A 
ATOM     39  N   UNL     1      11.887  18.169  53.745  0.00  0.00    -0.263 NA
ATOM     40  C   UNL     1      13.202  17.710  53.577  0.00  0.00    +0.111 A 
ENDBRANCH   4   3
ENDBRANCH  10   9
BRANCH  12  13
ATOM     13  N   UNL     1      12.513  29.184  50.956  0.00  0.00    -0.281 N 
ATOM     14  C   UNL     1      12.837  29.136  49.610  0.00  0.00    +0.248 C 
ATOM     30  O   UNL     1      12.587  28.195  48.872  0.00  0.00    -0.270 OA
ATOM     31  H   UNL     1      12.947  29.933  51.496  0.00  0.00    +0.155 HD
BRANCH  14  15
ATOM     15  C   UNL     1      13.555  30.296  48.999  0.00  0.00    +0.037 A 
ATOM     16  C   UNL     1      13.660  31.579  49.698  0.00  0.00    +0.013 A 
ATOM     17  C   UNL     1      14.344  32.686  49.079  0.00  0.00    +0.005 A 
ATOM     18  C   UNL     1      14.929  32.515  47.751  0.00  0.00    -0.033 A 
ATOM     28  C   UNL     1      14.813  31.229  47.082  0.00  0.00    +0.005 A 
ATOM     29  C   UNL     1      14.144  30.142  47.686  0.00  0.00    +0.013 A 
BRANCH  18  19
ATOM     19  C   UNL     1      15.657  33.648  47.005  0.00  0.00    +0.119 C 
BRANCH  19  20
ATOM     20  N   UNL     1      14.820  34.760  46.465  0.00  0.00    -0.302 NA
ATOM     21  C   UNL     1      14.262  35.652  47.577  0.00  0.00    +0.066 C 
ATOM     22  C   UNL     1      13.407  36.823  46.993  0.00  0.00    -0.064 C 
ATOM     23  N   UNL     1      12.274  36.248  46.141  0.00  0.00    +0.379 N 
ATOM     24  C   UNL     1      11.434  37.344  45.637  0.00  0.00    -0.096 C 
ATOM     25  H   UNL     1      11.641  35.613  46.804  0.00  0.00    -0.082 HD
ATOM     26  C   UNL     1      12.820  35.358  45.033  0.00  0.00    -0.064 C 
ATOM     27  C   UNL     1      13.692  34.214  45.623  0.00  0.00    +0.066 C 
ENDBRANCH  19  20
ENDBRANCH  18  19
ENDBRANCH  14  15
ENDBRANCH  12  13
TORSDOF 6
ENDMDL
MODEL 4
REMARK VINA RESULT:      -9.0     27.278     29.067
REMARK  Name = C:\Users\Docking\Desktop\test protocol\1iep_ligandH.pdb
REMARK  8 active torsions:
REMARK  status: ('A' for Active; 'I' for Inactive)
REMARK    1  A    between atoms: _5  and  _11
REMARK    2  A    between atoms: _19  and  _21
REMARK    3  A    between atoms: _22  and  _66
REMARK    4  A    between atoms: _27  and  _30
REMARK    5  A    between atoms: _32  and  _33
REMARK    6  A    between atoms: _38  and  _43
REMARK    7  A    between atoms: _43  and  _46
REMARK    8  A    between atoms: _53  and  _55
REMARK                            x       y       z     vdW  Elec       q    Type
REMARK                         _______ _______ _______ _____ _____    ______ ____
ROOT
ATOM     10  C   UNL     1      35.887  28.710  72.429  0.00  0.00    +0.038 A 
ATOM     11  C   UNL     1      36.267  29.223  71.163  0.00  0.00    +0.047 A 
ATOM     12  C   UNL     1      36.893  30.530  71.037  0.00  0.00    +0.035 A 
ATOM     32  C   UNL     1      37.119  31.287  72.224  0.00  0.00    +0.024 A 
ATOM     33  C   UNL     1      36.738  30.782  73.519  0.00  0.00    +0.007 A 
ATOM     34  C   UNL     1      36.118  29.494  73.649  0.00  0.00    -0.029 A 
ATOM     35  C   UNL     1      35.724  29.005  75.062  0.00  0.00    +0.045 C 
ENDROOT
BRANCH  10   9
ATOM      4  C   UNL     1      32.269  25.690  71.520  0.00  0.00    +0.077 A 
ATOM      5  C   UNL     1      31.490  26.718  70.892  0.00  0.00    +0.048 A 
ATOM      6  C   UNL     1      32.054  28.012  70.830  0.00  0.00    +0.116 A 
ATOM      7  N   UNL     1      33.304  28.249  71.359  0.00  0.00    -0.223 NA
ATOM      8  C   UNL     1      34.028  27.235  71.960  0.00  0.00    +0.220 A 
ATOM      9  N   UNL     1      35.290  27.449  72.492  0.00  0.00    -0.283 N 
ATOM     36  H   UNL     1      35.789  26.676  72.933  0.00  0.00    +0.155 HD
ATOM     37  N   UNL     1      33.511  25.991  72.033  0.00  0.00    -0.214 NA
BRANCH   4   3
ATOM      1  C   UNL     1      30.611  22.216  70.824  0.00  0.00    +0.020 A 
ATOM      2  C   UNL     1      31.028  23.587  70.640  0.00  0.00    +0.013 A 
ATOM      3  C   UNL     1      31.811  24.271  71.661  0.00  0.00    +0.019 A 
ATOM     38  C   UNL     1      32.159  23.534  72.866  0.00  0.00    +0.120 A 
ATOM     39  N   UNL     1      31.743  22.215  73.016  0.00  0.00    -0.263 NA
ATOM     40  C   UNL     1      30.987  21.547  72.041  0.00  0.00    +0.111 A 
ENDBRANCH   4   3
ENDBRANCH  10   9
BRANCH  12  13
ATOM     13  N   UNL     1      37.292  31.106  69.778  0.00  0.00    -0.281 N 
ATOM     14  C   UNL     1      36.482  31.646  68.792  0.00  0.00    +0.248 C 
ATOM     30  O   UNL     1      35.267  31.521  68.752  0.00  0.00    -0.270 OA
ATOM     31  H   UNL     1      38.295  31.118  69.589  0.00  0.00    +0.155 HD
BRANCH  14  15
ATOM     15  C   UNL     1      37.113  32.425  67.684  0.00  0.00    +0.037 A 
ATOM     16  C   UNL     1      36.393  32.693  66.437  0.00  0.00    +0.013 A 
ATOM     17  C   UNL     1      37.032  33.432  65.377  0.00  0.00    +0.005 A 
ATOM     18  C   UNL     1      38.400  33.912  65.562  0.00  0.00    -0.033 A 
ATOM     28  C   UNL     1      39.089  33.637  66.812  0.00  0.00    +0.005 A 
ATOM     29  C   UNL     1      38.467  32.911  67.852  0.00  0.00    +0.013 A 
BRANCH  18  19
ATOM     19  C   UNL     1      39.167  34.690  64.477  0.00  0.00    +0.119 C 
BRANCH  19  20
ATOM     20  N   UNL     1      39.470  36.127  64.752  0.00  0.00    -0.302 NA
ATOM     21  C   UNL     1      38.198  36.975  64.845  0.00  0.00    +0.066 C 
ATOM     22  C   UNL     1      38.532  38.470  65.156  0.00  0.00    -0.064 C 
ATOM     23  N   UNL     1      39.469  39.015  64.075  0.00  0.00    +0.379 N 
ATOM     24  C   UNL     1      39.738  40.437  64.332  0.00  0.00    -0.096 C 
ATOM     25  H   UNL     1      38.936  38.943  63.099  0.00  0.00    -0.082 HD
ATOM     26  C   UNL     1      40.735  38.176  63.974  0.00  0.00    -0.064 C 
ATOM     27  C   UNL     1      40.390  36.687  63.695  0.00  0.00    +0.066 C 
ENDBRANCH  19  20
ENDBRANCH  18  19
ENDBRANCH  14  15
ENDBRANCH  12  13
TORSDOF 6
ENDMDL
MODEL 5
REMARK VINA RESULT:      -9.0     12.407     14.895
REMARK  Name = C:\Users\Docking\Desktop\test protocol\1iep_ligandH.pdb
REMARK  8 active torsions:
REMARK  status: ('A' for Active; 'I' for Inactive)
REMARK    1  A    between atoms: _5  and  _11
REMARK    2  A    between atoms: _19  and  _21
REMARK    3  A    between atoms: _22  and  _66
REMARK    4  A    between atoms: _27  and  _30
REMARK    5  A    between atoms: _32  and  _33
REMARK    6  A    between atoms: _38  and  _43
REMARK    7  A    between atoms: _43  and  _46
REMARK    8  A    between atoms: _53  and  _55
REMARK                            x       y       z     vdW  Elec       q    Type
REMARK                         _______ _______ _______ _____ _____    ______ ____
ROOT
ATOM     10  C   UNL     1      10.762  24.667  53.565  0.00  0.00    +0.038 A 
ATOM     11  C   UNL     1      11.600  25.396  52.683  0.00  0.00    +0.047 A 
ATOM     12  C   UNL     1      11.286  26.765  52.306  0.00  0.00    +0.035 A 
ATOM     32  C   UNL     1      10.111  27.362  52.848  0.00  0.00    +0.024 A 
ATOM     33  C   UNL     1       9.247  26.635  53.745  0.00  0.00    +0.007 A 
ATOM     34  C   UNL     1       9.551  25.284  54.119  0.00  0.00    -0.029 A 
ATOM     35  C   UNL     1       8.586  24.550  55.079  0.00  0.00    +0.045 C 
ENDROOT
BRANCH  10   9
ATOM      4  C   UNL     1      10.657  19.934  52.773  0.00  0.00    +0.077 A 
ATOM      5  C   UNL     1       9.811  20.085  51.624  0.00  0.00    +0.048 A 
ATOM      6  C   UNL     1       9.420  21.397  51.275  0.00  0.00    +0.116 A 
ATOM      7  N   UNL     1       9.849  22.470  52.025  0.00  0.00    -0.223 NA
ATOM      8  C   UNL     1      10.662  22.289  53.128  0.00  0.00    +0.220 A 
ATOM      9  N   UNL     1      11.112  23.355  53.893  0.00  0.00    -0.283 N 
ATOM     36  H   UNL     1      11.705  23.179  54.703  0.00  0.00    +0.155 HD
ATOM     37  N   UNL     1      11.049  21.046  53.484  0.00  0.00    -0.214 NA
BRANCH   4   3
ATOM      1  C   UNL     1      10.818  16.343  54.317  0.00  0.00    +0.020 A 
ATOM      2  C   UNL     1      10.284  17.604  53.856  0.00  0.00    +0.013 A 
ATOM      3  C   UNL     1      11.157  18.612  53.267  0.00  0.00    +0.019 A 
ATOM     38  C   UNL     1      12.576  18.310  53.157  0.00  0.00    +0.120 A 
ATOM     39  N   UNL     1      13.062  17.087  53.610  0.00  0.00    -0.263 NA
ATOM     40  C   UNL     1      12.232  16.111  54.181  0.00  0.00    +0.111 A 
ENDBRANCH   4   3
ENDBRANCH  10   9
BRANCH  12  13
ATOM     13  N   UNL     1      12.095  27.552  51.408  0.00  0.00    -0.281 N 
ATOM     14  C   UNL     1      11.883  27.792  50.060  0.00  0.00    +0.248 C 
ATOM     30  O   UNL     1      11.077  27.188  49.369  0.00  0.00    -0.270 OA
ATOM     31  H   UNL     1      12.924  27.984  51.816  0.00  0.00    +0.155 HD
BRANCH  14  15
ATOM     15  C   UNL     1      12.695  28.846  49.379  0.00  0.00    +0.037 A 
ATOM     16  C   UNL     1      13.032  28.745  47.957  0.00  0.00    +0.013 A 
ATOM     17  C   UNL     1      13.831  29.767  47.328  0.00  0.00    +0.005 A 
ATOM     18  C   UNL     1      14.297  30.901  48.122  0.00  0.00    -0.033 A 
ATOM     28  C   UNL     1      13.944  30.979  49.530  0.00  0.00    +0.005 A 
ATOM     29  C   UNL     1      13.162  29.979  50.150  0.00  0.00    +0.013 A 
BRANCH  18  19
ATOM     19  C   UNL     1      15.172  32.027  47.539  0.00  0.00    +0.119 C 
BRANCH  19  20
ATOM     20  N   UNL     1      14.491  33.307  47.184  0.00  0.00    -0.302 NA
ATOM     21  C   UNL     1      14.809  33.750  45.753  0.00  0.00    +0.066 C 
ATOM     22  C   UNL     1      14.071  35.079  45.391  0.00  0.00    -0.064 C 
ATOM     23  N   UNL     1      14.462  36.166  46.393  0.00  0.00    +0.379 N 
ATOM     24  C   UNL     1      13.815  37.433  46.021  0.00  0.00    -0.096 C 
ATOM     25  H   UNL     1      15.564  36.315  46.318  0.00  0.00    -0.082 HD
ATOM     26  C   UNL     1      14.151  35.733  47.819  0.00  0.00    -0.064 C 
ATOM     27  C   UNL     1      14.866  34.396  48.159  0.00  0.00    +0.066 C 
ENDBRANCH  19  20
ENDBRANCH  18  19
ENDBRANCH  14  15
ENDBRANCH  12  13
TORSDOF 6
ENDMDL
