MODEL 1
REMARK VINA RESULT:      -6.6      0.000      0.000
REMARK  Name = C:\Users\Docking\Desktop\test protocol\1iep_ligandH.pdb
REMARK  8 active torsions:
REMARK  status: ('A' for Active; 'I' for Inactive)
REMARK    1  A    between atoms: _5  and  _11
REMARK    2  A    between atoms: _19  and  _21
REMARK    3  A    between atoms: _22  and  _66
REMARK    4  A    between atoms: _27  and  _30
REMARK    5  A    between atoms: _32  and  _33
REMARK    6  A    between atoms: _38  and  _43
REMARK    7  A    between atoms: _43  and  _46
REMARK    8  A    between atoms: _53  and  _55
REMARK                            x       y       z     vdW  Elec       q    Type
REMARK                         _______ _______ _______ _____ _____    ______ ____
ROOT
ATOM     10  C   UNL     1     -30.506 -47.998  86.962  0.00  0.00    +0.038 A 
ATOM     11  C   UNL     1     -29.701 -46.836  86.842  0.00  0.00    +0.047 A 
ATOM     12  C   UNL     1     -29.691 -45.817  87.880  0.00  0.00    +0.035 A 
ATOM     32  C   UNL     1     -30.511 -46.016  89.029  0.00  0.00    +0.024 A 
ATOM     33  C   UNL     1     -31.336 -47.190  89.167  0.00  0.00    +0.007 A 
ATOM     34  C   UNL     1     -31.352 -48.197  88.145  0.00  0.00    -0.029 A 
ATOM     35  C   UNL     1     -32.261 -49.433  88.343  0.00  0.00    +0.045 C 
ENDROOT
BRANCH  10   9
ATOM      4  C   UNL     1     -31.430 -49.391  82.463  0.00  0.00    +0.077 A 
ATOM      5  C   UNL     1     -32.047 -48.137  82.139  0.00  0.00    +0.048 A 
ATOM      6  C   UNL     1     -32.113 -47.163  83.160  0.00  0.00    +0.116 A 
ATOM      7  N   UNL     1     -31.596 -47.433  84.409  0.00  0.00    -0.223 NA
ATOM      8  C   UNL     1     -31.010 -48.654  84.689  0.00  0.00    +0.220 A 
ATOM      9  N   UNL     1     -30.477 -48.944  85.935  0.00  0.00    -0.283 N 
ATOM     36  H   UNL     1     -30.059 -49.859  86.104  0.00  0.00    +0.155 HD
ATOM     37  N   UNL     1     -30.936 -49.601  83.731  0.00  0.00    -0.214 NA
BRANCH   4   3
ATOM      1  C   UNL     1     -30.875 -51.436  79.176  0.00  0.00    +0.020 A 
ATOM      2  C   UNL     1     -31.009 -50.312  80.073  0.00  0.00    +0.013 A 
ATOM      3  C   UNL     1     -31.282 -50.519  81.490  0.00  0.00    +0.019 A 
ATOM     38  C   UNL     1     -31.414 -51.886  81.970  0.00  0.00    +0.120 A 
ATOM     39  N   UNL     1     -31.281 -52.949  81.082  0.00  0.00    -0.263 NA
ATOM     40  C   UNL     1     -31.020 -52.762  79.716  0.00  0.00    +0.111 A 
ENDBRANCH   4   3
ENDBRANCH  10   9
BRANCH  12  13
ATOM     13  N   UNL     1     -28.901 -44.613  87.810  0.00  0.00    -0.281 N 
ATOM     14  C   UNL     1     -29.270 -43.382  87.294  0.00  0.00    +0.248 C 
ATOM     30  O   UNL     1     -30.269 -43.187  86.618  0.00  0.00    -0.270 OA
ATOM     31  H   UNL     1     -27.955 -44.677  88.185  0.00  0.00    +0.155 HD
BRANCH  14  15
ATOM     15  C   UNL     1     -28.395 -42.198  87.556  0.00  0.00    +0.037 A 
ATOM     16  C   UNL     1     -26.955 -42.245  87.294  0.00  0.00    +0.013 A 
ATOM     17  C   UNL     1     -26.131 -41.095  87.571  0.00  0.00    +0.005 A 
ATOM     18  C   UNL     1     -26.748 -39.887  88.113  0.00  0.00    -0.033 A 
ATOM     28  C   UNL     1     -28.180 -39.866  88.359  0.00  0.00    +0.005 A 
ATOM     29  C   UNL     1     -28.990 -40.991  88.089  0.00  0.00    +0.013 A 
BRANCH  18  19
ATOM     19  C   UNL     1     -25.943 -38.620  88.459  0.00  0.00    +0.119 C 
BRANCH  19  20
ATOM     20  N   UNL     1     -25.543 -38.432  89.885  0.00  0.00    -0.302 NA
ATOM     21  C   UNL     1     -25.477 -39.761  90.643  0.00  0.00    +0.066 C 
ATOM     22  C   UNL     1     -25.035 -39.549  92.128  0.00  0.00    -0.064 C 
ATOM     23  N   UNL     1     -26.003 -38.582  92.812  0.00  0.00    +0.379 N 
ATOM     24  C   UNL     1     -25.624 -38.425  94.224  0.00  0.00    -0.096 C 
ATOM     25  H   UNL     1     -27.018 -39.043  92.783  0.00  0.00    -0.082 HD
ATOM     26  C   UNL     1     -26.076 -37.259  92.063  0.00  0.00    -0.064 C 
ATOM     27  C   UNL     1     -26.488 -37.484  90.581  0.00  0.00    +0.066 C 
ENDBRANCH  19  20
ENDBRANCH  18  19
ENDBRANCH  14  15
ENDBRANCH  12  13
TORSDOF 6
ENDMDL
MODEL 2
REMARK VINA RESULT:      -6.5      2.515      3.466
REMARK  Name = C:\Users\Docking\Desktop\test protocol\1iep_ligandH.pdb
REMARK  8 active torsions:
REMARK  status: ('A' for Active; 'I' for Inactive)
REMARK    1  A    between atoms: _5  and  _11
REMARK    2  A    between atoms: _19  and  _21
REMARK    3  A    between atoms: _22  and  _66
REMARK    4  A    between atoms: _27  and  _30
REMARK    5  A    between atoms: _32  and  _33
REMARK    6  A    between atoms: _38  and  _43
REMARK    7  A    between atoms: _43  and  _46
REMARK    8  A    between atoms: _53  and  _55
REMARK                            x       y       z     vdW  Elec       q    Type
REMARK                         _______ _______ _______ _____ _____    ______ ____
ROOT
ATOM     10  C   UNL     1     -32.588 -45.589  84.918  0.00  0.00    +0.038 A 
ATOM     11  C   UNL     1     -31.526 -45.223  85.784  0.00  0.00    +0.047 A 
ATOM     12  C   UNL     1     -31.155 -43.829  85.973  0.00  0.00    +0.035 A 
ATOM     32  C   UNL     1     -31.890 -42.833  85.266  0.00  0.00    +0.024 A 
ATOM     33  C   UNL     1     -32.972 -43.187  84.381  0.00  0.00    +0.007 A 
ATOM     34  C   UNL     1     -33.340 -44.560  84.189  0.00  0.00    -0.029 A 
ATOM     35  C   UNL     1     -34.504 -44.882  83.223  0.00  0.00    +0.045 C 
ENDROOT
BRANCH  10   9
ATOM      4  C   UNL     1     -32.339 -49.763  82.562  0.00  0.00    +0.077 A 
ATOM      5  C   UNL     1     -31.539 -49.192  81.516  0.00  0.00    +0.048 A 
ATOM      6  C   UNL     1     -31.220 -47.820  81.618  0.00  0.00    +0.116 A 
ATOM      7  N   UNL     1     -31.672 -47.082  82.691  0.00  0.00    -0.223 NA
ATOM      8  C   UNL     1     -32.442 -47.663  83.682  0.00  0.00    +0.220 A 
ATOM      9  N   UNL     1     -32.901 -46.942  84.774  0.00  0.00    -0.283 N 
ATOM     36  H   UNL     1     -33.473 -47.405  85.479  0.00  0.00    +0.155 HD
ATOM     37  N   UNL     1     -32.762 -48.972  83.606  0.00  0.00    -0.214 NA
BRANCH   4   3
ATOM      1  C   UNL     1     -32.448 -53.633  82.006  0.00  0.00    +0.020 A 
ATOM      2  C   UNL     1     -32.001 -52.261  81.941  0.00  0.00    +0.013 A 
ATOM      3  C   UNL     1     -32.756 -51.200  82.597  0.00  0.00    +0.019 A 
ATOM     38  C   UNL     1     -33.967 -51.565  83.317  0.00  0.00    +0.120 A 
ATOM     39  N   UNL     1     -34.373 -52.895  83.361  0.00  0.00    -0.263 NA
ATOM     40  C   UNL     1     -33.656 -53.924  82.732  0.00  0.00    +0.111 A 
ENDBRANCH   4   3
ENDBRANCH  10   9
BRANCH  12  13
ATOM     13  N   UNL     1     -30.081 -43.398  86.833  0.00  0.00    -0.281 N 
ATOM     14  C   UNL     1     -28.839 -43.986  87.004  0.00  0.00    +0.248 C 
ATOM     30  O   UNL     1     -28.540 -45.101  86.601  0.00  0.00    -0.270 OA
ATOM     31  H   UNL     1     -30.258 -42.557  87.382  0.00  0.00    +0.155 HD
BRANCH  14  15
ATOM     15  C   UNL     1     -27.779 -43.234  87.743  0.00  0.00    +0.037 A 
ATOM     16  C   UNL     1     -27.096 -42.090  87.135  0.00  0.00    +0.013 A 
ATOM     17  C   UNL     1     -26.065 -41.393  87.863  0.00  0.00    +0.005 A 
ATOM     18  C   UNL     1     -25.713 -41.838  89.209  0.00  0.00    -0.033 A 
ATOM     28  C   UNL     1     -26.410 -42.973  89.790  0.00  0.00    +0.005 A 
ATOM     29  C   UNL     1     -27.420 -43.660  89.079  0.00  0.00    +0.013 A 
BRANCH  18  19
ATOM     19  C   UNL     1     -24.611 -41.167  90.050  0.00  0.00    +0.119 C 
BRANCH  19  20
ATOM     20  N   UNL     1     -24.690 -41.328  91.533  0.00  0.00    -0.302 NA
ATOM     21  C   UNL     1     -24.851 -39.984  92.249  0.00  0.00    +0.066 C 
ATOM     22  C   UNL     1     -24.954 -40.174  93.798  0.00  0.00    -0.064 C 
ATOM     23  N   UNL     1     -23.712 -40.911  94.302  0.00  0.00    +0.379 N 
ATOM     24  C   UNL     1     -23.778 -41.039  95.765  0.00  0.00    -0.096 C 
ATOM     25  H   UNL     1     -22.824 -40.283  94.058  0.00  0.00    -0.082 HD
ATOM     26  C   UNL     1     -23.543 -42.247  93.593  0.00  0.00    -0.064 C 
ATOM     27  C   UNL     1     -23.471 -42.050  92.053  0.00  0.00    +0.066 C 
ENDBRANCH  19  20
ENDBRANCH  18  19
ENDBRANCH  14  15
ENDBRANCH  12  13
TORSDOF 6
ENDMDL
MODEL 3
REMARK VINA RESULT:      -6.4     16.540     19.926
REMARK  Name = C:\Users\Docking\Desktop\test protocol\1iep_ligandH.pdb
REMARK  8 active torsions:
REMARK  status: ('A' for Active; 'I' for Inactive)
REMARK    1  A    between atoms: _5  and  _11
REMARK    2  A    between atoms: _19  and  _21
REMARK    3  A    between atoms: _22  and  _66
REMARK    4  A    between atoms: _27  and  _30
REMARK    5  A    between atoms: _32  and  _33
REMARK    6  A    between atoms: _38  and  _43
REMARK    7  A    between atoms: _43  and  _46
REMARK    8  A    between atoms: _53  and  _55
REMARK                            x       y       z     vdW  Elec       q    Type
REMARK                         _______ _______ _______ _____ _____    ______ ____
ROOT
ATOM     10  C   UNL     1     -20.850 -30.287  89.142  0.00  0.00    +0.038 A 
ATOM     11  C   UNL     1     -21.216 -30.251  87.772  0.00  0.00    +0.047 A 
ATOM     12  C   UNL     1     -22.217 -29.315  87.285  0.00  0.00    +0.035 A 
ATOM     32  C   UNL     1     -22.823 -28.427  88.220  0.00  0.00    +0.024 A 
ATOM     33  C   UNL     1     -22.463 -28.450  89.617  0.00  0.00    +0.007 A 
ATOM     34  C   UNL     1     -21.479 -29.374  90.103  0.00  0.00    -0.029 A 
ATOM     35  C   UNL     1     -21.137 -29.359  91.611  0.00  0.00    +0.045 C 
ENDROOT
BRANCH  10   9
ATOM      4  C   UNL     1     -16.287 -31.657  89.725  0.00  0.00    +0.077 A 
ATOM      5  C   UNL     1     -15.787 -30.450  89.132  0.00  0.00    +0.048 A 
ATOM      6  C   UNL     1     -16.737 -29.505  88.684  0.00  0.00    +0.116 A 
ATOM      7  N   UNL     1     -18.084 -29.759  88.823  0.00  0.00    -0.223 NA
ATOM      8  C   UNL     1     -18.533 -30.934  89.397  0.00  0.00    +0.220 A 
ATOM      9  N   UNL     1     -19.883 -31.207  89.554  0.00  0.00    -0.283 N 
ATOM     36  H   UNL     1     -20.174 -32.088  89.976  0.00  0.00    +0.155 HD
ATOM     37  N   UNL     1     -17.645 -31.853  89.832  0.00  0.00    -0.214 NA
BRANCH   4   3
ATOM      1  C   UNL     1     -14.979 -35.139  90.936  0.00  0.00    +0.020 A 
ATOM      2  C   UNL     1     -15.868 -34.121  90.426  0.00  0.00    +0.013 A 
ATOM      3  C   UNL     1     -15.408 -32.749  90.249  0.00  0.00    +0.019 A 
ATOM     38  C   UNL     1     -14.030 -32.438  90.601  0.00  0.00    +0.120 A 
ATOM     39  N   UNL     1     -13.197 -33.439  91.091  0.00  0.00    -0.263 NA
ATOM     40  C   UNL     1     -13.630 -34.762  91.267  0.00  0.00    +0.111 A 
ENDBRANCH   4   3
ENDBRANCH  10   9
BRANCH  12  13
ATOM     13  N   UNL     1     -22.635 -29.238  85.907  0.00  0.00    -0.281 N 
ATOM     14  C   UNL     1     -23.509 -30.076  85.234  0.00  0.00    +0.248 C 
ATOM     30  O   UNL     1     -23.901 -31.151  85.661  0.00  0.00    -0.270 OA
ATOM     31  H   UNL     1     -22.238 -28.472  85.361  0.00  0.00    +0.155 HD
BRANCH  14  15
ATOM     15  C   UNL     1     -24.008 -29.666  83.886  0.00  0.00    +0.037 A 
ATOM     16  C   UNL     1     -23.556 -28.425  83.253  0.00  0.00    +0.013 A 
ATOM     17  C   UNL     1     -24.066 -28.045  81.960  0.00  0.00    +0.005 A 
ATOM     18  C   UNL     1     -25.034 -28.910  81.289  0.00  0.00    -0.033 A 
ATOM     28  C   UNL     1     -25.461 -30.138  81.938  0.00  0.00    +0.005 A 
ATOM     29  C   UNL     1     -24.964 -30.513  83.206  0.00  0.00    +0.013 A 
BRANCH  18  19
ATOM     19  C   UNL     1     -25.647 -28.573  79.917  0.00  0.00    +0.119 C 
BRANCH  19  20
ATOM     20  N   UNL     1     -26.933 -29.243  79.560  0.00  0.00    -0.302 NA
ATOM     21  C   UNL     1     -26.858 -29.943  78.200  0.00  0.00    +0.066 C 
ATOM     22  C   UNL     1     -28.204 -30.658  77.852  0.00  0.00    -0.064 C 
ATOM     23  N   UNL     1     -29.341 -29.635  77.873  0.00  0.00    +0.379 N 
ATOM     24  C   UNL     1     -30.599 -30.293  77.489  0.00  0.00    -0.096 C 
ATOM     25  H   UNL     1     -29.115 -28.862  77.102  0.00  0.00    -0.082 HD
ATOM     26  C   UNL     1     -29.422 -28.932  79.220  0.00  0.00    -0.064 C 
ATOM     27  C   UNL     1     -28.070 -28.250  79.570  0.00  0.00    +0.066 C 
ENDBRANCH  19  20
ENDBRANCH  18  19
ENDBRANCH  14  15
ENDBRANCH  12  13
TORSDOF 6
ENDMDL
MODEL 4
REMARK VINA RESULT:      -6.3     18.393     19.875
REMARK  Name = C:\Users\Docking\Desktop\test protocol\1iep_ligandH.pdb
REMARK  8 active torsions:
REMARK  status: ('A' for Active; 'I' for Inactive)
REMARK    1  A    between atoms: _5  and  _11
REMARK    2  A    between atoms: _19  and  _21
REMARK    3  A    between atoms: _22  and  _66
REMARK    4  A    between atoms: _27  and  _30
REMARK    5  A    between atoms: _32  and  _33
REMARK    6  A    between atoms: _38  and  _43
REMARK    7  A    between atoms: _43  and  _46
REMARK    8  A    between atoms: _53  and  _55
REMARK                            x       y       z     vdW  Elec       q    Type
REMARK                         _______ _______ _______ _____ _____    ______ ____
ROOT
ATOM     10  C   UNL     1     -33.503 -31.184  74.076  0.00  0.00    +0.038 A 
ATOM     11  C   UNL     1     -32.183 -30.871  74.489  0.00  0.00    +0.047 A 
ATOM     12  C   UNL     1     -31.937 -30.058  75.670  0.00  0.00    +0.035 A 
ATOM     32  C   UNL     1     -33.060 -29.581  76.408  0.00  0.00    +0.024 A 
ATOM     33  C   UNL     1     -34.408 -29.888  76.001  0.00  0.00    +0.007 A 
ATOM     34  C   UNL     1     -34.657 -30.688  74.836  0.00  0.00    -0.029 A 
ATOM     35  C   UNL     1     -36.124 -30.981  74.443  0.00  0.00    +0.045 C 
ENDROOT
BRANCH  10   9
ATOM      4  C   UNL     1     -34.129 -31.694  69.344  0.00  0.00    +0.077 A 
ATOM      5  C   UNL     1     -34.128 -30.276  69.131  0.00  0.00    +0.048 A 
ATOM      6  C   UNL     1     -33.970 -29.449  70.267  0.00  0.00    +0.116 A 
ATOM      7  N   UNL     1     -33.826 -30.011  71.517  0.00  0.00    -0.223 NA
ATOM      8  C   UNL     1     -33.833 -31.383  71.688  0.00  0.00    +0.220 A 
ATOM      9  N   UNL     1     -33.681 -31.969  72.935  0.00  0.00    -0.283 N 
ATOM     36  H   UNL     1     -33.699 -32.985  73.020  0.00  0.00    +0.155 HD
ATOM     37  N   UNL     1     -33.983 -32.194  70.620  0.00  0.00    -0.214 NA
BRANCH   4   3
ATOM      1  C   UNL     1     -33.399 -34.021  66.286  0.00  0.00    +0.020 A 
ATOM      2  C   UNL     1     -33.199 -33.045  67.332  0.00  0.00    +0.013 A 
ATOM      3  C   UNL     1     -34.282 -32.698  68.244  0.00  0.00    +0.019 A 
ATOM     38  C   UNL     1     -35.564 -33.365  68.071  0.00  0.00    +0.120 A 
ATOM     39  N   UNL     1     -35.727 -34.300  67.055  0.00  0.00    -0.263 NA
ATOM     40  C   UNL     1     -34.693 -34.640  66.169  0.00  0.00    +0.111 A 
ENDBRANCH   4   3
ENDBRANCH  10   9
BRANCH  12  13
ATOM     13  N   UNL     1     -30.619 -29.701  76.133  0.00  0.00    -0.281 N 
ATOM     14  C   UNL     1     -29.926 -30.222  77.214  0.00  0.00    +0.248 C 
ATOM     30  O   UNL     1     -30.424 -30.929  78.078  0.00  0.00    -0.270 OA
ATOM     31  H   UNL     1     -30.139 -28.976  75.601  0.00  0.00    +0.155 HD
BRANCH  14  15
ATOM     15  C   UNL     1     -28.474 -29.902  77.363  0.00  0.00    +0.037 A 
ATOM     16  C   UNL     1     -27.622 -29.676  76.194  0.00  0.00    +0.013 A 
ATOM     17  C   UNL     1     -26.220 -29.384  76.365  0.00  0.00    +0.005 A 
ATOM     18  C   UNL     1     -25.663 -29.316  77.714  0.00  0.00    -0.033 A 
ATOM     28  C   UNL     1     -26.533 -29.540  78.857  0.00  0.00    +0.005 A 
ATOM     29  C   UNL     1     -27.906 -29.826  78.693  0.00  0.00    +0.013 A 
BRANCH  18  19
ATOM     19  C   UNL     1     -24.175 -29.033  77.991  0.00  0.00    +0.119 C 
BRANCH  19  20
ATOM     20  N   UNL     1     -23.828 -27.698  78.564  0.00  0.00    -0.302 NA
ATOM     21  C   UNL     1     -24.705 -26.581  77.990  0.00  0.00    +0.066 C 
ATOM     22  C   UNL     1     -24.344 -25.195  78.618  0.00  0.00    -0.064 C 
ATOM     23  N   UNL     1     -22.863 -24.899  78.376  0.00  0.00    +0.379 N 
ATOM     24  C   UNL     1     -22.534 -23.571  78.913  0.00  0.00    -0.096 C 
ATOM     25  H   UNL     1     -22.701 -24.868  77.273  0.00  0.00    -0.082 HD
ATOM     26  C   UNL     1     -21.984 -26.006  78.941  0.00  0.00    -0.064 C 
ATOM     27  C   UNL     1     -22.371 -27.383  78.333  0.00  0.00    +0.066 C 
ENDBRANCH  19  20
ENDBRANCH  18  19
ENDBRANCH  14  15
ENDBRANCH  12  13
TORSDOF 6
ENDMDL
MODEL 5
REMARK VINA RESULT:      -6.3      2.738      4.013
REMARK  Name = C:\Users\Docking\Desktop\test protocol\1iep_ligandH.pdb
REMARK  8 active torsions:
REMARK  status: ('A' for Active; 'I' for Inactive)
REMARK    1  A    between atoms: _5  and  _11
REMARK    2  A    between atoms: _19  and  _21
REMARK    3  A    between atoms: _22  and  _66
REMARK    4  A    between atoms: _27  and  _30
REMARK    5  A    between atoms: _32  and  _33
REMARK    6  A    between atoms: _38  and  _43
REMARK    7  A    between atoms: _43  and  _46
REMARK    8  A    between atoms: _53  and  _55
REMARK                            x       y       z     vdW  Elec       q    Type
REMARK                         _______ _______ _______ _____ _____    ______ ____
ROOT
ATOM     10  C   UNL     1     -27.557 -45.377  87.379  0.00  0.00    +0.038 A 
ATOM     11  C   UNL     1     -27.680 -43.965  87.410  0.00  0.00    +0.047 A 
ATOM     12  C   UNL     1     -27.261 -43.198  88.573  0.00  0.00    +0.035 A 
ATOM     32  C   UNL     1     -26.718 -43.902  89.687  0.00  0.00    +0.024 A 
ATOM     33  C   UNL     1     -26.586 -45.338  89.673  0.00  0.00    +0.007 A 
ATOM     34  C   UNL     1     -27.000 -46.100  88.529  0.00  0.00    -0.029 A 
ATOM     35  C   UNL     1     -26.841 -47.638  88.572  0.00  0.00    +0.045 C 
ENDROOT
BRANCH  10   9
ATOM      4  C   UNL     1     -30.897 -47.665  84.802  0.00  0.00    +0.077 A 
ATOM      5  C   UNL     1     -31.886 -47.504  85.829  0.00  0.00    +0.048 A 
ATOM      6  C   UNL     1     -31.492 -46.832  87.008  0.00  0.00    +0.116 A 
ATOM      7  N   UNL     1     -30.203 -46.362  87.139  0.00  0.00    -0.223 NA
ATOM      8  C   UNL     1     -29.274 -46.536  86.130  0.00  0.00    +0.220 A 
ATOM      9  N   UNL     1     -27.975 -46.063  86.237  0.00  0.00    -0.283 N 
ATOM     36  H   UNL     1     -27.318 -46.219  85.473  0.00  0.00    +0.155 HD
ATOM     37  N   UNL     1     -29.625 -47.175  84.995  0.00  0.00    -0.214 NA
BRANCH   4   3
ATOM      1  C   UNL     1     -31.628 -48.334  81.018  0.00  0.00    +0.020 A 
ATOM      2  C   UNL     1     -31.378 -47.625  82.251  0.00  0.00    +0.013 A 
ATOM      3  C   UNL     1     -31.162 -48.350  83.497  0.00  0.00    +0.019 A 
ATOM     38  C   UNL     1     -31.206 -49.804  83.460  0.00  0.00    +0.120 A 
ATOM     39  N   UNL     1     -31.451 -50.460  82.257  0.00  0.00    -0.263 NA
ATOM     40  C   UNL     1     -31.662 -49.772  81.053  0.00  0.00    +0.111 A 
ENDBRANCH   4   3
ENDBRANCH  10   9
BRANCH  12  13
ATOM     13  N   UNL     1     -27.370 -41.763  88.665  0.00  0.00    -0.281 N 
ATOM     14  C   UNL     1     -26.522 -40.809  88.127  0.00  0.00    +0.248 C 
ATOM     30  O   UNL     1     -25.417 -41.049  87.663  0.00  0.00    -0.270 OA
ATOM     31  H   UNL     1     -28.169 -41.408  89.190  0.00  0.00    +0.155 HD
BRANCH  14  15
ATOM     15  C   UNL     1     -26.958 -39.379  88.116  0.00  0.00    +0.037 A 
ATOM     16  C   UNL     1     -26.034 -38.305  87.744  0.00  0.00    +0.013 A 
ATOM     17  C   UNL     1     -26.476 -36.933  87.758  0.00  0.00    +0.005 A 
ATOM     18  C   UNL     1     -27.851 -36.628  88.145  0.00  0.00    -0.033 A 
ATOM     28  C   UNL     1     -28.748 -37.713  88.505  0.00  0.00    +0.005 A 
ATOM     29  C   UNL     1     -28.318 -39.059  88.493  0.00  0.00    +0.013 A 
BRANCH  18  19
ATOM     19  C   UNL     1     -28.402 -35.191  88.209  0.00  0.00    +0.119 C 
BRANCH  19  20
ATOM     20  N   UNL     1     -28.217 -34.444  89.489  0.00  0.00    -0.302 NA
ATOM     21  C   UNL     1     -26.897 -34.802  90.178  0.00  0.00    +0.066 C 
ATOM     22  C   UNL     1     -26.709 -33.995  91.503  0.00  0.00    -0.064 C 
ATOM     23  N   UNL     1     -27.895 -34.262  92.432  0.00  0.00    +0.379 N 
ATOM     24  C   UNL     1     -27.693 -33.550  93.703  0.00  0.00    -0.096 C 
ATOM     25  H   UNL     1     -27.910 -35.354  92.655  0.00  0.00    -0.082 HD
ATOM     26  C   UNL     1     -29.212 -33.911  91.754  0.00  0.00    -0.064 C 
ATOM     27  C   UNL     1     -29.375 -34.697  90.423  0.00  0.00    +0.066 C 
ENDBRANCH  19  20
ENDBRANCH  18  19
ENDBRANCH  14  15
ENDBRANCH  12  13
TORSDOF 6
ENDMDL
