MODEL 1
REMARK VINA RESULT:      -7.0      0.000      0.000
REMARK  Name = C:\Users\Docking\Desktop\test protocol\1iep_ligandH.pdb
REMARK  8 active torsions:
REMARK  status: ('A' for Active; 'I' for Inactive)
REMARK    1  A    between atoms: _5  and  _11
REMARK    2  A    between atoms: _19  and  _21
REMARK    3  A    between atoms: _22  and  _66
REMARK    4  A    between atoms: _27  and  _30
REMARK    5  A    between atoms: _32  and  _33
REMARK    6  A    between atoms: _38  and  _43
REMARK    7  A    between atoms: _43  and  _46
REMARK    8  A    between atoms: _53  and  _55
REMARK                            x       y       z     vdW  Elec       q    Type
REMARK                         _______ _______ _______ _____ _____    ______ ____
ROOT
ATOM     10  C   UNL     1     -21.392 -33.887 -11.465  0.00  0.00    +0.038 A 
ATOM     11  C   UNL     1     -20.294 -33.445 -12.246  0.00  0.00    +0.047 A 
ATOM     12  C   UNL     1     -19.276 -34.375 -12.709  0.00  0.00    +0.035 A 
ATOM     32  C   UNL     1     -19.410 -35.750 -12.361  0.00  0.00    +0.024 A 
ATOM     33  C   UNL     1     -20.519 -36.218 -11.567  0.00  0.00    +0.007 A 
ATOM     34  C   UNL     1     -21.524 -35.304 -11.105  0.00  0.00    -0.029 A 
ATOM     35  C   UNL     1     -22.688 -35.860 -10.251  0.00  0.00    +0.045 C 
ENDROOT
BRANCH  10   9
ATOM      4  C   UNL     1     -23.165 -30.813  -8.233  0.00  0.00    +0.077 A 
ATOM      5  C   UNL     1     -22.131 -31.119  -7.287  0.00  0.00    +0.048 A 
ATOM      6  C   UNL     1     -21.166 -32.078  -7.669  0.00  0.00    +0.116 A 
ATOM      7  N   UNL     1     -21.239 -32.680  -8.906  0.00  0.00    -0.223 NA
ATOM      8  C   UNL     1     -22.251 -32.364  -9.794  0.00  0.00    +0.220 A 
ATOM      9  N   UNL     1     -22.340 -32.951 -11.046  0.00  0.00    -0.283 N 
ATOM     36  H   UNL     1     -23.106 -32.696 -11.670  0.00  0.00    +0.155 HD
ATOM     37  N   UNL     1     -23.186 -31.452  -9.453  0.00  0.00    -0.214 NA
BRANCH   4   3
ATOM      1  C   UNL     1     -26.677 -29.113  -7.958  0.00  0.00    +0.020 A 
ATOM      2  C   UNL     1     -25.664 -30.108  -8.221  0.00  0.00    +0.013 A 
ATOM      3  C   UNL     1     -24.256 -29.819  -7.978  0.00  0.00    +0.019 A 
ATOM     38  C   UNL     1     -23.904 -28.504  -7.464  0.00  0.00    +0.120 A 
ATOM     39  N   UNL     1     -24.902 -27.565  -7.221  0.00  0.00    -0.263 NA
ATOM     40  C   UNL     1     -26.260 -27.831  -7.453  0.00  0.00    +0.111 A 
ENDBRANCH   4   3
ENDBRANCH  10   9
BRANCH  12  13
ATOM     13  N   UNL     1     -18.135 -33.982 -13.498  0.00  0.00    -0.281 N 
ATOM     14  C   UNL     1     -16.882 -33.597 -13.051  0.00  0.00    +0.248 C 
ATOM     30  O   UNL     1     -16.616 -33.326 -11.889  0.00  0.00    -0.270 OA
ATOM     31  H   UNL     1     -18.267 -33.988 -14.510  0.00  0.00    +0.155 HD
BRANCH  14  15
ATOM     15  C   UNL     1     -15.766 -33.483 -14.038  0.00  0.00    +0.037 A 
ATOM     16  C   UNL     1     -14.963 -34.649 -14.415  0.00  0.00    +0.013 A 
ATOM     17  C   UNL     1     -13.881 -34.509 -15.358  0.00  0.00    +0.005 A 
ATOM     18  C   UNL     1     -13.597 -33.195 -15.931  0.00  0.00    -0.033 A 
ATOM     28  C   UNL     1     -14.413 -32.056 -15.543  0.00  0.00    +0.005 A 
ATOM     29  C   UNL     1     -15.473 -32.190 -14.619  0.00  0.00    +0.013 A 
BRANCH  18  19
ATOM     19  C   UNL     1     -12.449 -32.948 -16.927  0.00  0.00    +0.119 C 
BRANCH  19  20
ATOM     20  N   UNL     1     -11.094 -32.683 -16.358  0.00  0.00    -0.302 NA
ATOM     21  C   UNL     1     -10.519 -31.349 -16.841  0.00  0.00    +0.066 C 
ATOM     22  C   UNL     1      -9.111 -31.077 -16.218  0.00  0.00    -0.064 C 
ATOM     23  N   UNL     1      -8.170 -32.231 -16.568  0.00  0.00    +0.379 N 
ATOM     24  C   UNL     1      -6.830 -31.951 -16.032  0.00  0.00    -0.096 C 
ATOM     25  H   UNL     1      -8.088 -32.276 -17.678  0.00  0.00    -0.082 HD
ATOM     26  C   UNL     1      -8.736 -33.562 -16.093  0.00  0.00    -0.064 C 
ATOM     27  C   UNL     1     -10.148 -33.809 -16.695  0.00  0.00    +0.066 C 
ENDBRANCH  19  20
ENDBRANCH  18  19
ENDBRANCH  14  15
ENDBRANCH  12  13
TORSDOF 6
ENDMDL
MODEL 2
REMARK VINA RESULT:      -6.9     23.519     25.464
REMARK  Name = C:\Users\Docking\Desktop\test protocol\1iep_ligandH.pdb
REMARK  8 active torsions:
REMARK  status: ('A' for Active; 'I' for Inactive)
REMARK    1  A    between atoms: _5  and  _11
REMARK    2  A    between atoms: _19  and  _21
REMARK    3  A    between atoms: _22  and  _66
REMARK    4  A    between atoms: _27  and  _30
REMARK    5  A    between atoms: _32  and  _33
REMARK    6  A    between atoms: _38  and  _43
REMARK    7  A    between atoms: _43  and  _46
REMARK    8  A    between atoms: _53  and  _55
REMARK                            x       y       z     vdW  Elec       q    Type
REMARK                         _______ _______ _______ _____ _____    ______ ____
ROOT
ATOM     10  C   UNL     1     -21.116 -11.916 -26.429  0.00  0.00    +0.038 A 
ATOM     11  C   UNL     1     -19.851 -11.865 -25.788  0.00  0.00    +0.047 A 
ATOM     12  C   UNL     1     -18.658 -12.389 -26.435  0.00  0.00    +0.035 A 
ATOM     32  C   UNL     1     -18.789 -12.955 -27.736  0.00  0.00    +0.024 A 
ATOM     33  C   UNL     1     -20.067 -13.016 -28.402  0.00  0.00    +0.007 A 
ATOM     34  C   UNL     1     -21.247 -12.503 -27.768  0.00  0.00    -0.029 A 
ATOM     35  C   UNL     1     -22.592 -12.600 -28.525  0.00  0.00    +0.045 C 
ENDROOT
BRANCH  10   9
ATOM      4  C   UNL     1     -24.098  -8.318 -25.333  0.00  0.00    +0.077 A 
ATOM      5  C   UNL     1     -23.362  -7.385 -26.136  0.00  0.00    +0.048 A 
ATOM      6  C   UNL     1     -22.218  -7.869 -26.810  0.00  0.00    +0.116 A 
ATOM      7  N   UNL     1     -21.847  -9.190 -26.682  0.00  0.00    -0.223 NA
ATOM      8  C   UNL     1     -22.578 -10.063 -25.898  0.00  0.00    +0.220 A 
ATOM      9  N   UNL     1     -22.228 -11.398 -25.762  0.00  0.00    -0.283 N 
ATOM     36  H   UNL     1     -22.789 -12.008 -25.168  0.00  0.00    +0.155 HD
ATOM     37  N   UNL     1     -23.674  -9.625 -25.243  0.00  0.00    -0.214 NA
BRANCH   4   3
ATOM      1  C   UNL     1     -26.666  -7.796 -22.429  0.00  0.00    +0.020 A 
ATOM      2  C   UNL     1     -25.454  -8.161 -23.125  0.00  0.00    +0.013 A 
ATOM      3  C   UNL     1     -25.331  -7.959 -24.563  0.00  0.00    +0.019 A 
ATOM     38  C   UNL     1     -26.462  -7.380 -25.273  0.00  0.00    +0.120 A 
ATOM     39  N   UNL     1     -27.617  -7.040 -24.576  0.00  0.00    -0.263 NA
ATOM     40  C   UNL     1     -27.747  -7.232 -23.193  0.00  0.00    +0.111 A 
ENDBRANCH   4   3
ENDBRANCH  10   9
BRANCH  12  13
ATOM     13  N   UNL     1     -17.350 -12.372 -25.830  0.00  0.00    -0.281 N 
ATOM     14  C   UNL     1     -16.574 -11.270 -25.509  0.00  0.00    +0.248 C 
ATOM     30  O   UNL     1     -16.799 -10.131 -25.891  0.00  0.00    -0.270 OA
ATOM     31  H   UNL     1     -16.946 -13.283 -25.613  0.00  0.00    +0.155 HD
BRANCH  14  15
ATOM     15  C   UNL     1     -15.365 -11.464 -24.652  0.00  0.00    +0.037 A 
ATOM     16  C   UNL     1     -14.061 -10.922 -25.043  0.00  0.00    +0.013 A 
ATOM     17  C   UNL     1     -12.907 -11.137 -24.206  0.00  0.00    +0.005 A 
ATOM     18  C   UNL     1     -13.054 -11.898 -22.967  0.00  0.00    -0.033 A 
ATOM     28  C   UNL     1     -14.360 -12.420 -22.601  0.00  0.00    +0.005 A 
ATOM     29  C   UNL     1     -15.492 -12.211 -23.419  0.00  0.00    +0.013 A 
BRANCH  18  19
ATOM     19  C   UNL     1     -11.873 -12.195 -22.024  0.00  0.00    +0.119 C 
BRANCH  19  20
ATOM     20  N   UNL     1     -12.128 -12.093 -20.556  0.00  0.00    -0.302 NA
ATOM     21  C   UNL     1     -11.113 -11.183 -19.858  0.00  0.00    +0.066 C 
ATOM     22  C   UNL     1     -11.409 -11.070 -18.327  0.00  0.00    -0.064 C 
ATOM     23  N   UNL     1     -11.402 -12.467 -17.705  0.00  0.00    +0.379 N 
ATOM     24  C   UNL     1     -11.622 -12.360 -16.255  0.00  0.00    -0.096 C 
ATOM     25  H   UNL     1     -10.387 -12.902 -17.862  0.00  0.00    -0.082 HD
ATOM     26  C   UNL     1     -12.406 -13.379 -18.395  0.00  0.00    -0.064 C 
ATOM     27  C   UNL     1     -12.122 -13.461 -19.920  0.00  0.00    +0.066 C 
ENDBRANCH  19  20
ENDBRANCH  18  19
ENDBRANCH  14  15
ENDBRANCH  12  13
TORSDOF 6
ENDMDL
MODEL 3
REMARK VINA RESULT:      -6.9     10.148     14.216
REMARK  Name = C:\Users\Docking\Desktop\test protocol\1iep_ligandH.pdb
REMARK  8 active torsions:
REMARK  status: ('A' for Active; 'I' for Inactive)
REMARK    1  A    between atoms: _5  and  _11
REMARK    2  A    between atoms: _19  and  _21
REMARK    3  A    between atoms: _22  and  _66
REMARK    4  A    between atoms: _27  and  _30
REMARK    5  A    between atoms: _32  and  _33
REMARK    6  A    between atoms: _38  and  _43
REMARK    7  A    between atoms: _43  and  _46
REMARK    8  A    between atoms: _53  and  _55
REMARK                            x       y       z     vdW  Elec       q    Type
REMARK                         _______ _______ _______ _____ _____    ______ ____
ROOT
ATOM     10  C   UNL     1     -29.769 -33.436 -11.904  0.00  0.00    +0.038 A 
ATOM     11  C   UNL     1     -29.908 -33.907 -13.235  0.00  0.00    +0.047 A 
ATOM     12  C   UNL     1     -31.109 -34.607 -13.663  0.00  0.00    +0.035 A 
ATOM     32  C   UNL     1     -32.150 -34.809 -12.710  0.00  0.00    +0.024 A 
ATOM     33  C   UNL     1     -32.024 -34.337 -11.353  0.00  0.00    +0.007 A 
ATOM     34  C   UNL     1     -30.841 -33.648 -10.924  0.00  0.00    -0.029 A 
ATOM     35  C   UNL     1     -30.758 -33.170  -9.456  0.00  0.00    +0.045 C 
ENDROOT
BRANCH  10   9
ATOM      4  C   UNL     1     -25.320 -33.369 -10.103  0.00  0.00    +0.077 A 
ATOM      5  C   UNL     1     -25.348 -34.776  -9.825  0.00  0.00    +0.048 A 
ATOM      6  C   UNL     1     -26.529 -35.479 -10.153  0.00  0.00    +0.116 A 
ATOM      7  N   UNL     1     -27.596 -34.814 -10.719  0.00  0.00    -0.223 NA
ATOM      8  C   UNL     1     -27.536 -33.456 -10.973  0.00  0.00    +0.220 A 
ATOM      9  N   UNL     1     -28.594 -32.769 -11.548  0.00  0.00    -0.283 N 
ATOM     36  H   UNL     1     -28.514 -31.766 -11.712  0.00  0.00    +0.155 HD
ATOM     37  N   UNL     1     -26.421 -32.762 -10.667  0.00  0.00    -0.214 NA
BRANCH   4   3
ATOM      1  C   UNL     1     -21.729 -31.818 -10.109  0.00  0.00    +0.020 A 
ATOM      2  C   UNL     1     -22.833 -32.697 -10.420  0.00  0.00    +0.013 A 
ATOM      3  C   UNL     1     -24.143 -32.489  -9.816  0.00  0.00    +0.019 A 
ATOM     38  C   UNL     1     -24.304 -31.374  -8.895  0.00  0.00    +0.120 A 
ATOM     39  N   UNL     1     -23.223 -30.545  -8.614  0.00  0.00    -0.263 NA
ATOM     40  C   UNL     1     -21.957 -30.736  -9.187  0.00  0.00    +0.111 A 
ENDBRANCH   4   3
ENDBRANCH  10   9
BRANCH  12  13
ATOM     13  N   UNL     1     -31.304 -35.115 -14.998  0.00  0.00    -0.281 N 
ATOM     14  C   UNL     1     -31.970 -34.510 -16.051  0.00  0.00    +0.248 C 
ATOM     30  O   UNL     1     -32.688 -33.527 -15.941  0.00  0.00    -0.270 OA
ATOM     31  H   UNL     1     -30.902 -36.033 -15.190  0.00  0.00    +0.155 HD
BRANCH  14  15
ATOM     15  C   UNL     1     -31.831 -35.089 -17.422  0.00  0.00    +0.037 A 
ATOM     16  C   UNL     1     -31.420 -36.481 -17.621  0.00  0.00    +0.013 A 
ATOM     17  C   UNL     1     -31.277 -37.009 -18.954  0.00  0.00    +0.005 A 
ATOM     18  C   UNL     1     -31.547 -36.144 -20.100  0.00  0.00    -0.033 A 
ATOM     28  C   UNL     1     -31.958 -34.768 -19.874  0.00  0.00    +0.005 A 
ATOM     29  C   UNL     1     -32.099 -34.247 -18.568  0.00  0.00    +0.013 A 
BRANCH  18  19
ATOM     19  C   UNL     1     -31.399 -36.617 -21.559  0.00  0.00    +0.119 C 
BRANCH  19  20
ATOM     20  N   UNL     1     -30.716 -35.692 -22.511  0.00  0.00    -0.302 NA
ATOM     21  C   UNL     1     -31.333 -35.751 -23.912  0.00  0.00    +0.066 C 
ATOM     22  C   UNL     1     -30.621 -34.761 -24.890  0.00  0.00    -0.064 C 
ATOM     23  N   UNL     1     -29.127 -35.087 -24.942  0.00  0.00    +0.379 N 
ATOM     24  C   UNL     1     -28.464 -34.195 -25.905  0.00  0.00    -0.096 C 
ATOM     25  H   UNL     1     -29.022 -36.130 -25.320  0.00  0.00    -0.082 HD
ATOM     26  C   UNL     1     -28.506 -35.033 -23.554  0.00  0.00    -0.064 C 
ATOM     27  C   UNL     1     -29.240 -35.999 -22.582  0.00  0.00    +0.066 C 
ENDBRANCH  19  20
ENDBRANCH  18  19
ENDBRANCH  14  15
ENDBRANCH  12  13
TORSDOF 6
ENDMDL
MODEL 4
REMARK VINA RESULT:      -6.8      9.069     14.086
REMARK  Name = C:\Users\Docking\Desktop\test protocol\1iep_ligandH.pdb
REMARK  8 active torsions:
REMARK  status: ('A' for Active; 'I' for Inactive)
REMARK    1  A    between atoms: _5  and  _11
REMARK    2  A    between atoms: _19  and  _21
REMARK    3  A    between atoms: _22  and  _66
REMARK    4  A    between atoms: _27  and  _30
REMARK    5  A    between atoms: _32  and  _33
REMARK    6  A    between atoms: _38  and  _43
REMARK    7  A    between atoms: _43  and  _46
REMARK    8  A    between atoms: _53  and  _55
REMARK                            x       y       z     vdW  Elec       q    Type
REMARK                         _______ _______ _______ _____ _____    ______ ____
ROOT
ATOM     10  C   UNL     1     -28.769 -33.066 -10.022  0.00  0.00    +0.038 A 
ATOM     11  C   UNL     1     -29.260 -33.281 -11.335  0.00  0.00    +0.047 A 
ATOM     12  C   UNL     1     -30.456 -34.075 -11.571  0.00  0.00    +0.035 A 
ATOM     32  C   UNL     1     -31.130 -34.632 -10.446  0.00  0.00    +0.024 A 
ATOM     33  C   UNL     1     -30.645 -34.424  -9.104  0.00  0.00    +0.007 A 
ATOM     34  C   UNL     1     -29.464 -33.645  -8.865  0.00  0.00    -0.029 A 
ATOM     35  C   UNL     1     -28.986 -33.460  -7.406  0.00  0.00    +0.045 C 
ENDROOT
BRANCH  10   9
ATOM      4  C   UNL     1     -24.009 -32.606  -9.613  0.00  0.00    +0.077 A 
ATOM      5  C   UNL     1     -23.804 -34.022  -9.717  0.00  0.00    +0.048 A 
ATOM      6  C   UNL     1     -24.950 -34.835  -9.868  0.00  0.00    +0.116 A 
ATOM      7  N   UNL     1     -26.203 -34.263  -9.910  0.00  0.00    -0.223 NA
ATOM      8  C   UNL     1     -26.366 -32.894  -9.805  0.00  0.00    +0.220 A 
ATOM      9  N   UNL     1     -27.616 -32.296  -9.853  0.00  0.00    -0.283 N 
ATOM     36  H   UNL     1     -27.695 -31.283  -9.765  0.00  0.00    +0.155 HD
ATOM     37  N   UNL     1     -25.288 -32.096  -9.659  0.00  0.00    -0.214 NA
BRANCH   4   3
ATOM      1  C   UNL     1     -21.910 -29.496  -8.507  0.00  0.00    +0.020 A 
ATOM      2  C   UNL     1     -23.014 -30.421  -8.628  0.00  0.00    +0.013 A 
ATOM      3  C   UNL     1     -22.898 -31.616  -9.453  0.00  0.00    +0.019 A 
ATOM     38  C   UNL     1     -21.640 -31.850 -10.147  0.00  0.00    +0.120 A 
ATOM     39  N   UNL     1     -20.595 -30.942 -10.013  0.00  0.00    -0.263 NA
ATOM     40  C   UNL     1     -20.696 -29.787  -9.223  0.00  0.00    +0.111 A 
ENDBRANCH   4   3
ENDBRANCH  10   9
BRANCH  12  13
ATOM     13  N   UNL     1     -30.997 -34.334 -12.883  0.00  0.00    -0.281 N 
ATOM     14  C   UNL     1     -31.893 -33.561 -13.602  0.00  0.00    +0.248 C 
ATOM     30  O   UNL     1     -32.534 -32.631 -13.136  0.00  0.00    -0.270 OA
ATOM     31  H   UNL     1     -30.680 -35.191 -13.335  0.00  0.00    +0.155 HD
BRANCH  14  15
ATOM     15  C   UNL     1     -32.121 -33.875 -15.046  0.00  0.00    +0.037 A 
ATOM     16  C   UNL     1     -33.124 -33.152 -15.832  0.00  0.00    +0.013 A 
ATOM     17  C   UNL     1     -33.336 -33.487 -17.218  0.00  0.00    +0.005 A 
ATOM     18  C   UNL     1     -32.541 -34.551 -17.827  0.00  0.00    -0.033 A 
ATOM     28  C   UNL     1     -31.549 -35.248 -17.026  0.00  0.00    +0.005 A 
ATOM     29  C   UNL     1     -31.339 -34.923 -15.667  0.00  0.00    +0.013 A 
BRANCH  18  19
ATOM     19  C   UNL     1     -32.714 -34.989 -19.293  0.00  0.00    +0.119 C 
BRANCH  19  20
ATOM     20  N   UNL     1     -31.510 -34.921 -20.174  0.00  0.00    -0.302 NA
ATOM     21  C   UNL     1     -31.590 -33.757 -21.167  0.00  0.00    +0.066 C 
ATOM     22  C   UNL     1     -30.312 -33.687 -22.065  0.00  0.00    -0.064 C 
ATOM     23  N   UNL     1     -30.136 -35.016 -22.802  0.00  0.00    +0.379 N 
ATOM     24  C   UNL     1     -28.969 -34.933 -23.691  0.00  0.00    -0.096 C 
ATOM     25  H   UNL     1     -31.037 -35.171 -23.439  0.00  0.00    -0.082 HD
ATOM     26  C   UNL     1     -30.059 -36.179 -21.822  0.00  0.00    -0.064 C 
ATOM     27  C   UNL     1     -31.320 -36.222 -20.914  0.00  0.00    +0.066 C 
ENDBRANCH  19  20
ENDBRANCH  18  19
ENDBRANCH  14  15
ENDBRANCH  12  13
TORSDOF 6
ENDMDL
MODEL 5
REMARK VINA RESULT:      -6.6     20.683     25.576
REMARK  Name = C:\Users\Docking\Desktop\test protocol\1iep_ligandH.pdb
REMARK  8 active torsions:
REMARK  status: ('A' for Active; 'I' for Inactive)
REMARK    1  A    between atoms: _5  and  _11
REMARK    2  A    between atoms: _19  and  _21
REMARK    3  A    between atoms: _22  and  _66
REMARK    4  A    between atoms: _27  and  _30
REMARK    5  A    between atoms: _32  and  _33
REMARK    6  A    between atoms: _38  and  _43
REMARK    7  A    between atoms: _43  and  _46
REMARK    8  A    between atoms: _53  and  _55
REMARK                            x       y       z     vdW  Elec       q    Type
REMARK                         _______ _______ _______ _____ _____    ______ ____
ROOT
ATOM     10  C   UNL     1     -28.389 -11.046  -9.605  0.00  0.00    +0.038 A 
ATOM     11  C   UNL     1     -29.106 -12.269  -9.576  0.00  0.00    +0.047 A 
ATOM     12  C   UNL     1     -28.966 -13.198  -8.466  0.00  0.00    +0.035 A 
ATOM     32  C   UNL     1     -28.087 -12.848  -7.400  0.00  0.00    +0.024 A 
ATOM     33  C   UNL     1     -27.349 -11.609  -7.413  0.00  0.00    +0.007 A 
ATOM     34  C   UNL     1     -27.482 -10.690  -8.507  0.00  0.00    -0.029 A 
ATOM     35  C   UNL     1     -26.662  -9.380  -8.472  0.00  0.00    +0.045 C 
ENDROOT
BRANCH  10   9
ATOM      4  C   UNL     1     -31.013  -7.984 -12.208  0.00  0.00    +0.077 A 
ATOM      5  C   UNL     1     -32.144  -8.119 -11.336  0.00  0.00    +0.048 A 
ATOM      6  C   UNL     1     -32.012  -8.992 -10.233  0.00  0.00    +0.116 A 
ATOM      7  N   UNL     1     -30.832  -9.674 -10.027  0.00  0.00    -0.223 NA
ATOM      8  C   UNL     1     -29.761  -9.522 -10.888  0.00  0.00    +0.220 A 
ATOM      9  N   UNL     1     -28.562 -10.191 -10.696  0.00  0.00    -0.283 N 
ATOM     36  H   UNL     1     -27.798 -10.058 -11.359  0.00  0.00    +0.155 HD
ATOM     37  N   UNL     1     -29.863  -8.695 -11.950  0.00  0.00    -0.214 NA
BRANCH   4   3
ATOM      1  C   UNL     1     -29.807  -5.724 -15.164  0.00  0.00    +0.020 A 
ATOM      2  C   UNL     1     -29.767  -6.576 -13.998  0.00  0.00    +0.013 A 
ATOM      3  C   UNL     1     -30.997  -7.097 -13.415  0.00  0.00    +0.019 A 
ATOM     38  C   UNL     1     -32.260  -6.735 -14.040  0.00  0.00    +0.120 A 
ATOM     39  N   UNL     1     -32.267  -5.911 -15.161  0.00  0.00    -0.263 NA
ATOM     40  C   UNL     1     -31.090  -5.402 -15.731  0.00  0.00    +0.111 A 
ENDBRANCH   4   3
ENDBRANCH  10   9
BRANCH  12  13
ATOM     13  N   UNL     1     -29.662 -14.458  -8.386  0.00  0.00    -0.281 N 
ATOM     14  C   UNL     1     -29.117 -15.728  -8.284  0.00  0.00    +0.248 C 
ATOM     30  O   UNL     1     -27.936 -15.989  -8.462  0.00  0.00    -0.270 OA
ATOM     31  H   UNL     1     -30.681 -14.408  -8.407  0.00  0.00    +0.155 HD
BRANCH  14  15
ATOM     15  C   UNL     1     -30.015 -16.875  -7.950  0.00  0.00    +0.037 A 
ATOM     16  C   UNL     1     -30.594 -17.717  -8.999  0.00  0.00    +0.013 A 
ATOM     17  C   UNL     1     -31.471 -18.807  -8.651  0.00  0.00    +0.005 A 
ATOM     18  C   UNL     1     -31.773 -19.061  -7.244  0.00  0.00    -0.033 A 
ATOM     28  C   UNL     1     -31.181 -18.212  -6.223  0.00  0.00    +0.005 A 
ATOM     29  C   UNL     1     -30.322 -17.143  -6.561  0.00  0.00    +0.013 A 
BRANCH  18  19
ATOM     19  C   UNL     1     -32.715 -20.188  -6.781  0.00  0.00    +0.119 C 
BRANCH  19  20
ATOM     20  N   UNL     1     -34.037 -20.300  -7.468  0.00  0.00    -0.302 NA
ATOM     21  C   UNL     1     -34.987 -19.167  -7.072  0.00  0.00    +0.066 C 
ATOM     22  C   UNL     1     -36.357 -19.286  -7.817  0.00  0.00    -0.064 C 
ATOM     23  N   UNL     1     -36.982 -20.649  -7.513  0.00  0.00    +0.379 N 
ATOM     24  C   UNL     1     -38.296 -20.742  -8.165  0.00  0.00    -0.096 C 
ATOM     25  H   UNL     1     -37.145 -20.708  -6.412  0.00  0.00    -0.082 HD
ATOM     26  C   UNL     1     -36.042 -21.782  -7.901  0.00  0.00    -0.064 C 
ATOM     27  C   UNL     1     -34.674 -21.637  -7.178  0.00  0.00    +0.066 C 
ENDBRANCH  19  20
ENDBRANCH  18  19
ENDBRANCH  14  15
ENDBRANCH  12  13
TORSDOF 6
ENDMDL
