MODEL 1
REMARK VINA RESULT:     -10.8      0.000      0.000
REMARK  Name = C:\Users\Docking\Desktop\test protocol\1iep_ligandH.pdb
REMARK  8 active torsions:
REMARK  status: ('A' for Active; 'I' for Inactive)
REMARK    1  A    between atoms: _5  and  _11
REMARK    2  A    between atoms: _19  and  _21
REMARK    3  A    between atoms: _22  and  _66
REMARK    4  A    between atoms: _27  and  _30
REMARK    5  A    between atoms: _32  and  _33
REMARK    6  A    between atoms: _38  and  _43
REMARK    7  A    between atoms: _43  and  _46
REMARK    8  A    between atoms: _53  and  _55
REMARK                            x       y       z     vdW  Elec       q    Type
REMARK                         _______ _______ _______ _____ _____    ______ ____
ROOT
ATOM     10  C   UNL     1     -11.330  -9.494  18.166  0.00  0.00    +0.038 A 
ATOM     11  C   UNL     1     -10.664  -9.243  16.940  0.00  0.00    +0.047 A 
ATOM     12  C   UNL     1     -10.965  -8.060  16.148  0.00  0.00    +0.035 A 
ATOM     32  C   UNL     1     -11.949  -7.152  16.637  0.00  0.00    +0.024 A 
ATOM     33  C   UNL     1     -12.637  -7.393  17.881  0.00  0.00    +0.007 A 
ATOM     34  C   UNL     1     -12.346  -8.559  18.665  0.00  0.00    -0.029 A 
ATOM     35  C   UNL     1     -13.119  -8.769  19.988  0.00  0.00    +0.045 C 
ENDROOT
BRANCH  10   9
ATOM      4  C   UNL     1      -9.348 -11.709  21.935  0.00  0.00    +0.077 A 
ATOM      5  C   UNL     1      -8.906 -10.469  22.506  0.00  0.00    +0.048 A 
ATOM      6  C   UNL     1      -9.203  -9.285  21.795  0.00  0.00    +0.116 A 
ATOM      7  N   UNL     1      -9.891  -9.347  20.603  0.00  0.00    -0.223 NA
ATOM      8  C   UNL     1     -10.301 -10.560  20.079  0.00  0.00    +0.220 A 
ATOM      9  N   UNL     1     -11.002 -10.645  18.886  0.00  0.00    -0.283 N 
ATOM     36  H   UNL     1     -11.280 -11.559  18.529  0.00  0.00    +0.155 HD
ATOM     37  N   UNL     1     -10.029 -11.705  20.738  0.00  0.00    -0.214 NA
BRANCH   4   3
ATOM      1  C   UNL     1      -8.066 -14.541  24.309  0.00  0.00    +0.020 A 
ATOM      2  C   UNL     1      -8.259 -13.229  23.735  0.00  0.00    +0.013 A 
ATOM      3  C   UNL     1      -9.114 -13.044  22.569  0.00  0.00    +0.019 A 
ATOM     38  C   UNL     1      -9.765 -14.217  22.005  0.00  0.00    +0.120 A 
ATOM     39  N   UNL     1      -9.560 -15.468  22.578  0.00  0.00    -0.263 NA
ATOM     40  C   UNL     1      -8.738 -15.658  23.699  0.00  0.00    +0.111 A 
ENDBRANCH   4   3
ENDBRANCH  10   9
BRANCH  12  13
ATOM     13  N   UNL     1     -10.326  -7.757  14.891  0.00  0.00    -0.281 N 
ATOM     14  C   UNL     1      -8.972  -7.762  14.601  0.00  0.00    +0.248 C 
ATOM     30  O   UNL     1      -8.085  -7.823  15.440  0.00  0.00    -0.270 OA
ATOM     31  H   UNL     1     -10.948  -7.507  14.123  0.00  0.00    +0.155 HD
BRANCH  14  15
ATOM     15  C   UNL     1      -8.539  -7.674  13.173  0.00  0.00    +0.037 A 
ATOM     16  C   UNL     1      -8.460  -6.385  12.482  0.00  0.00    +0.013 A 
ATOM     17  C   UNL     1      -8.056  -6.329  11.099  0.00  0.00    +0.005 A 
ATOM     18  C   UNL     1      -7.726  -7.569  10.399  0.00  0.00    -0.033 A 
ATOM     28  C   UNL     1      -7.808  -8.833  11.111  0.00  0.00    +0.005 A 
ATOM     29  C   UNL     1      -8.205  -8.892  12.466  0.00  0.00    +0.013 A 
BRANCH  18  19
ATOM     19  C   UNL     1      -7.306  -7.606   8.918  0.00  0.00    +0.119 C 
BRANCH  19  20
ATOM     20  N   UNL     1      -6.750  -6.350   8.333  0.00  0.00    -0.302 NA
ATOM     21  C   UNL     1      -7.101  -6.202   6.850  0.00  0.00    +0.066 C 
ATOM     22  C   UNL     1      -6.530  -4.871   6.259  0.00  0.00    -0.064 C 
ATOM     23  N   UNL     1      -5.014  -4.835   6.464  0.00  0.00    +0.379 N 
ATOM     24  C   UNL     1      -4.467  -3.612   5.858  0.00  0.00    -0.096 C 
ATOM     25  H   UNL     1      -4.579  -5.706   5.920  0.00  0.00    -0.082 HD
ATOM     26  C   UNL     1      -4.656  -4.984   7.935  0.00  0.00    -0.064 C 
ATOM     27  C   UNL     1      -5.253  -6.295   8.519  0.00  0.00    +0.066 C 
ENDBRANCH  19  20
ENDBRANCH  18  19
ENDBRANCH  14  15
ENDBRANCH  12  13
TORSDOF 6
ENDMDL
MODEL 2
REMARK VINA RESULT:     -10.4      1.537      1.958
REMARK  Name = C:\Users\Docking\Desktop\test protocol\1iep_ligandH.pdb
REMARK  8 active torsions:
REMARK  status: ('A' for Active; 'I' for Inactive)
REMARK    1  A    between atoms: _5  and  _11
REMARK    2  A    between atoms: _19  and  _21
REMARK    3  A    between atoms: _22  and  _66
REMARK    4  A    between atoms: _27  and  _30
REMARK    5  A    between atoms: _32  and  _33
REMARK    6  A    between atoms: _38  and  _43
REMARK    7  A    between atoms: _43  and  _46
REMARK    8  A    between atoms: _53  and  _55
REMARK                            x       y       z     vdW  Elec       q    Type
REMARK                         _______ _______ _______ _____ _____    ______ ____
ROOT
ATOM     10  C   UNL     1     -11.200  -9.443  17.897  0.00  0.00    +0.038 A 
ATOM     11  C   UNL     1     -10.308  -8.980  16.896  0.00  0.00    +0.047 A 
ATOM     12  C   UNL     1     -10.616  -7.802  16.100  0.00  0.00    +0.035 A 
ATOM     32  C   UNL     1     -11.841  -7.118  16.352  0.00  0.00    +0.024 A 
ATOM     33  C   UNL     1     -12.759  -7.575  17.365  0.00  0.00    +0.007 A 
ATOM     34  C   UNL     1     -12.462  -8.738  18.152  0.00  0.00    -0.029 A 
ATOM     35  C   UNL     1     -13.486  -9.186  19.219  0.00  0.00    +0.045 C 
ENDROOT
BRANCH  10   9
ATOM      4  C   UNL     1      -9.454 -11.571  21.829  0.00  0.00    +0.077 A 
ATOM      5  C   UNL     1      -9.184 -10.312  22.462  0.00  0.00    +0.048 A 
ATOM      6  C   UNL     1      -9.502  -9.141  21.740  0.00  0.00    +0.116 A 
ATOM      7  N   UNL     1     -10.050  -9.233  20.478  0.00  0.00    -0.223 NA
ATOM      8  C   UNL     1     -10.296 -10.463  19.896  0.00  0.00    +0.220 A 
ATOM      9  N   UNL     1     -10.853 -10.579  18.632  0.00  0.00    -0.283 N 
ATOM     36  H   UNL     1     -11.013 -11.504  18.234  0.00  0.00    +0.155 HD
ATOM     37  N   UNL     1      -9.999 -11.596  20.565  0.00  0.00    -0.214 NA
BRANCH   4   3
ATOM      1  C   UNL     1      -8.043 -14.360  24.181  0.00  0.00    +0.020 A 
ATOM      2  C   UNL     1      -8.277 -13.057  23.602  0.00  0.00    +0.013 A 
ATOM      3  C   UNL     1      -9.176 -12.897  22.466  0.00  0.00    +0.019 A 
ATOM     38  C   UNL     1      -9.828 -14.085  21.935  0.00  0.00    +0.120 A 
ATOM     39  N   UNL     1      -9.582 -15.327  22.512  0.00  0.00    -0.263 NA
ATOM     40  C   UNL     1      -8.718 -15.493  23.605  0.00  0.00    +0.111 A 
ENDBRANCH   4   3
ENDBRANCH  10   9
BRANCH  12  13
ATOM     13  N   UNL     1      -9.753  -7.290  15.065  0.00  0.00    -0.281 N 
ATOM     14  C   UNL     1      -9.371  -7.914  13.888  0.00  0.00    +0.248 C 
ATOM     30  O   UNL     1      -9.544  -9.099  13.647  0.00  0.00    -0.270 OA
ATOM     31  H   UNL     1      -9.378  -6.353  15.217  0.00  0.00    +0.155 HD
BRANCH  14  15
ATOM     15  C   UNL     1      -8.685  -7.108  12.833  0.00  0.00    +0.037 A 
ATOM     16  C   UNL     1      -8.087  -7.746  11.658  0.00  0.00    +0.013 A 
ATOM     17  C   UNL     1      -7.416  -6.947  10.663  0.00  0.00    +0.005 A 
ATOM     18  C   UNL     1      -7.340  -5.499  10.840  0.00  0.00    -0.033 A 
ATOM     28  C   UNL     1      -7.946  -4.891  12.013  0.00  0.00    +0.005 A 
ATOM     29  C   UNL     1      -8.604  -5.671  12.991  0.00  0.00    +0.013 A 
BRANCH  18  19
ATOM     19  C   UNL     1      -6.626  -4.570   9.840  0.00  0.00    +0.119 C 
BRANCH  19  20
ATOM     20  N   UNL     1      -7.459  -3.950   8.767  0.00  0.00    -0.302 NA
ATOM     21  C   UNL     1      -7.397  -4.746   7.460  0.00  0.00    +0.066 C 
ATOM     22  C   UNL     1      -8.292  -4.096   6.355  0.00  0.00    -0.064 C 
ATOM     23  N   UNL     1      -7.849  -2.649   6.130  0.00  0.00    +0.379 N 
ATOM     24  C   UNL     1      -8.650  -2.053   5.051  0.00  0.00    -0.096 C 
ATOM     25  H   UNL     1      -6.787  -2.670   5.792  0.00  0.00    -0.082 HD
ATOM     26  C   UNL     1      -7.905  -1.852   7.426  0.00  0.00    -0.064 C 
ATOM     27  C   UNL     1      -7.036  -2.522   8.526  0.00  0.00    +0.066 C 
ENDBRANCH  19  20
ENDBRANCH  18  19
ENDBRANCH  14  15
ENDBRANCH  12  13
TORSDOF 6
ENDMDL
MODEL 3
REMARK VINA RESULT:      -9.9      1.782      2.253
REMARK  Name = C:\Users\Docking\Desktop\test protocol\1iep_ligandH.pdb
REMARK  8 active torsions:
REMARK  status: ('A' for Active; 'I' for Inactive)
REMARK    1  A    between atoms: _5  and  _11
REMARK    2  A    between atoms: _19  and  _21
REMARK    3  A    between atoms: _22  and  _66
REMARK    4  A    between atoms: _27  and  _30
REMARK    5  A    between atoms: _32  and  _33
REMARK    6  A    between atoms: _38  and  _43
REMARK    7  A    between atoms: _43  and  _46
REMARK    8  A    between atoms: _53  and  _55
REMARK                            x       y       z     vdW  Elec       q    Type
REMARK                         _______ _______ _______ _____ _____    ______ ____
ROOT
ATOM     10  C   UNL     1     -11.878  -9.013  17.240  0.00  0.00    +0.038 A 
ATOM     11  C   UNL     1     -10.978  -8.314  16.396  0.00  0.00    +0.047 A 
ATOM     12  C   UNL     1     -11.423  -7.190  15.587  0.00  0.00    +0.035 A 
ATOM     32  C   UNL     1     -12.793  -6.802  15.664  0.00  0.00    +0.024 A 
ATOM     33  C   UNL     1     -13.722  -7.502  16.516  0.00  0.00    +0.007 A 
ATOM     34  C   UNL     1     -13.288  -8.614  17.314  0.00  0.00    -0.029 A 
ATOM     35  C   UNL     1     -14.330  -9.331  18.205  0.00  0.00    +0.045 C 
ENDROOT
BRANCH  10   9
ATOM      4  C   UNL     1      -9.883 -10.839  21.205  0.00  0.00    +0.077 A 
ATOM      5  C   UNL     1      -9.766  -9.546  21.813  0.00  0.00    +0.048 A 
ATOM      6  C   UNL     1     -10.225  -8.435  21.070  0.00  0.00    +0.116 A 
ATOM      7  N   UNL     1     -10.759  -8.617  19.813  0.00  0.00    -0.223 NA
ATOM      8  C   UNL     1     -10.855  -9.878  19.254  0.00  0.00    +0.220 A 
ATOM      9  N   UNL     1     -11.396 -10.085  17.994  0.00  0.00    -0.283 N 
ATOM     36  H   UNL     1     -11.443 -11.030  17.615  0.00  0.00    +0.155 HD
ATOM     37  N   UNL     1     -10.423 -10.954  19.943  0.00  0.00    -0.214 NA
BRANCH   4   3
ATOM      1  C   UNL     1      -8.020 -13.409  23.492  0.00  0.00    +0.020 A 
ATOM      2  C   UNL     1      -8.404 -12.155  22.884  0.00  0.00    +0.013 A 
ATOM      3  C   UNL     1      -9.446 -12.110  21.866  0.00  0.00    +0.019 A 
ATOM     38  C   UNL     1     -10.085 -13.360  21.482  0.00  0.00    +0.120 A 
ATOM     39  N   UNL     1      -9.693 -14.552  22.084  0.00  0.00    -0.263 NA
ATOM     40  C   UNL     1      -8.690 -14.608  23.063  0.00  0.00    +0.111 A 
ENDBRANCH   4   3
ENDBRANCH  10   9
BRANCH  12  13
ATOM     13  N   UNL     1     -10.556  -6.447  14.706  0.00  0.00    -0.281 N 
ATOM     14  C   UNL     1      -9.998  -6.865  13.509  0.00  0.00    +0.248 C 
ATOM     30  O   UNL     1      -9.988  -8.023  13.118  0.00  0.00    -0.270 OA
ATOM     31  H   UNL     1     -10.326  -5.498  15.000  0.00  0.00    +0.155 HD
BRANCH  14  15
ATOM     15  C   UNL     1      -9.345  -5.853  12.624  0.00  0.00    +0.037 A 
ATOM     16  C   UNL     1      -8.069  -5.233  12.992  0.00  0.00    +0.013 A 
ATOM     17  C   UNL     1      -7.469  -4.247  12.129  0.00  0.00    +0.005 A 
ATOM     18  C   UNL     1      -8.144  -3.876  10.887  0.00  0.00    -0.033 A 
ATOM     28  C   UNL     1      -9.406  -4.511  10.544  0.00  0.00    +0.005 A 
ATOM     29  C   UNL     1      -9.998  -5.477  11.388  0.00  0.00    +0.013 A 
BRANCH  18  19
ATOM     19  C   UNL     1      -7.587  -2.818   9.916  0.00  0.00    +0.119 C 
BRANCH  19  20
ATOM     20  N   UNL     1      -7.064  -3.302   8.604  0.00  0.00    -0.302 NA
ATOM     21  C   UNL     1      -6.083  -4.466   8.770  0.00  0.00    +0.066 C 
ATOM     22  C   UNL     1      -5.563  -4.975   7.386  0.00  0.00    -0.064 C 
ATOM     23  N   UNL     1      -4.907  -3.816   6.633  0.00  0.00    +0.379 N 
ATOM     24  C   UNL     1      -4.366  -4.304   5.356  0.00  0.00    -0.096 C 
ATOM     25  H   UNL     1      -4.050  -3.456   7.249  0.00  0.00    -0.082 HD
ATOM     26  C   UNL     1      -5.875  -2.654   6.466  0.00  0.00    -0.064 C 
ATOM     27  C   UNL     1      -6.408  -2.175   7.845  0.00  0.00    +0.066 C 
ENDBRANCH  19  20
ENDBRANCH  18  19
ENDBRANCH  14  15
ENDBRANCH  12  13
TORSDOF 6
ENDMDL
MODEL 4
REMARK VINA RESULT:      -9.5      2.996      3.483
REMARK  Name = C:\Users\Docking\Desktop\test protocol\1iep_ligandH.pdb
REMARK  8 active torsions:
REMARK  status: ('A' for Active; 'I' for Inactive)
REMARK    1  A    between atoms: _5  and  _11
REMARK    2  A    between atoms: _19  and  _21
REMARK    3  A    between atoms: _22  and  _66
REMARK    4  A    between atoms: _27  and  _30
REMARK    5  A    between atoms: _32  and  _33
REMARK    6  A    between atoms: _38  and  _43
REMARK    7  A    between atoms: _43  and  _46
REMARK    8  A    between atoms: _53  and  _55
REMARK                            x       y       z     vdW  Elec       q    Type
REMARK                         _______ _______ _______ _____ _____    ______ ____
ROOT
ATOM     10  C   UNL     1     -11.647  -8.876  16.955  0.00  0.00    +0.038 A 
ATOM     11  C   UNL     1     -10.753  -8.240  16.057  0.00  0.00    +0.047 A 
ATOM     12  C   UNL     1     -11.187  -7.132  15.220  0.00  0.00    +0.035 A 
ATOM     32  C   UNL     1     -12.540  -6.697  15.325  0.00  0.00    +0.024 A 
ATOM     33  C   UNL     1     -13.463  -7.332  16.232  0.00  0.00    +0.007 A 
ATOM     34  C   UNL     1     -13.041  -8.427  17.059  0.00  0.00    -0.029 A 
ATOM     35  C   UNL     1     -14.075  -9.075  18.008  0.00  0.00    +0.045 C 
ENDROOT
BRANCH  10   9
ATOM      4  C   UNL     1      -9.953 -10.674  21.070  0.00  0.00    +0.077 A 
ATOM      5  C   UNL     1      -9.983  -9.392  21.712  0.00  0.00    +0.048 A 
ATOM      6  C   UNL     1     -10.434  -8.293  20.946  0.00  0.00    +0.116 A 
ATOM      7  N   UNL     1     -10.824  -8.476  19.637  0.00  0.00    -0.223 NA
ATOM      8  C   UNL     1     -10.781  -9.726  19.048  0.00  0.00    +0.220 A 
ATOM      9  N   UNL     1     -11.176  -9.934  17.736  0.00  0.00    -0.283 N 
ATOM     36  H   UNL     1     -11.122 -10.871  17.335  0.00  0.00    +0.155 HD
ATOM     37  N   UNL     1     -10.353 -10.791  19.758  0.00  0.00    -0.214 NA
BRANCH   4   3
ATOM      1  C   UNL     1      -8.007 -13.207  23.328  0.00  0.00    +0.020 A 
ATOM      2  C   UNL     1      -8.401 -11.967  22.700  0.00  0.00    +0.013 A 
ATOM      3  C   UNL     1      -9.504 -11.931  21.749  0.00  0.00    +0.019 A 
ATOM     38  C   UNL     1     -10.194 -13.177  21.452  0.00  0.00    +0.120 A 
ATOM     39  N   UNL     1      -9.792 -14.357  22.071  0.00  0.00    -0.263 NA
ATOM     40  C   UNL     1      -8.731 -14.404  22.987  0.00  0.00    +0.111 A 
ENDBRANCH   4   3
ENDBRANCH  10   9
BRANCH  12  13
ATOM     13  N   UNL     1     -10.326  -6.453  14.284  0.00  0.00    -0.281 N 
ATOM     14  C   UNL     1      -9.682  -6.985  13.179  0.00  0.00    +0.248 C 
ATOM     30  O   UNL     1      -9.578  -8.180  12.948  0.00  0.00    -0.270 OA
ATOM     31  H   UNL     1     -10.173  -5.460  14.457  0.00  0.00    +0.155 HD
BRANCH  14  15
ATOM     15  C   UNL     1      -9.051  -6.054  12.194  0.00  0.00    +0.037 A 
ATOM     16  C   UNL     1      -8.978  -6.390  10.770  0.00  0.00    +0.013 A 
ATOM     17  C   UNL     1      -8.348  -5.482   9.844  0.00  0.00    +0.005 A 
ATOM     18  C   UNL     1      -7.786  -4.228  10.341  0.00  0.00    -0.033 A 
ATOM     28  C   UNL     1      -7.876  -3.918  11.758  0.00  0.00    +0.005 A 
ATOM     29  C   UNL     1      -8.492  -4.806  12.669  0.00  0.00    +0.013 A 
BRANCH  18  19
ATOM     19  C   UNL     1      -7.077  -3.210   9.428  0.00  0.00    +0.119 C 
BRANCH  19  20
ATOM     20  N   UNL     1      -7.878  -2.042   8.955  0.00  0.00    -0.302 NA
ATOM     21  C   UNL     1      -7.592  -0.780   9.772  0.00  0.00    +0.066 C 
ATOM     22  C   UNL     1      -8.422   0.438   9.249  0.00  0.00    -0.064 C 
ATOM     23  N   UNL     1      -9.911   0.092   9.290  0.00  0.00    +0.379 N 
ATOM     24  C   UNL     1     -10.698   1.255   8.853  0.00  0.00    -0.096 C 
ATOM     25  H   UNL     1     -10.180  -0.119  10.352  0.00  0.00    -0.082 HD
ATOM     26  C   UNL     1     -10.205  -1.164   8.482  0.00  0.00    -0.064 C 
ATOM     27  C   UNL     1      -9.353  -2.361   8.991  0.00  0.00    +0.066 C 
ENDBRANCH  19  20
ENDBRANCH  18  19
ENDBRANCH  14  15
ENDBRANCH  12  13
TORSDOF 6
ENDMDL
MODEL 5
REMARK VINA RESULT:      -8.8      1.827     13.688
REMARK  Name = C:\Users\Docking\Desktop\test protocol\1iep_ligandH.pdb
REMARK  8 active torsions:
REMARK  status: ('A' for Active; 'I' for Inactive)
REMARK    1  A    between atoms: _5  and  _11
REMARK    2  A    between atoms: _19  and  _21
REMARK    3  A    between atoms: _22  and  _66
REMARK    4  A    between atoms: _27  and  _30
REMARK    5  A    between atoms: _32  and  _33
REMARK    6  A    between atoms: _38  and  _43
REMARK    7  A    between atoms: _43  and  _46
REMARK    8  A    between atoms: _53  and  _55
REMARK                            x       y       z     vdW  Elec       q    Type
REMARK                         _______ _______ _______ _____ _____    ______ ____
ROOT
ATOM     10  C   UNL     1      -6.751  -7.820   9.978  0.00  0.00    +0.038 A 
ATOM     11  C   UNL     1      -7.061  -7.674  11.354  0.00  0.00    +0.047 A 
ATOM     12  C   UNL     1      -8.198  -8.361  11.946  0.00  0.00    +0.035 A 
ATOM     32  C   UNL     1      -8.997  -9.192  11.108  0.00  0.00    +0.024 A 
ATOM     33  C   UNL     1      -8.697  -9.351   9.707  0.00  0.00    +0.007 A 
ATOM     34  C   UNL     1      -7.578  -8.673   9.116  0.00  0.00    -0.029 A 
ATOM     35  C   UNL     1      -7.307  -8.875   7.607  0.00  0.00    +0.045 C 
ENDROOT
BRANCH  10   9
ATOM      4  C   UNL     1      -4.774  -4.110   7.661  0.00  0.00    +0.077 A 
ATOM      5  C   UNL     1      -6.050  -3.494   7.436  0.00  0.00    +0.048 A 
ATOM      6  C   UNL     1      -7.191  -4.168   7.927  0.00  0.00    +0.116 A 
ATOM      7  N   UNL     1      -7.054  -5.367   8.591  0.00  0.00    -0.223 NA
ATOM      8  C   UNL     1      -5.809  -5.935   8.789  0.00  0.00    +0.220 A 
ATOM      9  N   UNL     1      -5.647  -7.137   9.462  0.00  0.00    -0.283 N 
ATOM     36  H   UNL     1      -4.713  -7.526   9.581  0.00  0.00    +0.155 HD
ATOM     37  N   UNL     1      -4.704  -5.312   8.329  0.00  0.00    -0.214 NA
BRANCH   4   3
ATOM      1  C   UNL     1      -0.965  -3.556   6.964  0.00  0.00    +0.020 A 
ATOM      2  C   UNL     1      -2.190  -4.169   7.424  0.00  0.00    +0.013 A 
ATOM      3  C   UNL     1      -3.476  -3.519   7.206  0.00  0.00    +0.019 A 
ATOM     38  C   UNL     1      -3.488  -2.240   6.513  0.00  0.00    +0.120 A 
ATOM     39  N   UNL     1      -2.292  -1.672   6.083  0.00  0.00    -0.263 NA
ATOM     40  C   UNL     1      -1.049  -2.288   6.289  0.00  0.00    +0.111 A 
ENDBRANCH   4   3
ENDBRANCH  10   9
BRANCH  12  13
ATOM     13  N   UNL     1      -8.566  -8.245  13.336  0.00  0.00    -0.281 N 
ATOM     14  C   UNL     1      -9.587  -7.487  13.886  0.00  0.00    +0.248 C 
ATOM     30  O   UNL     1     -10.206  -6.622  13.284  0.00  0.00    -0.270 OA
ATOM     31  H   UNL     1      -8.006  -8.787  13.994  0.00  0.00    +0.155 HD
BRANCH  14  15
ATOM     15  C   UNL     1      -9.964  -7.712  15.314  0.00  0.00    +0.037 A 
ATOM     16  C   UNL     1     -10.944  -6.854  15.985  0.00  0.00    +0.013 A 
ATOM     17  C   UNL     1     -11.277  -7.082  17.369  0.00  0.00    +0.005 A 
ATOM     18  C   UNL     1     -10.630  -8.175  18.091  0.00  0.00    -0.033 A 
ATOM     28  C   UNL     1      -9.665  -9.014  17.399  0.00  0.00    +0.005 A 
ATOM     29  C   UNL     1      -9.335  -8.792  16.043  0.00  0.00    +0.013 A 
BRANCH  18  19
ATOM     19  C   UNL     1     -10.908  -8.478  19.575  0.00  0.00    +0.119 C 
BRANCH  19  20
ATOM     20  N   UNL     1     -10.117  -9.574  20.210  0.00  0.00    -0.302 NA
ATOM     21  C   UNL     1     -10.959 -10.831  20.443  0.00  0.00    +0.066 C 
ATOM     22  C   UNL     1     -10.110 -11.974  21.087  0.00  0.00    -0.064 C 
ATOM     23  N   UNL     1      -9.503 -11.478  22.400  0.00  0.00    +0.379 N 
ATOM     24  C   UNL     1      -8.751 -12.569  23.037  0.00  0.00    -0.096 C 
ATOM     25  H   UNL     1     -10.344 -11.205  23.079  0.00  0.00    -0.082 HD
ATOM     26  C   UNL     1      -8.666 -10.226  22.178  0.00  0.00    -0.064 C 
ATOM     27  C   UNL     1      -9.512  -9.106  21.511  0.00  0.00    +0.066 C 
ENDBRANCH  19  20
ENDBRANCH  18  19
ENDBRANCH  14  15
ENDBRANCH  12  13
TORSDOF 6
ENDMDL
