MODEL 1
REMARK VINA RESULT:      -9.5      0.000      0.000
REMARK  Name = C:\Users\Docking\Desktop\test protocol\1iep_ligandH.pdb
REMARK  8 active torsions:
REMARK  status: ('A' for Active; 'I' for Inactive)
REMARK    1  A    between atoms: _5  and  _11
REMARK    2  A    between atoms: _19  and  _21
REMARK    3  A    between atoms: _22  and  _66
REMARK    4  A    between atoms: _27  and  _30
REMARK    5  A    between atoms: _32  and  _33
REMARK    6  A    between atoms: _38  and  _43
REMARK    7  A    between atoms: _43  and  _46
REMARK    8  A    between atoms: _53  and  _55
REMARK                            x       y       z     vdW  Elec       q    Type
REMARK                         _______ _______ _______ _____ _____    ______ ____
ROOT
ATOM     10  C   UNL     1      70.463  22.145  88.424  0.00  0.00    +0.038 A 
ATOM     11  C   UNL     1      69.124  21.679  88.393  0.00  0.00    +0.047 A 
ATOM     12  C   UNL     1      68.330  21.750  87.176  0.00  0.00    +0.035 A 
ATOM     32  C   UNL     1      68.933  22.299  86.007  0.00  0.00    +0.024 A 
ATOM     33  C   UNL     1      70.293  22.778  86.021  0.00  0.00    +0.007 A 
ATOM     34  C   UNL     1      71.080  22.713  87.219  0.00  0.00    -0.029 A 
ATOM     35  C   UNL     1      72.530  23.248  87.178  0.00  0.00    +0.045 C 
ENDROOT
BRANCH  10   9
ATOM      4  C   UNL     1      73.370  19.813  91.448  0.00  0.00    +0.077 A 
ATOM      5  C   UNL     1      73.448  18.669  90.585  0.00  0.00    +0.048 A 
ATOM      6  C   UNL     1      72.719  18.719  89.376  0.00  0.00    +0.116 A 
ATOM      7  N   UNL     1      71.972  19.834  89.063  0.00  0.00    -0.223 NA
ATOM      8  C   UNL     1      71.918  20.919  89.918  0.00  0.00    +0.220 A 
ATOM      9  N   UNL     1      71.179  22.053  89.620  0.00  0.00    -0.283 N 
ATOM     36  H   UNL     1      71.159  22.830  90.280  0.00  0.00    +0.155 HD
ATOM     37  N   UNL     1      72.603  20.896  91.080  0.00  0.00    -0.214 NA
BRANCH   4   3
ATOM      1  C   UNL     1      75.875  19.202  94.390  0.00  0.00    +0.020 A 
ATOM      2  C   UNL     1      75.218  19.064  93.110  0.00  0.00    +0.013 A 
ATOM      3  C   UNL     1      74.087  19.913  92.759  0.00  0.00    +0.019 A 
ATOM     38  C   UNL     1      73.642  20.900  93.732  0.00  0.00    +0.120 A 
ATOM     39  N   UNL     1      74.293  21.009  94.956  0.00  0.00    -0.263 NA
ATOM     40  C   UNL     1      75.382  20.196  95.306  0.00  0.00    +0.111 A 
ENDBRANCH   4   3
ENDBRANCH  10   9
BRANCH  12  13
ATOM     13  N   UNL     1      66.963  21.299  87.087  0.00  0.00    -0.281 N 
ATOM     14  C   UNL     1      66.432  20.356  86.224  0.00  0.00    +0.248 C 
ATOM     30  O   UNL     1      67.014  19.908  85.247  0.00  0.00    -0.270 OA
ATOM     31  H   UNL     1      66.308  21.729  87.741  0.00  0.00    +0.155 HD
BRANCH  14  15
ATOM     15  C   UNL     1      65.049  19.847  86.472  0.00  0.00    +0.037 A 
ATOM     16  C   UNL     1      64.123  20.562  87.355  0.00  0.00    +0.013 A 
ATOM     17  C   UNL     1      62.801  20.040  87.591  0.00  0.00    +0.005 A 
ATOM     18  C   UNL     1      62.395  18.795  86.942  0.00  0.00    -0.033 A 
ATOM     28  C   UNL     1      63.332  18.109  86.067  0.00  0.00    +0.005 A 
ATOM     29  C   UNL     1      64.629  18.617  85.834  0.00  0.00    +0.013 A 
BRANCH  18  19
ATOM     19  C   UNL     1      61.011  18.154  87.154  0.00  0.00    +0.119 C 
BRANCH  19  20
ATOM     20  N   UNL     1      60.269  17.711  85.935  0.00  0.00    -0.302 NA
ATOM     21  C   UNL     1      59.237  18.748  85.483  0.00  0.00    +0.066 C 
ATOM     22  C   UNL     1      58.486  18.279  84.195  0.00  0.00    -0.064 C 
ATOM     23  N   UNL     1      57.817  16.929  84.460  0.00  0.00    +0.379 N 
ATOM     24  C   UNL     1      57.062  16.513  83.270  0.00  0.00    -0.096 C 
ATOM     25  H   UNL     1      57.088  17.072  85.291  0.00  0.00    -0.082 HD
ATOM     26  C   UNL     1      58.836  15.893  84.913  0.00  0.00    -0.064 C 
ATOM     27  C   UNL     1      59.597  16.382  86.177  0.00  0.00    +0.066 C 
ENDBRANCH  19  20
ENDBRANCH  18  19
ENDBRANCH  14  15
ENDBRANCH  12  13
TORSDOF 6
ENDMDL
MODEL 2
REMARK VINA RESULT:      -8.1     21.453     28.371
REMARK  Name = C:\Users\Docking\Desktop\test protocol\1iep_ligandH.pdb
REMARK  8 active torsions:
REMARK  status: ('A' for Active; 'I' for Inactive)
REMARK    1  A    between atoms: _5  and  _11
REMARK    2  A    between atoms: _19  and  _21
REMARK    3  A    between atoms: _22  and  _66
REMARK    4  A    between atoms: _27  and  _30
REMARK    5  A    between atoms: _32  and  _33
REMARK    6  A    between atoms: _38  and  _43
REMARK    7  A    between atoms: _43  and  _46
REMARK    8  A    between atoms: _53  and  _55
REMARK                            x       y       z     vdW  Elec       q    Type
REMARK                         _______ _______ _______ _____ _____    ______ ____
ROOT
ATOM     10  C   UNL     1      86.270   4.865  92.164  0.00  0.00    +0.038 A 
ATOM     11  C   UNL     1      86.421   3.628  92.841  0.00  0.00    +0.047 A 
ATOM     12  C   UNL     1      87.445   3.446  93.858  0.00  0.00    +0.035 A 
ATOM     32  C   UNL     1      88.296   4.548  94.164  0.00  0.00    +0.024 A 
ATOM     33  C   UNL     1      88.157   5.813  93.486  0.00  0.00    +0.007 A 
ATOM     34  C   UNL     1      87.150   5.997  92.479  0.00  0.00    -0.029 A 
ATOM     35  C   UNL     1      87.051   7.372  91.780  0.00  0.00    +0.045 C 
ENDROOT
BRANCH  10   9
ATOM      4  C   UNL     1      81.709   5.589  90.856  0.00  0.00    +0.077 A 
ATOM      5  C   UNL     1      81.276   5.715  92.218  0.00  0.00    +0.048 A 
ATOM      6  C   UNL     1      82.258   5.580  93.226  0.00  0.00    +0.116 A 
ATOM      7  N   UNL     1      83.571   5.338  92.885  0.00  0.00    -0.223 NA
ATOM      8  C   UNL     1      83.954   5.219  91.562  0.00  0.00    +0.220 A 
ATOM      9  N   UNL     1      85.270   4.983  91.196  0.00  0.00    -0.283 N 
ATOM     36  H   UNL     1      85.511   4.895  90.209  0.00  0.00    +0.155 HD
ATOM     37  N   UNL     1      83.036   5.343  90.581  0.00  0.00    -0.214 NA
BRANCH   4   3
ATOM      1  C   UNL     1      79.696   7.021  87.824  0.00  0.00    +0.020 A 
ATOM      2  C   UNL     1      80.593   6.958  88.954  0.00  0.00    +0.013 A 
ATOM      3  C   UNL     1      80.791   5.710  89.680  0.00  0.00    +0.019 A 
ATOM     38  C   UNL     1      80.061   4.534  89.232  0.00  0.00    +0.120 A 
ATOM     39  N   UNL     1      79.202   4.625  88.141  0.00  0.00    -0.263 NA
ATOM     40  C   UNL     1      79.002   5.821  87.436  0.00  0.00    +0.111 A 
ENDBRANCH   4   3
ENDBRANCH  10   9
BRANCH  12  13
ATOM     13  N   UNL     1      87.651   2.211  94.572  0.00  0.00    -0.281 N 
ATOM     14  C   UNL     1      88.646   1.268  94.372  0.00  0.00    +0.248 C 
ATOM     30  O   UNL     1      89.388   1.241  93.402  0.00  0.00    -0.270 OA
ATOM     31  H   UNL     1      86.983   2.007  95.315  0.00  0.00    +0.155 HD
BRANCH  14  15
ATOM     15  C   UNL     1      88.834   0.190  95.391  0.00  0.00    +0.037 A 
ATOM     16  C   UNL     1      89.189  -1.176  94.996  0.00  0.00    +0.013 A 
ATOM     17  C   UNL     1      89.347  -2.200  95.997  0.00  0.00    +0.005 A 
ATOM     18  C   UNL     1      89.153  -1.862  97.405  0.00  0.00    -0.033 A 
ATOM     28  C   UNL     1      88.808  -0.498  97.770  0.00  0.00    +0.005 A 
ATOM     29  C   UNL     1      88.650   0.509  96.791  0.00  0.00    +0.013 A 
BRANCH  18  19
ATOM     19  C   UNL     1      89.282  -2.896  98.539  0.00  0.00    +0.119 C 
BRANCH  19  20
ATOM     20  N   UNL     1      88.023  -3.324  99.220  0.00  0.00    -0.302 NA
ATOM     21  C   UNL     1      88.295  -3.937 100.596  0.00  0.00    +0.066 C 
ATOM     22  C   UNL     1      86.966  -4.359 101.304  0.00  0.00    -0.064 C 
ATOM     23  N   UNL     1      86.207  -5.343 100.412  0.00  0.00    +0.379 N 
ATOM     24  C   UNL     1      84.985  -5.786 101.100  0.00  0.00    -0.096 C 
ATOM     25  H   UNL     1      86.857  -6.237 100.267  0.00  0.00    -0.082 HD
ATOM     26  C   UNL     1      85.935  -4.742  99.041  0.00  0.00    -0.064 C 
ATOM     27  C   UNL     1      87.260  -4.300  98.359  0.00  0.00    +0.066 C 
ENDBRANCH  19  20
ENDBRANCH  18  19
ENDBRANCH  14  15
ENDBRANCH  12  13
TORSDOF 6
ENDMDL
MODEL 3
REMARK VINA RESULT:      -7.9      2.267      3.087
REMARK  Name = C:\Users\Docking\Desktop\test protocol\1iep_ligandH.pdb
REMARK  8 active torsions:
REMARK  status: ('A' for Active; 'I' for Inactive)
REMARK    1  A    between atoms: _5  and  _11
REMARK    2  A    between atoms: _19  and  _21
REMARK    3  A    between atoms: _22  and  _66
REMARK    4  A    between atoms: _27  and  _30
REMARK    5  A    between atoms: _32  and  _33
REMARK    6  A    between atoms: _38  and  _43
REMARK    7  A    between atoms: _43  and  _46
REMARK    8  A    between atoms: _53  and  _55
REMARK                            x       y       z     vdW  Elec       q    Type
REMARK                         _______ _______ _______ _____ _____    ______ ____
ROOT
ATOM     10  C   UNL     1      72.018  21.946  87.279  0.00  0.00    +0.038 A 
ATOM     11  C   UNL     1      70.683  21.467  87.272  0.00  0.00    +0.047 A 
ATOM     12  C   UNL     1      69.683  22.038  86.384  0.00  0.00    +0.035 A 
ATOM     32  C   UNL     1      70.077  23.095  85.513  0.00  0.00    +0.024 A 
ATOM     33  C   UNL     1      71.430  23.596  85.507  0.00  0.00    +0.007 A 
ATOM     34  C   UNL     1      72.420  23.038  86.383  0.00  0.00    -0.029 A 
ATOM     35  C   UNL     1      73.853  23.618  86.339  0.00  0.00    +0.045 C 
ENDROOT
BRANCH  10   9
ATOM      4  C   UNL     1      73.972  21.408  91.630  0.00  0.00    +0.077 A 
ATOM      5  C   UNL     1      73.105  22.395  92.206  0.00  0.00    +0.048 A 
ATOM      6  C   UNL     1      72.175  23.023  91.347  0.00  0.00    +0.116 A 
ATOM      7  N   UNL     1      72.125  22.682  90.013  0.00  0.00    -0.223 NA
ATOM      8  C   UNL     1      72.976  21.726  89.489  0.00  0.00    +0.220 A 
ATOM      9  N   UNL     1      72.938  21.361  88.152  0.00  0.00    -0.283 N 
ATOM     36  H   UNL     1      73.588  20.658  87.803  0.00  0.00    +0.155 HD
ATOM     37  N   UNL     1      73.874  21.113  90.288  0.00  0.00    -0.214 NA
BRANCH   4   3
ATOM      1  C   UNL     1      77.392  20.063  92.968  0.00  0.00    +0.020 A 
ATOM      2  C   UNL     1      76.436  20.815  92.188  0.00  0.00    +0.013 A 
ATOM      3  C   UNL     1      75.005  20.654  92.409  0.00  0.00    +0.019 A 
ATOM     38  C   UNL     1      74.570  19.719  93.435  0.00  0.00    +0.120 A 
ATOM     39  N   UNL     1      75.513  19.008  94.170  0.00  0.00    -0.263 NA
ATOM     40  C   UNL     1      76.894  19.152  93.965  0.00  0.00    +0.111 A 
ENDBRANCH   4   3
ENDBRANCH  10   9
BRANCH  12  13
ATOM     13  N   UNL     1      68.311  21.598  86.339  0.00  0.00    -0.281 N 
ATOM     14  C   UNL     1      67.804  20.446  85.758  0.00  0.00    +0.248 C 
ATOM     30  O   UNL     1      68.431  19.722  85.000  0.00  0.00    -0.270 OA
ATOM     31  H   UNL     1      67.630  22.209  86.789  0.00  0.00    +0.155 HD
BRANCH  14  15
ATOM     15  C   UNL     1      66.393  20.050  86.051  0.00  0.00    +0.037 A 
ATOM     16  C   UNL     1      65.529  20.883  86.891  0.00  0.00    +0.013 A 
ATOM     17  C   UNL     1      64.177  20.470  87.172  0.00  0.00    +0.005 A 
ATOM     18  C   UNL     1      63.681  19.215  86.611  0.00  0.00    -0.033 A 
ATOM     28  C   UNL     1      64.558  18.411  85.777  0.00  0.00    +0.005 A 
ATOM     29  C   UNL     1      65.884  18.813  85.500  0.00  0.00    +0.013 A 
BRANCH  18  19
ATOM     19  C   UNL     1      62.259  18.685  86.875  0.00  0.00    +0.119 C 
BRANCH  19  20
ATOM     20  N   UNL     1      61.398  19.472  87.808  0.00  0.00    -0.302 NA
ATOM     21  C   UNL     1      61.603  19.057  89.268  0.00  0.00    +0.066 C 
ATOM     22  C   UNL     1      60.712  19.906  90.231  0.00  0.00    -0.064 C 
ATOM     23  N   UNL     1      59.244  19.758  89.827  0.00  0.00    +0.379 N 
ATOM     24  C   UNL     1      58.399  20.509  90.767  0.00  0.00    -0.096 C 
ATOM     25  H   UNL     1      58.976  18.680  89.918  0.00  0.00    -0.082 HD
ATOM     26  C   UNL     1      59.032  20.166  88.376  0.00  0.00    -0.064 C 
ATOM     27  C   UNL     1      59.944  19.337  87.430  0.00  0.00    +0.066 C 
ENDBRANCH  19  20
ENDBRANCH  18  19
ENDBRANCH  14  15
ENDBRANCH  12  13
TORSDOF 6
ENDMDL
MODEL 4
REMARK VINA RESULT:      -7.8      4.578     13.669
REMARK  Name = C:\Users\Docking\Desktop\test protocol\1iep_ligandH.pdb
REMARK  8 active torsions:
REMARK  status: ('A' for Active; 'I' for Inactive)
REMARK    1  A    between atoms: _5  and  _11
REMARK    2  A    between atoms: _19  and  _21
REMARK    3  A    between atoms: _22  and  _66
REMARK    4  A    between atoms: _27  and  _30
REMARK    5  A    between atoms: _32  and  _33
REMARK    6  A    between atoms: _38  and  _43
REMARK    7  A    between atoms: _43  and  _46
REMARK    8  A    between atoms: _53  and  _55
REMARK                            x       y       z     vdW  Elec       q    Type
REMARK                         _______ _______ _______ _____ _____    ______ ____
ROOT
ATOM     10  C   UNL     1      72.350  20.358  89.410  0.00  0.00    +0.038 A 
ATOM     11  C   UNL     1      72.129  20.792  90.741  0.00  0.00    +0.047 A 
ATOM     12  C   UNL     1      73.198  21.391  91.525  0.00  0.00    +0.035 A 
ATOM     32  C   UNL     1      74.480  21.535  90.920  0.00  0.00    +0.024 A 
ATOM     33  C   UNL     1      74.723  21.097  89.567  0.00  0.00    +0.007 A 
ATOM     34  C   UNL     1      73.673  20.504  88.790  0.00  0.00    -0.029 A 
ATOM     35  C   UNL     1      73.992  20.048  87.348  0.00  0.00    +0.045 C 
ENDROOT
BRANCH  10   9
ATOM      4  C   UNL     1      68.765  20.614  86.228  0.00  0.00    +0.077 A 
ATOM      5  C   UNL     1      69.013  22.003  85.972  0.00  0.00    +0.048 A 
ATOM      6  C   UNL     1      70.068  22.617  86.684  0.00  0.00    +0.116 A 
ATOM      7  N   UNL     1      70.813  21.885  87.584  0.00  0.00    -0.223 NA
ATOM      8  C   UNL     1      70.546  20.547  87.809  0.00  0.00    +0.220 A 
ATOM      9  N   UNL     1      71.287  19.790  88.703  0.00  0.00    -0.283 N 
ATOM     36  H   UNL     1      71.054  18.808  88.846  0.00  0.00    +0.155 HD
ATOM     37  N   UNL     1      69.543  19.939  87.142  0.00  0.00    -0.214 NA
BRANCH   4   3
ATOM      1  C   UNL     1      66.883  18.116  83.879  0.00  0.00    +0.020 A 
ATOM      2  C   UNL     1      67.960  18.852  84.500  0.00  0.00    +0.013 A 
ATOM      3  C   UNL     1      67.688  19.825  85.551  0.00  0.00    +0.019 A 
ATOM     38  C   UNL     1      66.305  20.029  85.954  0.00  0.00    +0.120 A 
ATOM     39  N   UNL     1      65.289  19.306  85.337  0.00  0.00    -0.263 NA
ATOM     40  C   UNL     1      65.538  18.369  84.323  0.00  0.00    +0.111 A 
ENDBRANCH   4   3
ENDBRANCH  10   9
BRANCH  12  13
ATOM     13  N   UNL     1      73.035  21.843  92.884  0.00  0.00    -0.281 N 
ATOM     14  C   UNL     1      73.547  21.274  94.039  0.00  0.00    +0.248 C 
ATOM     30  O   UNL     1      74.049  20.161  94.097  0.00  0.00    -0.270 OA
ATOM     31  H   UNL     1      72.473  22.686  93.011  0.00  0.00    +0.155 HD
BRANCH  14  15
ATOM     15  C   UNL     1      73.478  22.046  95.317  0.00  0.00    +0.037 A 
ATOM     16  C   UNL     1      74.695  22.465  96.018  0.00  0.00    +0.013 A 
ATOM     17  C   UNL     1      74.600  23.194  97.257  0.00  0.00    +0.005 A 
ATOM     18  C   UNL     1      73.283  23.510  97.804  0.00  0.00    -0.033 A 
ATOM     28  C   UNL     1      72.092  23.087  97.085  0.00  0.00    +0.005 A 
ATOM     29  C   UNL     1      72.181  22.371  95.870  0.00  0.00    +0.013 A 
BRANCH  18  19
ATOM     19  C   UNL     1      73.087  24.266  99.131  0.00  0.00    +0.119 C 
BRANCH  19  20
ATOM     20  N   UNL     1      72.867  23.445 100.359  0.00  0.00    -0.302 NA
ATOM     21  C   UNL     1      71.646  23.917 101.154  0.00  0.00    +0.066 C 
ATOM     22  C   UNL     1      71.416  23.034 102.423  0.00  0.00    -0.064 C 
ATOM     23  N   UNL     1      72.673  23.061 103.294  0.00  0.00    +0.379 N 
ATOM     24  C   UNL     1      72.440  22.278 104.517  0.00  0.00    -0.096 C 
ATOM     25  H   UNL     1      72.851  24.119 103.599  0.00  0.00    -0.082 HD
ATOM     26  C   UNL     1      73.892  22.595 102.511  0.00  0.00    -0.064 C 
ATOM     27  C   UNL     1      74.094  23.462 101.236  0.00  0.00    +0.066 C 
ENDBRANCH  19  20
ENDBRANCH  18  19
ENDBRANCH  14  15
ENDBRANCH  12  13
TORSDOF 6
ENDMDL
MODEL 5
REMARK VINA RESULT:      -7.7     18.737     29.293
REMARK  Name = C:\Users\Docking\Desktop\test protocol\1iep_ligandH.pdb
REMARK  8 active torsions:
REMARK  status: ('A' for Active; 'I' for Inactive)
REMARK    1  A    between atoms: _5  and  _11
REMARK    2  A    between atoms: _19  and  _21
REMARK    3  A    between atoms: _22  and  _66
REMARK    4  A    between atoms: _27  and  _30
REMARK    5  A    between atoms: _32  and  _33
REMARK    6  A    between atoms: _38  and  _43
REMARK    7  A    between atoms: _43  and  _46
REMARK    8  A    between atoms: _53  and  _55
REMARK                            x       y       z     vdW  Elec       q    Type
REMARK                         _______ _______ _______ _____ _____    ______ ____
ROOT
ATOM     10  C   UNL     1      48.928  -1.677  81.104  0.00  0.00    +0.038 A 
ATOM     11  C   UNL     1      49.172  -0.286  81.239  0.00  0.00    +0.047 A 
ATOM     12  C   UNL     1      49.908   0.450  80.223  0.00  0.00    +0.035 A 
ATOM     32  C   UNL     1      50.379  -0.261  79.081  0.00  0.00    +0.024 A 
ATOM     33  C   UNL     1      50.141  -1.675  78.929  0.00  0.00    +0.007 A 
ATOM     34  C   UNL     1      49.418  -2.407  79.929  0.00  0.00    -0.029 A 
ATOM     35  C   UNL     1      49.198  -3.923  79.717  0.00  0.00    +0.045 C 
ENDROOT
BRANCH  10   9
ATOM      4  C   UNL     1      44.834  -3.247  83.057  0.00  0.00    +0.077 A 
ATOM      5  C   UNL     1      44.045  -2.688  81.997  0.00  0.00    +0.048 A 
ATOM      6  C   UNL     1      44.731  -1.997  80.972  0.00  0.00    +0.116 A 
ATOM      7  N   UNL     1      46.103  -1.882  81.014  0.00  0.00    -0.223 NA
ATOM      8  C   UNL     1      46.834  -2.431  82.052  0.00  0.00    +0.220 A 
ATOM      9  N   UNL     1      48.216  -2.334  82.110  0.00  0.00    -0.283 N 
ATOM     36  H   UNL     1      48.717  -2.747  82.896  0.00  0.00    +0.155 HD
ATOM     37  N   UNL     1      46.203  -3.094  83.043  0.00  0.00    -0.214 NA
BRANCH   4   3
ATOM      1  C   UNL     1      44.055  -6.064  85.656  0.00  0.00    +0.020 A 
ATOM      2  C   UNL     1      44.644  -5.375  84.531  0.00  0.00    +0.013 A 
ATOM      3  C   UNL     1      44.255  -4.007  84.209  0.00  0.00    +0.019 A 
ATOM     38  C   UNL     1      43.261  -3.361  85.052  0.00  0.00    +0.120 A 
ATOM     39  N   UNL     1      42.710  -4.051  86.128  0.00  0.00    -0.263 NA
ATOM     40  C   UNL     1      43.075  -5.367  86.446  0.00  0.00    +0.111 A 
ENDBRANCH   4   3
ENDBRANCH  10   9
BRANCH  12  13
ATOM     13  N   UNL     1      50.193   1.861  80.309  0.00  0.00    -0.281 N 
ATOM     14  C   UNL     1      49.484   2.909  79.746  0.00  0.00    +0.248 C 
ATOM     30  O   UNL     1      48.612   2.778  78.900  0.00  0.00    -0.270 OA
ATOM     31  H   UNL     1      51.018   2.118  80.851  0.00  0.00    +0.155 HD
BRANCH  14  15
ATOM     15  C   UNL     1      49.798   4.306  80.173  0.00  0.00    +0.037 A 
ATOM     16  C   UNL     1      51.056   4.628  80.852  0.00  0.00    +0.013 A 
ATOM     17  C   UNL     1      51.327   5.981  81.269  0.00  0.00    +0.005 A 
ATOM     18  C   UNL     1      50.337   7.023  81.007  0.00  0.00    -0.033 A 
ATOM     28  C   UNL     1      49.100   6.677  80.328  0.00  0.00    +0.005 A 
ATOM     29  C   UNL     1      48.830   5.352  79.918  0.00  0.00    +0.013 A 
BRANCH  18  19
ATOM     19  C   UNL     1      50.533   8.490  81.436  0.00  0.00    +0.119 C 
BRANCH  19  20
ATOM     20  N   UNL     1      51.815   9.150  81.047  0.00  0.00    -0.302 NA
ATOM     21  C   UNL     1      52.523   9.781  82.249  0.00  0.00    +0.066 C 
ATOM     22  C   UNL     1      53.873  10.449  81.828  0.00  0.00    -0.064 C 
ATOM     23  N   UNL     1      53.605  11.496  80.746  0.00  0.00    +0.379 N 
ATOM     24  C   UNL     1      54.865  12.166  80.390  0.00  0.00    -0.096 C 
ATOM     25  H   UNL     1      52.925  12.264  81.181  0.00  0.00    -0.082 HD
ATOM     26  C   UNL     1      52.898  10.878  79.548  0.00  0.00    -0.064 C 
ATOM     27  C   UNL     1      51.573  10.192  79.982  0.00  0.00    +0.066 C 
ENDBRANCH  19  20
ENDBRANCH  18  19
ENDBRANCH  14  15
ENDBRANCH  12  13
TORSDOF 6
ENDMDL
