MODEL 1
REMARK VINA RESULT:      -7.5      0.000      0.000
REMARK  Name = C:\Users\Docking\Desktop\test protocol\1iep_ligandH.pdb
REMARK  8 active torsions:
REMARK  status: ('A' for Active; 'I' for Inactive)
REMARK    1  A    between atoms: _5  and  _11
REMARK    2  A    between atoms: _19  and  _21
REMARK    3  A    between atoms: _22  and  _66
REMARK    4  A    between atoms: _27  and  _30
REMARK    5  A    between atoms: _32  and  _33
REMARK    6  A    between atoms: _38  and  _43
REMARK    7  A    between atoms: _43  and  _46
REMARK    8  A    between atoms: _53  and  _55
REMARK                            x       y       z     vdW  Elec       q    Type
REMARK                         _______ _______ _______ _____ _____    ______ ____
ROOT
ATOM     10  C   UNL     1       4.927  89.944  20.781  0.00  0.00    +0.038 A 
ATOM     11  C   UNL     1       5.657  91.159  20.738  0.00  0.00    +0.047 A 
ATOM     12  C   UNL     1       5.093  92.355  20.131  0.00  0.00    +0.035 A 
ATOM     32  C   UNL     1       3.781  92.278  19.580  0.00  0.00    +0.024 A 
ATOM     33  C   UNL     1       3.026  91.050  19.614  0.00  0.00    +0.007 A 
ATOM     34  C   UNL     1       3.578  89.867  20.209  0.00  0.00    -0.029 A 
ATOM     35  C   UNL     1       2.725  88.577  20.212  0.00  0.00    +0.045 C 
ENDROOT
BRANCH  10   9
ATOM      4  C   UNL     1       6.044  87.287  24.620  0.00  0.00    +0.077 A 
ATOM      5  C   UNL     1       5.422  88.217  25.518  0.00  0.00    +0.048 A 
ATOM      6  C   UNL     1       4.833  89.370  24.953  0.00  0.00    +0.116 A 
ATOM      7  N   UNL     1       4.868  89.568  23.589  0.00  0.00    -0.223 NA
ATOM      8  C   UNL     1       5.477  88.652  22.751  0.00  0.00    +0.220 A 
ATOM      9  N   UNL     1       5.517  88.827  21.377  0.00  0.00    -0.283 N 
ATOM     36  H   UNL     1       5.983  88.132  20.793  0.00  0.00    +0.155 HD
ATOM     37  N   UNL     1       6.049  87.544  23.267  0.00  0.00    -0.214 NA
BRANCH   4   3
ATOM      1  C   UNL     1       8.698  84.709  25.888  0.00  0.00    +0.020 A 
ATOM      2  C   UNL     1       8.106  85.957  25.466  0.00  0.00    +0.013 A 
ATOM      3  C   UNL     1       6.706  86.021  25.065  0.00  0.00    +0.019 A 
ATOM     38  C   UNL     1       5.926  84.793  25.103  0.00  0.00    +0.120 A 
ATOM     39  N   UNL     1       6.523  83.605  25.512  0.00  0.00    -0.263 NA
ATOM     40  C   UNL     1       7.870  83.531  25.899  0.00  0.00    +0.111 A 
ENDBRANCH   4   3
ENDBRANCH  10   9
BRANCH  12  13
ATOM     13  N   UNL     1       5.790  93.615  20.051  0.00  0.00    -0.281 N 
ATOM     14  C   UNL     1       5.638  94.725  20.864  0.00  0.00    +0.248 C 
ATOM     30  O   UNL     1       4.721  94.881  21.657  0.00  0.00    -0.270 OA
ATOM     31  H   UNL     1       6.480  93.697  19.304  0.00  0.00    +0.155 HD
BRANCH  14  15
ATOM     15  C   UNL     1       6.641  95.830  20.774  0.00  0.00    +0.037 A 
ATOM     16  C   UNL     1       7.964  95.608  20.185  0.00  0.00    +0.013 A 
ATOM     17  C   UNL     1       8.919  96.686  20.125  0.00  0.00    +0.005 A 
ATOM     18  C   UNL     1       8.553  97.997  20.656  0.00  0.00    -0.033 A 
ATOM     28  C   UNL     1       7.232  98.191  21.230  0.00  0.00    +0.005 A 
ATOM     29  C   UNL     1       6.294  97.136  21.291  0.00  0.00    +0.013 A 
BRANCH  18  19
ATOM     19  C   UNL     1       9.516  99.199  20.653  0.00  0.00    +0.119 C 
BRANCH  19  20
ATOM     20  N   UNL     1       8.945 100.534  21.004  0.00  0.00    -0.302 NA
ATOM     21  C   UNL     1       8.748 101.417  19.768  0.00  0.00    +0.066 C 
ATOM     22  C   UNL     1       8.129 102.800  20.150  0.00  0.00    -0.064 C 
ATOM     23  N   UNL     1       9.030 103.494  21.173  0.00  0.00    +0.379 N 
ATOM     24  C   UNL     1       8.481 104.820  21.491  0.00  0.00    -0.096 C 
ATOM     25  H   UNL     1      10.027 103.646  20.698  0.00  0.00    -0.082 HD
ATOM     26  C   UNL     1       9.233 102.622  22.404  0.00  0.00    -0.064 C 
ATOM     27  C   UNL     1       9.821 101.238  22.010  0.00  0.00    +0.066 C 
ENDBRANCH  19  20
ENDBRANCH  18  19
ENDBRANCH  14  15
ENDBRANCH  12  13
TORSDOF 6
ENDMDL
MODEL 2
REMARK VINA RESULT:      -7.5      1.832      2.702
REMARK  Name = C:\Users\Docking\Desktop\test protocol\1iep_ligandH.pdb
REMARK  8 active torsions:
REMARK  status: ('A' for Active; 'I' for Inactive)
REMARK    1  A    between atoms: _5  and  _11
REMARK    2  A    between atoms: _19  and  _21
REMARK    3  A    between atoms: _22  and  _66
REMARK    4  A    between atoms: _27  and  _30
REMARK    5  A    between atoms: _32  and  _33
REMARK    6  A    between atoms: _38  and  _43
REMARK    7  A    between atoms: _43  and  _46
REMARK    8  A    between atoms: _53  and  _55
REMARK                            x       y       z     vdW  Elec       q    Type
REMARK                         _______ _______ _______ _____ _____    ______ ____
ROOT
ATOM     10  C   UNL     1       5.862  91.498  19.874  0.00  0.00    +0.038 A 
ATOM     11  C   UNL     1       6.245  92.696  20.530  0.00  0.00    +0.047 A 
ATOM     12  C   UNL     1       6.070  93.992  19.893  0.00  0.00    +0.035 A 
ATOM     32  C   UNL     1       5.499  94.031  18.588  0.00  0.00    +0.024 A 
ATOM     33  C   UNL     1       5.105  92.823  17.906  0.00  0.00    +0.007 A 
ATOM     34  C   UNL     1       5.278  91.542  18.528  0.00  0.00    -0.029 A 
ATOM     35  C   UNL     1       4.844  90.280  17.747  0.00  0.00    +0.045 C 
ENDROOT
BRANCH  10   9
ATOM      4  C   UNL     1       4.327  87.913  22.671  0.00  0.00    +0.077 A 
ATOM      5  C   UNL     1       3.045  88.529  22.859  0.00  0.00    +0.048 A 
ATOM      6  C   UNL     1       2.824  89.772  22.224  0.00  0.00    +0.116 A 
ATOM      7  N   UNL     1       3.817  90.346  21.461  0.00  0.00    -0.223 NA
ATOM      8  C   UNL     1       5.043  89.726  21.302  0.00  0.00    +0.220 A 
ATOM      9  N   UNL     1       6.053  90.281  20.532  0.00  0.00    -0.283 N 
ATOM     36  H   UNL     1       6.946  89.796  20.446  0.00  0.00    +0.155 HD
ATOM     37  N   UNL     1       5.279  88.539  21.899  0.00  0.00    -0.214 NA
BRANCH   4   3
ATOM      1  C   UNL     1       4.688  84.076  23.340  0.00  0.00    +0.020 A 
ATOM      2  C   UNL     1       4.289  85.318  22.719  0.00  0.00    +0.013 A 
ATOM      3  C   UNL     1       4.711  86.597  23.274  0.00  0.00    +0.019 A 
ATOM     38  C   UNL     1       5.544  86.585  24.467  0.00  0.00    +0.120 A 
ATOM     39  N   UNL     1       5.912  85.374  25.044  0.00  0.00    -0.263 NA
ATOM     40  C   UNL     1       5.510  84.136  24.520  0.00  0.00    +0.111 A 
ENDBRANCH   4   3
ENDBRANCH  10   9
BRANCH  12  13
ATOM     13  N   UNL     1       6.447  95.241  20.507  0.00  0.00    -0.281 N 
ATOM     14  C   UNL     1       7.712  95.800  20.593  0.00  0.00    +0.248 C 
ATOM     30  O   UNL     1       8.749  95.205  20.340  0.00  0.00    -0.270 OA
ATOM     31  H   UNL     1       5.690  95.778  20.930  0.00  0.00    +0.155 HD
BRANCH  14  15
ATOM     15  C   UNL     1       7.844  97.221  21.038  0.00  0.00    +0.037 A 
ATOM     16  C   UNL     1       9.146  97.784  21.402  0.00  0.00    +0.013 A 
ATOM     17  C   UNL     1       9.244  99.153  21.844  0.00  0.00    +0.005 A 
ATOM     18  C   UNL     1       8.034  99.968  21.923  0.00  0.00    -0.033 A 
ATOM     28  C   UNL     1       6.756  99.385  21.551  0.00  0.00    +0.005 A 
ATOM     29  C   UNL     1       6.656  98.044  21.118  0.00  0.00    +0.013 A 
BRANCH  18  19
ATOM     19  C   UNL     1       8.041 101.431  22.404  0.00  0.00    +0.119 C 
BRANCH  19  20
ATOM     20  N   UNL     1       7.949 102.495  21.360  0.00  0.00    -0.302 NA
ATOM     21  C   UNL     1       8.801 102.168  20.130  0.00  0.00    +0.066 C 
ATOM     22  C   UNL     1       8.675 103.280  19.038  0.00  0.00    -0.064 C 
ATOM     23  N   UNL     1       9.082 104.628  19.638  0.00  0.00    +0.379 N 
ATOM     24  C   UNL     1       9.020 105.666  18.598  0.00  0.00    -0.096 C 
ATOM     25  H   UNL     1      10.143 104.544  19.969  0.00  0.00    -0.082 HD
ATOM     26  C   UNL     1       8.241 104.959  20.862  0.00  0.00    -0.064 C 
ATOM     27  C   UNL     1       8.350 103.833  21.929  0.00  0.00    +0.066 C 
ENDBRANCH  19  20
ENDBRANCH  18  19
ENDBRANCH  14  15
ENDBRANCH  12  13
TORSDOF 6
ENDMDL
MODEL 3
REMARK VINA RESULT:      -7.3      1.409      1.658
REMARK  Name = C:\Users\Docking\Desktop\test protocol\1iep_ligandH.pdb
REMARK  8 active torsions:
REMARK  status: ('A' for Active; 'I' for Inactive)
REMARK    1  A    between atoms: _5  and  _11
REMARK    2  A    between atoms: _19  and  _21
REMARK    3  A    between atoms: _22  and  _66
REMARK    4  A    between atoms: _27  and  _30
REMARK    5  A    between atoms: _32  and  _33
REMARK    6  A    between atoms: _38  and  _43
REMARK    7  A    between atoms: _43  and  _46
REMARK    8  A    between atoms: _53  and  _55
REMARK                            x       y       z     vdW  Elec       q    Type
REMARK                         _______ _______ _______ _____ _____    ______ ____
ROOT
ATOM     10  C   UNL     1       4.783  89.346  21.156  0.00  0.00    +0.038 A 
ATOM     11  C   UNL     1       5.450  90.545  20.795  0.00  0.00    +0.047 A 
ATOM     12  C   UNL     1       4.728  91.657  20.196  0.00  0.00    +0.035 A 
ATOM     32  C   UNL     1       3.326  91.515  19.981  0.00  0.00    +0.024 A 
ATOM     33  C   UNL     1       2.632  90.304  20.341  0.00  0.00    +0.007 A 
ATOM     34  C   UNL     1       3.340  89.202  20.930  0.00  0.00    -0.029 A 
ATOM     35  C   UNL     1       2.546  87.925  21.290  0.00  0.00    +0.045 C 
ENDROOT
BRANCH  10   9
ATOM      4  C   UNL     1       6.562  87.008  24.951  0.00  0.00    +0.077 A 
ATOM      5  C   UNL     1       5.986  87.945  25.873  0.00  0.00    +0.048 A 
ATOM      6  C   UNL     1       5.245  89.019  25.329  0.00  0.00    +0.116 A 
ATOM      7  N   UNL     1       5.098  89.136  23.964  0.00  0.00    -0.223 NA
ATOM      8  C   UNL     1       5.667  88.216  23.103  0.00  0.00    +0.220 A 
ATOM      9  N   UNL     1       5.525  88.310  21.727  0.00  0.00    -0.283 N 
ATOM     36  H   UNL     1       5.967  87.616  21.126  0.00  0.00    +0.155 HD
ATOM     37  N   UNL     1       6.381  87.183  23.597  0.00  0.00    -0.214 NA
BRANCH   4   3
ATOM      1  C   UNL     1       9.549  84.684  25.938  0.00  0.00    +0.020 A 
ATOM      2  C   UNL     1       8.817  85.860  25.528  0.00  0.00    +0.013 A 
ATOM      3  C   UNL     1       7.369  85.820  25.372  0.00  0.00    +0.019 A 
ATOM     38  C   UNL     1       6.685  84.563  25.642  0.00  0.00    +0.120 A 
ATOM     39  N   UNL     1       7.417  83.446  26.033  0.00  0.00    -0.263 NA
ATOM     40  C   UNL     1       8.811  83.473  26.185  0.00  0.00    +0.111 A 
ENDBRANCH   4   3
ENDBRANCH  10   9
BRANCH  12  13
ATOM     13  N   UNL     1       5.354  92.895  19.802  0.00  0.00    -0.281 N 
ATOM     14  C   UNL     1       5.448  94.071  20.528  0.00  0.00    +0.248 C 
ATOM     30  O   UNL     1       4.818  94.304  21.549  0.00  0.00    -0.270 OA
ATOM     31  H   UNL     1       5.778  92.906  18.874  0.00  0.00    +0.155 HD
BRANCH  14  15
ATOM     15  C   UNL     1       6.363  95.148  20.043  0.00  0.00    +0.037 A 
ATOM     16  C   UNL     1       7.794  95.129  20.357  0.00  0.00    +0.013 A 
ATOM     17  C   UNL     1       8.651  96.190  19.890  0.00  0.00    +0.005 A 
ATOM     18  C   UNL     1       8.078  97.279  19.103  0.00  0.00    -0.033 A 
ATOM     28  C   UNL     1       6.657  97.270  18.801  0.00  0.00    +0.005 A 
ATOM     29  C   UNL     1       5.813  96.233  19.258  0.00  0.00    +0.013 A 
BRANCH  18  19
ATOM     19  C   UNL     1       8.914  98.463  18.582  0.00  0.00    +0.119 C 
BRANCH  19  20
ATOM     20  N   UNL     1       9.241  99.549  19.553  0.00  0.00    -0.302 NA
ATOM     21  C   UNL     1      10.634  99.375  20.163  0.00  0.00    +0.066 C 
ATOM     22  C   UNL     1      10.969 100.532  21.159  0.00  0.00    -0.064 C 
ATOM     23  N   UNL     1       9.901 100.583  22.254  0.00  0.00    +0.379 N 
ATOM     24  C   UNL     1      10.244 101.633  23.225  0.00  0.00    -0.096 C 
ATOM     25  H   UNL     1       9.921  99.606  22.790  0.00  0.00    -0.082 HD
ATOM     26  C   UNL     1       8.512 100.754  21.656  0.00  0.00    -0.064 C 
ATOM     27  C   UNL     1       8.201  99.615  20.645  0.00  0.00    +0.066 C 
ENDBRANCH  19  20
ENDBRANCH  18  19
ENDBRANCH  14  15
ENDBRANCH  12  13
TORSDOF 6
ENDMDL
MODEL 4
REMARK VINA RESULT:      -7.2      3.671      6.095
REMARK  Name = C:\Users\Docking\Desktop\test protocol\1iep_ligandH.pdb
REMARK  8 active torsions:
REMARK  status: ('A' for Active; 'I' for Inactive)
REMARK    1  A    between atoms: _5  and  _11
REMARK    2  A    between atoms: _19  and  _21
REMARK    3  A    between atoms: _22  and  _66
REMARK    4  A    between atoms: _27  and  _30
REMARK    5  A    between atoms: _32  and  _33
REMARK    6  A    between atoms: _38  and  _43
REMARK    7  A    between atoms: _43  and  _46
REMARK    8  A    between atoms: _53  and  _55
REMARK                            x       y       z     vdW  Elec       q    Type
REMARK                         _______ _______ _______ _____ _____    ______ ____
ROOT
ATOM     10  C   UNL     1       4.676  90.204  19.891  0.00  0.00    +0.038 A 
ATOM     11  C   UNL     1       5.535  91.321  19.724  0.00  0.00    +0.047 A 
ATOM     12  C   UNL     1       5.604  92.373  20.726  0.00  0.00    +0.035 A 
ATOM     32  C   UNL     1       4.785  92.256  21.886  0.00  0.00    +0.024 A 
ATOM     33  C   UNL     1       3.905  91.129  22.071  0.00  0.00    +0.007 A 
ATOM     34  C   UNL     1       3.831  90.088  21.085  0.00  0.00    -0.029 A 
ATOM     35  C   UNL     1       2.866  88.906  21.333  0.00  0.00    +0.045 C 
ENDROOT
BRANCH  10   9
ATOM      4  C   UNL     1       2.974  88.371  15.794  0.00  0.00    +0.077 A 
ATOM      5  C   UNL     1       2.038  89.446  15.633  0.00  0.00    +0.048 A 
ATOM      6  C   UNL     1       2.022  90.447  16.630  0.00  0.00    +0.116 A 
ATOM      7  N   UNL     1       2.882  90.369  17.704  0.00  0.00    -0.223 NA
ATOM      8  C   UNL     1       3.771  89.317  17.830  0.00  0.00    +0.220 A 
ATOM      9  N   UNL     1       4.651  89.223  18.897  0.00  0.00    -0.283 N 
ATOM     36  H   UNL     1       5.286  88.427  18.958  0.00  0.00    +0.155 HD
ATOM     37  N   UNL     1       3.805  88.348  16.892  0.00  0.00    -0.214 NA
BRANCH   4   3
ATOM      1  C   UNL     1       2.678  84.871  14.072  0.00  0.00    +0.020 A 
ATOM      2  C   UNL     1       2.514  85.930  15.042  0.00  0.00    +0.013 A 
ATOM      3  C   UNL     1       3.114  87.240  14.823  0.00  0.00    +0.019 A 
ATOM     38  C   UNL     1       3.880  87.448  13.604  0.00  0.00    +0.120 A 
ATOM     39  N   UNL     1       4.023  86.410  12.689  0.00  0.00    -0.263 NA
ATOM     40  C   UNL     1       3.451  85.144  12.889  0.00  0.00    +0.111 A 
ENDBRANCH   4   3
ENDBRANCH  10   9
BRANCH  12  13
ATOM     13  N   UNL     1       6.451  93.534  20.607  0.00  0.00    -0.281 N 
ATOM     14  C   UNL     1       6.118  94.785  20.114  0.00  0.00    +0.248 C 
ATOM     30  O   UNL     1       5.092  95.034  19.498  0.00  0.00    -0.270 OA
ATOM     31  H   UNL     1       7.413  93.420  20.926  0.00  0.00    +0.155 HD
BRANCH  14  15
ATOM     15  C   UNL     1       7.067  95.920  20.322  0.00  0.00    +0.037 A 
ATOM     16  C   UNL     1       8.518  95.715  20.277  0.00  0.00    +0.013 A 
ATOM     17  C   UNL     1       9.412  96.824  20.499  0.00  0.00    +0.005 A 
ATOM     18  C   UNL     1       8.857  98.149  20.766  0.00  0.00    -0.033 A 
ATOM     28  C   UNL     1       7.414  98.325  20.799  0.00  0.00    +0.005 A 
ATOM     29  C   UNL     1       6.535  97.240  20.584  0.00  0.00    +0.013 A 
BRANCH  18  19
ATOM     19  C   UNL     1       9.736  99.385  21.034  0.00  0.00    +0.119 C 
BRANCH  19  20
ATOM     20  N   UNL     1       9.044 100.703  21.156  0.00  0.00    -0.302 NA
ATOM     21  C   UNL     1       9.388 101.641  19.996  0.00  0.00    +0.066 C 
ATOM     22  C   UNL     1       8.638 103.007  20.127  0.00  0.00    -0.064 C 
ATOM     23  N   UNL     1       8.990 103.652  21.468  0.00  0.00    +0.379 N 
ATOM     24  C   UNL     1       8.332 104.963  21.570  0.00  0.00    -0.096 C 
ATOM     25  H   UNL     1      10.091 103.824  21.483  0.00  0.00    -0.082 HD
ATOM     26  C   UNL     1       8.653 102.724  22.627  0.00  0.00    -0.064 C 
ATOM     27  C   UNL     1       9.380 101.359  22.472  0.00  0.00    +0.066 C 
ENDBRANCH  19  20
ENDBRANCH  18  19
ENDBRANCH  14  15
ENDBRANCH  12  13
TORSDOF 6
ENDMDL
MODEL 5
REMARK VINA RESULT:      -7.2      6.524     10.948
REMARK  Name = C:\Users\Docking\Desktop\test protocol\1iep_ligandH.pdb
REMARK  8 active torsions:
REMARK  status: ('A' for Active; 'I' for Inactive)
REMARK    1  A    between atoms: _5  and  _11
REMARK    2  A    between atoms: _19  and  _21
REMARK    3  A    between atoms: _22  and  _66
REMARK    4  A    between atoms: _27  and  _30
REMARK    5  A    between atoms: _32  and  _33
REMARK    6  A    between atoms: _38  and  _43
REMARK    7  A    between atoms: _43  and  _46
REMARK    8  A    between atoms: _53  and  _55
REMARK                            x       y       z     vdW  Elec       q    Type
REMARK                         _______ _______ _______ _____ _____    ______ ____
ROOT
ATOM     10  C   UNL     1       4.109  88.617  22.575  0.00  0.00    +0.038 A 
ATOM     11  C   UNL     1       5.386  88.213  23.040  0.00  0.00    +0.047 A 
ATOM     12  C   UNL     1       5.791  88.438  24.419  0.00  0.00    +0.035 A 
ATOM     32  C   UNL     1       4.868  89.075  25.299  0.00  0.00    +0.024 A 
ATOM     33  C   UNL     1       3.565  89.493  24.842  0.00  0.00    +0.007 A 
ATOM     34  C   UNL     1       3.162  89.276  23.482  0.00  0.00    -0.029 A 
ATOM     35  C   UNL     1       1.756  89.751  23.047  0.00  0.00    +0.045 C 
ENDROOT
BRANCH  10   9
ATOM      4  C   UNL     1       4.239  89.737  17.910  0.00  0.00    +0.077 A 
ATOM      5  C   UNL     1       5.019  90.916  18.154  0.00  0.00    +0.048 A 
ATOM      6  C   UNL     1       5.360  91.202  19.494  0.00  0.00    +0.116 A 
ATOM      7  N   UNL     1       4.947  90.365  20.508  0.00  0.00    -0.223 NA
ATOM      8  C   UNL     1       4.193  89.237  20.238  0.00  0.00    +0.220 A 
ATOM      9  N   UNL     1       3.773  88.377  21.241  0.00  0.00    -0.283 N 
ATOM     36  H   UNL     1       3.212  87.559  21.002  0.00  0.00    +0.155 HD
ATOM     37  N   UNL     1       3.853  88.943  18.966  0.00  0.00    -0.214 NA
BRANCH   4   3
ATOM      1  C   UNL     1       3.434  87.542  14.773  0.00  0.00    +0.020 A 
ATOM      2  C   UNL     1       3.869  87.913  16.100  0.00  0.00    +0.013 A 
ATOM      3  C   UNL     1       3.802  89.299  16.546  0.00  0.00    +0.019 A 
ATOM     38  C   UNL     1       3.284  90.293  15.618  0.00  0.00    +0.120 A 
ATOM     39  N   UNL     1       2.874  89.907  14.346  0.00  0.00    -0.263 NA
ATOM     40  C   UNL     1       2.936  88.576  13.905  0.00  0.00    +0.111 A 
ENDBRANCH   4   3
ENDBRANCH  10   9
BRANCH  12  13
ATOM     13  N   UNL     1       7.078  88.056  24.946  0.00  0.00    -0.281 N 
ATOM     14  C   UNL     1       7.565  86.777  25.160  0.00  0.00    +0.248 C 
ATOM     30  O   UNL     1       6.883  85.764  25.130  0.00  0.00    -0.270 OA
ATOM     31  H   UNL     1       7.705  88.822  25.191  0.00  0.00    +0.155 HD
BRANCH  14  15
ATOM     15  C   UNL     1       9.017  86.600  25.466  0.00  0.00    +0.037 A 
ATOM     16  C   UNL     1       9.548  85.309  25.910  0.00  0.00    +0.013 A 
ATOM     17  C   UNL     1      10.950  85.169  26.215  0.00  0.00    +0.005 A 
ATOM     18  C   UNL     1      11.832  86.326  26.075  0.00  0.00    -0.033 A 
ATOM     28  C   UNL     1      11.280  87.594  25.628  0.00  0.00    +0.005 A 
ATOM     29  C   UNL     1       9.906  87.734  25.329  0.00  0.00    +0.013 A 
BRANCH  18  19
ATOM     19  C   UNL     1      13.337  86.274  26.399  0.00  0.00    +0.119 C 
BRANCH  19  20
ATOM     20  N   UNL     1      14.015  87.569  26.705  0.00  0.00    -0.302 NA
ATOM     21  C   UNL     1      15.451  87.605  26.174  0.00  0.00    +0.066 C 
ATOM     22  C   UNL     1      16.138  88.975  26.484  0.00  0.00    -0.064 C 
ATOM     23  N   UNL     1      16.112  89.226  27.992  0.00  0.00    +0.379 N 
ATOM     24  C   UNL     1      16.809  90.485  28.292  0.00  0.00    -0.096 C 
ATOM     25  H   UNL     1      16.679  88.400  28.482  0.00  0.00    -0.082 HD
ATOM     26  C   UNL     1      14.688  89.189  28.529  0.00  0.00    -0.064 C 
ATOM     27  C   UNL     1      14.005  87.835  28.190  0.00  0.00    +0.066 C 
ENDBRANCH  19  20
ENDBRANCH  18  19
ENDBRANCH  14  15
ENDBRANCH  12  13
TORSDOF 6
ENDMDL
