MODEL 1
REMARK VINA RESULT:      -7.8      0.000      0.000
REMARK  Name = C:\Users\Docking\Desktop\test protocol\1iep_ligandH.pdb
REMARK  8 active torsions:
REMARK  status: ('A' for Active; 'I' for Inactive)
REMARK    1  A    between atoms: _5  and  _11
REMARK    2  A    between atoms: _19  and  _21
REMARK    3  A    between atoms: _22  and  _66
REMARK    4  A    between atoms: _27  and  _30
REMARK    5  A    between atoms: _32  and  _33
REMARK    6  A    between atoms: _38  and  _43
REMARK    7  A    between atoms: _43  and  _46
REMARK    8  A    between atoms: _53  and  _55
REMARK                            x       y       z     vdW  Elec       q    Type
REMARK                         _______ _______ _______ _____ _____    ______ ____
ROOT
ATOM     10  C   UNL     1     -19.287  35.231 -42.900  0.00  0.00    +0.038 A 
ATOM     11  C   UNL     1     -19.017  34.522 -44.098  0.00  0.00    +0.047 A 
ATOM     12  C   UNL     1     -18.699  35.222 -45.332  0.00  0.00    +0.035 A 
ATOM     32  C   UNL     1     -18.663  36.647 -45.310  0.00  0.00    +0.024 A 
ATOM     33  C   UNL     1     -18.936  37.384 -44.101  0.00  0.00    +0.007 A 
ATOM     34  C   UNL     1     -19.253  36.699 -42.881  0.00  0.00    -0.029 A 
ATOM     35  C   UNL     1     -19.543  37.541 -41.617  0.00  0.00    +0.045 C 
ENDROOT
BRANCH  10   9
ATOM      4  C   UNL     1     -22.053  32.215 -40.392  0.00  0.00    +0.077 A 
ATOM      5  C   UNL     1     -22.995  32.091 -41.467  0.00  0.00    +0.048 A 
ATOM      6  C   UNL     1     -22.735  32.825 -42.646  0.00  0.00    +0.116 A 
ATOM      7  N   UNL     1     -21.613  33.621 -42.732  0.00  0.00    -0.223 NA
ATOM      8  C   UNL     1     -20.726  33.720 -41.676  0.00  0.00    +0.220 A 
ATOM      9  N   UNL     1     -19.587  34.508 -41.743  0.00  0.00    -0.283 N 
ATOM     36  H   UNL     1     -18.961  34.559 -40.940  0.00  0.00    +0.155 HD
ATOM     37  N   UNL     1     -20.952  33.029 -40.539  0.00  0.00    -0.214 NA
BRANCH   4   3
ATOM      1  C   UNL     1     -23.317  29.852 -37.543  0.00  0.00    +0.020 A 
ATOM      2  C   UNL     1     -23.231  30.515 -38.823  0.00  0.00    +0.013 A 
ATOM      3  C   UNL     1     -22.188  31.499 -39.084  0.00  0.00    +0.019 A 
ATOM     38  C   UNL     1     -21.239  31.789 -38.020  0.00  0.00    +0.120 A 
ATOM     39  N   UNL     1     -21.347  31.136 -36.797  0.00  0.00    -0.263 NA
ATOM     40  C   UNL     1     -22.348  30.189 -36.533  0.00  0.00    +0.111 A 
ENDBRANCH   4   3
ENDBRANCH  10   9
BRANCH  12  13
ATOM     13  N   UNL     1     -18.424  34.556 -46.581  0.00  0.00    -0.281 N 
ATOM     14  C   UNL     1     -17.314  34.700 -47.396  0.00  0.00    +0.248 C 
ATOM     30  O   UNL     1     -16.482  35.588 -47.281  0.00  0.00    -0.270 OA
ATOM     31  H   UNL     1     -19.134  33.898 -46.902  0.00  0.00    +0.155 HD
BRANCH  14  15
ATOM     15  C   UNL     1     -17.104  33.725 -48.509  0.00  0.00    +0.037 A 
ATOM     16  C   UNL     1     -15.768  33.473 -49.058  0.00  0.00    +0.013 A 
ATOM     17  C   UNL     1     -15.596  32.540 -50.143  0.00  0.00    +0.005 A 
ATOM     18  C   UNL     1     -16.764  31.849 -50.686  0.00  0.00    -0.033 A 
ATOM     28  C   UNL     1     -18.076  32.113 -50.119  0.00  0.00    +0.005 A 
ATOM     29  C   UNL     1     -18.249  33.028 -49.056  0.00  0.00    +0.013 A 
BRANCH  18  19
ATOM     19  C   UNL     1     -16.676  30.853 -51.857  0.00  0.00    +0.119 C 
BRANCH  19  20
ATOM     20  N   UNL     1     -16.536  29.406 -51.515  0.00  0.00    -0.302 NA
ATOM     21  C   UNL     1     -17.889  28.690 -51.484  0.00  0.00    +0.066 C 
ATOM     22  C   UNL     1     -17.722  27.172 -51.146  0.00  0.00    -0.064 C 
ATOM     23  N   UNL     1     -17.002  27.027 -49.805  0.00  0.00    +0.379 N 
ATOM     24  C   UNL     1     -16.895  25.603 -49.457  0.00  0.00    -0.096 C 
ATOM     25  H   UNL     1     -17.632  27.519 -49.028  0.00  0.00    -0.082 HD
ATOM     26  C   UNL     1     -15.656  27.739 -49.826  0.00  0.00    -0.064 C 
ATOM     27  C   UNL     1     -15.831  29.240 -50.191  0.00  0.00    +0.066 C 
ENDBRANCH  19  20
ENDBRANCH  18  19
ENDBRANCH  14  15
ENDBRANCH  12  13
TORSDOF 6
ENDMDL
MODEL 2
REMARK VINA RESULT:      -7.6      4.579     10.648
REMARK  Name = C:\Users\Docking\Desktop\test protocol\1iep_ligandH.pdb
REMARK  8 active torsions:
REMARK  status: ('A' for Active; 'I' for Inactive)
REMARK    1  A    between atoms: _5  and  _11
REMARK    2  A    between atoms: _19  and  _21
REMARK    3  A    between atoms: _22  and  _66
REMARK    4  A    between atoms: _27  and  _30
REMARK    5  A    between atoms: _32  and  _33
REMARK    6  A    between atoms: _38  and  _43
REMARK    7  A    between atoms: _43  and  _46
REMARK    8  A    between atoms: _53  and  _55
REMARK                            x       y       z     vdW  Elec       q    Type
REMARK                         _______ _______ _______ _____ _____    ______ ____
ROOT
ATOM     10  C   UNL     1     -20.052  33.966 -40.672  0.00  0.00    +0.038 A 
ATOM     11  C   UNL     1     -20.664  32.710 -40.430  0.00  0.00    +0.047 A 
ATOM     12  C   UNL     1     -21.524  32.502 -39.275  0.00  0.00    +0.035 A 
ATOM     32  C   UNL     1     -21.742  33.596 -38.389  0.00  0.00    +0.024 A 
ATOM     33  C   UNL     1     -21.127  34.880 -38.619  0.00  0.00    +0.007 A 
ATOM     34  C   UNL     1     -20.275  35.091 -39.755  0.00  0.00    -0.029 A 
ATOM     35  C   UNL     1     -19.638  36.486 -39.949  0.00  0.00    +0.045 C 
ENDROOT
BRANCH  10   9
ATOM      4  C   UNL     1     -19.391  34.928 -45.327  0.00  0.00    +0.077 A 
ATOM      5  C   UNL     1     -20.793  35.135 -45.545  0.00  0.00    +0.048 A 
ATOM      6  C   UNL     1     -21.652  34.977 -44.434  0.00  0.00    +0.116 A 
ATOM      7  N   UNL     1     -21.136  34.638 -43.202  0.00  0.00    -0.223 NA
ATOM      8  C   UNL     1     -19.778  34.444 -43.027  0.00  0.00    +0.220 A 
ATOM      9  N   UNL     1     -19.236  34.110 -41.796  0.00  0.00    -0.283 N 
ATOM     36  H   UNL     1     -18.230  33.969 -41.709  0.00  0.00    +0.155 HD
ATOM     37  N   UNL     1     -18.937  34.588 -44.073  0.00  0.00    -0.214 NA
BRANCH   4   3
ATOM      1  C   UNL     1     -17.336  34.415 -48.616  0.00  0.00    +0.020 A 
ATOM      2  C   UNL     1     -18.358  34.246 -47.609  0.00  0.00    +0.013 A 
ATOM      3  C   UNL     1     -18.356  35.062 -46.401  0.00  0.00    +0.019 A 
ATOM     38  C   UNL     1     -17.298  36.047 -46.242  0.00  0.00    +0.120 A 
ATOM     39  N   UNL     1     -16.326  36.187 -47.228  0.00  0.00    -0.263 NA
ATOM     40  C   UNL     1     -16.317  35.406 -48.394  0.00  0.00    +0.111 A 
ENDBRANCH   4   3
ENDBRANCH  10   9
BRANCH  12  13
ATOM     13  N   UNL     1     -22.166  31.246 -38.974  0.00  0.00    -0.281 N 
ATOM     14  C   UNL     1     -23.440  30.835 -39.326  0.00  0.00    +0.248 C 
ATOM     30  O   UNL     1     -24.305  31.573 -39.775  0.00  0.00    -0.270 OA
ATOM     31  H   UNL     1     -21.613  30.580 -38.434  0.00  0.00    +0.155 HD
BRANCH  14  15
ATOM     15  C   UNL     1     -23.813  29.399 -39.141  0.00  0.00    +0.037 A 
ATOM     16  C   UNL     1     -23.556  28.705 -37.877  0.00  0.00    +0.013 A 
ATOM     17  C   UNL     1     -23.910  27.315 -37.730  0.00  0.00    +0.005 A 
ATOM     18  C   UNL     1     -24.528  26.611 -38.851  0.00  0.00    -0.033 A 
ATOM     28  C   UNL     1     -24.777  27.326 -40.092  0.00  0.00    +0.005 A 
ATOM     29  C   UNL     1     -24.430  28.688 -40.240  0.00  0.00    +0.013 A 
BRANCH  18  19
ATOM     19  C   UNL     1     -24.919  25.123 -38.791  0.00  0.00    +0.119 C 
BRANCH  19  20
ATOM     20  N   UNL     1     -23.927  24.133 -39.306  0.00  0.00    -0.302 NA
ATOM     21  C   UNL     1     -24.308  23.606 -40.692  0.00  0.00    +0.066 C 
ATOM     22  C   UNL     1     -23.248  22.589 -41.226  0.00  0.00    -0.064 C 
ATOM     23  N   UNL     1     -23.102  21.438 -40.230  0.00  0.00    +0.379 N 
ATOM     24  C   UNL     1     -22.148  20.451 -40.756  0.00  0.00    -0.096 C 
ATOM     25  H   UNL     1     -24.094  20.937 -40.144  0.00  0.00    -0.082 HD
ATOM     26  C   UNL     1     -22.725  21.954 -38.848  0.00  0.00    -0.064 C 
ATOM     27  C   UNL     1     -23.770  22.986 -38.339  0.00  0.00    +0.066 C 
ENDBRANCH  19  20
ENDBRANCH  18  19
ENDBRANCH  14  15
ENDBRANCH  12  13
TORSDOF 6
ENDMDL
MODEL 3
REMARK VINA RESULT:      -7.5     12.301     16.016
REMARK  Name = C:\Users\Docking\Desktop\test protocol\1iep_ligandH.pdb
REMARK  8 active torsions:
REMARK  status: ('A' for Active; 'I' for Inactive)
REMARK    1  A    between atoms: _5  and  _11
REMARK    2  A    between atoms: _19  and  _21
REMARK    3  A    between atoms: _22  and  _66
REMARK    4  A    between atoms: _27  and  _30
REMARK    5  A    between atoms: _32  and  _33
REMARK    6  A    between atoms: _38  and  _43
REMARK    7  A    between atoms: _43  and  _46
REMARK    8  A    between atoms: _53  and  _55
REMARK                            x       y       z     vdW  Elec       q    Type
REMARK                         _______ _______ _______ _____ _____    ______ ____
ROOT
ATOM     10  C   UNL     1     -11.344  29.850 -41.512  0.00  0.00    +0.038 A 
ATOM     11  C   UNL     1     -10.741  29.415 -40.304  0.00  0.00    +0.047 A 
ATOM     12  C   UNL     1     -10.232  28.059 -40.163  0.00  0.00    +0.035 A 
ATOM     32  C   UNL     1     -10.351  27.174 -41.274  0.00  0.00    +0.024 A 
ATOM     33  C   UNL     1     -10.962  27.599 -42.509  0.00  0.00    +0.007 A 
ATOM     34  C   UNL     1     -11.468  28.934 -42.653  0.00  0.00    -0.029 A 
ATOM     35  C   UNL     1     -12.119  29.334 -43.998  0.00  0.00    +0.045 C 
ENDROOT
BRANCH  10   9
ATOM      4  C   UNL     1     -10.731  34.517 -42.452  0.00  0.00    +0.077 A 
ATOM      5  C   UNL     1      -9.348  34.329 -42.785  0.00  0.00    +0.048 A 
ATOM      6  C   UNL     1      -8.832  33.017 -42.694  0.00  0.00    +0.116 A 
ATOM      7  N   UNL     1      -9.646  31.978 -42.300  0.00  0.00    -0.223 NA
ATOM      8  C   UNL     1     -10.975  32.194 -41.984  0.00  0.00    +0.220 A 
ATOM      9  N   UNL     1     -11.815  31.162 -41.593  0.00  0.00    -0.283 N 
ATOM     36  H   UNL     1     -12.787  31.364 -41.361  0.00  0.00    +0.155 HD
ATOM     37  N   UNL     1     -11.492  33.438 -42.061  0.00  0.00    -0.214 NA
BRANCH   4   3
ATOM      1  C   UNL     1     -11.853  38.104 -43.536  0.00  0.00    +0.020 A 
ATOM      2  C   UNL     1     -11.156  36.838 -43.533  0.00  0.00    +0.013 A 
ATOM      3  C   UNL     1     -11.424  35.843 -42.502  0.00  0.00    +0.019 A 
ATOM     38  C   UNL     1     -12.411  36.162 -41.481  0.00  0.00    +0.120 A 
ATOM     39  N   UNL     1     -13.065  37.390 -41.509  0.00  0.00    -0.263 NA
ATOM     40  C   UNL     1     -12.815  38.356 -42.495  0.00  0.00    +0.111 A 
ENDBRANCH   4   3
ENDBRANCH  10   9
BRANCH  12  13
ATOM     13  N   UNL     1      -9.618  27.558 -38.958  0.00  0.00    -0.281 N 
ATOM     14  C   UNL     1      -8.283  27.618 -38.595  0.00  0.00    +0.248 C 
ATOM     30  O   UNL     1      -7.374  27.923 -39.352  0.00  0.00    -0.270 OA
ATOM     31  H   UNL     1     -10.244  27.105 -38.293  0.00  0.00    +0.155 HD
BRANCH  14  15
ATOM     15  C   UNL     1      -7.900  27.274 -37.192  0.00  0.00    +0.037 A 
ATOM     16  C   UNL     1      -8.286  25.995 -36.590  0.00  0.00    +0.013 A 
ATOM     17  C   UNL     1      -7.918  25.696 -35.229  0.00  0.00    +0.005 A 
ATOM     18  C   UNL     1      -7.159  26.679 -34.460  0.00  0.00    -0.033 A 
ATOM     28  C   UNL     1      -6.785  27.938 -35.083  0.00  0.00    +0.005 A 
ATOM     29  C   UNL     1      -7.145  28.235 -36.416  0.00  0.00    +0.013 A 
BRANCH  18  19
ATOM     19  C   UNL     1      -6.743  26.453 -32.994  0.00  0.00    +0.119 C 
BRANCH  19  20
ATOM     20  N   UNL     1      -6.651  27.658 -32.116  0.00  0.00    -0.302 NA
ATOM     21  C   UNL     1      -5.224  27.893 -31.611  0.00  0.00    +0.066 C 
ATOM     22  C   UNL     1      -5.142  29.170 -30.713  0.00  0.00    -0.064 C 
ATOM     23  N   UNL     1      -6.115  29.029 -29.541  0.00  0.00    +0.379 N 
ATOM     24  C   UNL     1      -5.998  30.202 -28.662  0.00  0.00    -0.096 C 
ATOM     25  H   UNL     1      -5.807  28.133 -28.952  0.00  0.00    -0.082 HD
ATOM     26  C   UNL     1      -7.535  28.792 -30.034  0.00  0.00    -0.064 C 
ATOM     27  C   UNL     1      -7.600  27.537 -30.950  0.00  0.00    +0.066 C 
ENDBRANCH  19  20
ENDBRANCH  18  19
ENDBRANCH  14  15
ENDBRANCH  12  13
TORSDOF 6
ENDMDL
MODEL 4
REMARK VINA RESULT:      -7.5      3.560      7.884
REMARK  Name = C:\Users\Docking\Desktop\test protocol\1iep_ligandH.pdb
REMARK  8 active torsions:
REMARK  status: ('A' for Active; 'I' for Inactive)
REMARK    1  A    between atoms: _5  and  _11
REMARK    2  A    between atoms: _19  and  _21
REMARK    3  A    between atoms: _22  and  _66
REMARK    4  A    between atoms: _27  and  _30
REMARK    5  A    between atoms: _32  and  _33
REMARK    6  A    between atoms: _38  and  _43
REMARK    7  A    between atoms: _43  and  _46
REMARK    8  A    between atoms: _53  and  _55
REMARK                            x       y       z     vdW  Elec       q    Type
REMARK                         _______ _______ _______ _____ _____    ______ ____
ROOT
ATOM     10  C   UNL     1     -22.565  30.696 -37.542  0.00  0.00    +0.038 A 
ATOM     11  C   UNL     1     -22.077  31.688 -38.431  0.00  0.00    +0.047 A 
ATOM     12  C   UNL     1     -22.465  31.698 -39.833  0.00  0.00    +0.035 A 
ATOM     32  C   UNL     1     -23.354  30.684 -40.296  0.00  0.00    +0.024 A 
ATOM     33  C   UNL     1     -23.859  29.668 -39.406  0.00  0.00    +0.007 A 
ATOM     34  C   UNL     1     -23.478  29.652 -38.022  0.00  0.00    -0.029 A 
ATOM     35  C   UNL     1     -24.044  28.535 -37.115  0.00  0.00    +0.045 C 
ENDROOT
BRANCH  10   9
ATOM      4  C   UNL     1     -23.125  32.105 -32.988  0.00  0.00    +0.077 A 
ATOM      5  C   UNL     1     -24.310  32.850 -33.302  0.00  0.00    +0.048 A 
ATOM      6  C   UNL     1     -24.738  32.851 -34.649  0.00  0.00    +0.116 A 
ATOM      7  N   UNL     1     -24.027  32.155 -35.602  0.00  0.00    -0.223 NA
ATOM      8  C   UNL     1     -22.887  31.448 -35.265  0.00  0.00    +0.220 A 
ATOM      9  N   UNL     1     -22.160  30.734 -36.206  0.00  0.00    -0.283 N 
ATOM     36  H   UNL     1     -21.320  30.232 -35.919  0.00  0.00    +0.155 HD
ATOM     37  N   UNL     1     -22.457  31.432 -33.987  0.00  0.00    -0.214 NA
BRANCH   4   3
ATOM      1  C   UNL     1     -20.615  31.778 -30.006  0.00  0.00    +0.020 A 
ATOM      2  C   UNL     1     -21.120  31.870 -31.356  0.00  0.00    +0.013 A 
ATOM      3  C   UNL     1     -22.549  32.005 -31.610  0.00  0.00    +0.019 A 
ATOM     38  C   UNL     1     -23.447  32.044 -30.466  0.00  0.00    +0.120 A 
ATOM     39  N   UNL     1     -22.932  31.952 -29.176  0.00  0.00    -0.263 NA
ATOM     40  C   UNL     1     -21.559  31.820 -28.920  0.00  0.00    +0.111 A 
ENDBRANCH   4   3
ENDBRANCH  10   9
BRANCH  12  13
ATOM     13  N   UNL     1     -21.995  32.674 -40.785  0.00  0.00    -0.281 N 
ATOM     14  C   UNL     1     -20.700  32.870 -41.234  0.00  0.00    +0.248 C 
ATOM     30  O   UNL     1     -19.708  32.373 -40.723  0.00  0.00    -0.270 OA
ATOM     31  H   UNL     1     -22.704  33.296 -41.174  0.00  0.00    +0.155 HD
BRANCH  14  15
ATOM     15  C   UNL     1     -20.472  33.760 -42.414  0.00  0.00    +0.037 A 
ATOM     16  C   UNL     1     -21.573  34.143 -43.301  0.00  0.00    +0.013 A 
ATOM     17  C   UNL     1     -21.323  34.988 -44.441  0.00  0.00    +0.005 A 
ATOM     18  C   UNL     1     -19.964  35.458 -44.700  0.00  0.00    -0.033 A 
ATOM     28  C   UNL     1     -18.891  35.066 -43.801  0.00  0.00    +0.005 A 
ATOM     29  C   UNL     1     -19.132  34.237 -42.683  0.00  0.00    +0.013 A 
BRANCH  18  19
ATOM     19  C   UNL     1     -19.601  36.345 -45.905  0.00  0.00    +0.119 C 
BRANCH  19  20
ATOM     20  N   UNL     1     -19.349  35.660 -47.208  0.00  0.00    -0.302 NA
ATOM     21  C   UNL     1     -20.638  35.114 -47.829  0.00  0.00    +0.066 C 
ATOM     22  C   UNL     1     -20.359  34.420 -49.202  0.00  0.00    -0.064 C 
ATOM     23  N   UNL     1     -19.336  33.300 -49.006  0.00  0.00    +0.379 N 
ATOM     24  C   UNL     1     -19.115  32.608 -50.284  0.00  0.00    -0.096 C 
ATOM     25  H   UNL     1     -19.774  32.563 -48.293  0.00  0.00    -0.082 HD
ATOM     26  C   UNL     1     -18.052  33.834 -48.386  0.00  0.00    -0.064 C 
ATOM     27  C   UNL     1     -18.344  34.548 -47.037  0.00  0.00    +0.066 C 
ENDBRANCH  19  20
ENDBRANCH  18  19
ENDBRANCH  14  15
ENDBRANCH  12  13
TORSDOF 6
ENDMDL
MODEL 5
REMARK VINA RESULT:      -7.4      5.702     15.189
REMARK  Name = C:\Users\Docking\Desktop\test protocol\1iep_ligandH.pdb
REMARK  8 active torsions:
REMARK  status: ('A' for Active; 'I' for Inactive)
REMARK    1  A    between atoms: _5  and  _11
REMARK    2  A    between atoms: _19  and  _21
REMARK    3  A    between atoms: _22  and  _66
REMARK    4  A    between atoms: _27  and  _30
REMARK    5  A    between atoms: _32  and  _33
REMARK    6  A    between atoms: _38  and  _43
REMARK    7  A    between atoms: _43  and  _46
REMARK    8  A    between atoms: _53  and  _55
REMARK                            x       y       z     vdW  Elec       q    Type
REMARK                         _______ _______ _______ _____ _____    ______ ____
ROOT
ATOM     10  C   UNL     1     -22.024  31.584 -39.631  0.00  0.00    +0.038 A 
ATOM     11  C   UNL     1     -21.779  31.890 -38.268  0.00  0.00    +0.047 A 
ATOM     12  C   UNL     1     -22.685  31.442 -37.221  0.00  0.00    +0.035 A 
ATOM     32  C   UNL     1     -23.830  30.683 -37.599  0.00  0.00    +0.024 A 
ATOM     33  C   UNL     1     -24.096  30.364 -38.979  0.00  0.00    +0.007 A 
ATOM     34  C   UNL     1     -23.207  30.804 -40.016  0.00  0.00    -0.029 A 
ATOM     35  C   UNL     1     -23.545  30.439 -41.480  0.00  0.00    +0.045 C 
ENDROOT
BRANCH  10   9
ATOM      4  C   UNL     1     -20.480  34.874 -42.766  0.00  0.00    +0.077 A 
ATOM      5  C   UNL     1     -21.580  35.749 -42.480  0.00  0.00    +0.048 A 
ATOM      6  C   UNL     1     -22.525  35.312 -41.525  0.00  0.00    +0.116 A 
ATOM      7  N   UNL     1     -22.371  34.089 -40.908  0.00  0.00    -0.223 NA
ATOM      8  C   UNL     1     -21.300  33.269 -41.208  0.00  0.00    +0.220 A 
ATOM      9  N   UNL     1     -21.121  32.039 -40.594  0.00  0.00    -0.283 N 
ATOM     36  H   UNL     1     -20.322  31.459 -40.849  0.00  0.00    +0.155 HD
ATOM     37  N   UNL     1     -20.384  33.662 -42.118  0.00  0.00    -0.214 NA
BRANCH   4   3
ATOM      1  C   UNL     1     -18.448  35.270 -46.085  0.00  0.00    +0.020 A 
ATOM      2  C   UNL     1     -19.523  34.939 -45.178  0.00  0.00    +0.013 A 
ATOM      3  C   UNL     1     -19.397  35.196 -43.749  0.00  0.00    +0.019 A 
ATOM     38  C   UNL     1     -18.161  35.792 -43.266  0.00  0.00    +0.120 A 
ATOM     39  N   UNL     1     -17.142  36.099 -44.163  0.00  0.00    -0.263 NA
ATOM     40  C   UNL     1     -17.251  35.855 -45.540  0.00  0.00    +0.111 A 
ENDBRANCH   4   3
ENDBRANCH  10   9
BRANCH  12  13
ATOM     13  N   UNL     1     -22.492  31.730 -35.822  0.00  0.00    -0.281 N 
ATOM     14  C   UNL     1     -22.752  30.905 -34.739  0.00  0.00    +0.248 C 
ATOM     30  O   UNL     1     -23.394  29.867 -34.800  0.00  0.00    -0.270 OA
ATOM     31  H   UNL     1     -22.118  32.653 -35.602  0.00  0.00    +0.155 HD
BRANCH  14  15
ATOM     15  C   UNL     1     -22.236  31.297 -33.392  0.00  0.00    +0.037 A 
ATOM     16  C   UNL     1     -21.334  30.422 -32.640  0.00  0.00    +0.013 A 
ATOM     17  C   UNL     1     -20.864  30.816 -31.335  0.00  0.00    +0.005 A 
ATOM     18  C   UNL     1     -21.296  32.095 -30.775  0.00  0.00    -0.033 A 
ATOM     28  C   UNL     1     -22.188  32.946 -31.546  0.00  0.00    +0.005 A 
ATOM     29  C   UNL     1     -22.651  32.562 -32.824  0.00  0.00    +0.013 A 
BRANCH  18  19
ATOM     19  C   UNL     1     -20.862  32.587 -29.382  0.00  0.00    +0.119 C 
BRANCH  19  20
ATOM     20  N   UNL     1     -21.517  31.954 -28.199  0.00  0.00    -0.302 NA
ATOM     21  C   UNL     1     -22.963  31.544 -28.493  0.00  0.00    +0.066 C 
ATOM     22  C   UNL     1     -23.626  30.863 -27.252  0.00  0.00    -0.064 C 
ATOM     23  N   UNL     1     -23.566  31.818 -26.058  0.00  0.00    +0.379 N 
ATOM     24  C   UNL     1     -24.240  31.203 -24.905  0.00  0.00    -0.096 C 
ATOM     25  H   UNL     1     -24.134  32.737 -26.331  0.00  0.00    -0.082 HD
ATOM     26  C   UNL     1     -22.132  32.232 -25.760  0.00  0.00    -0.064 C 
ATOM     27  C   UNL     1     -21.473  32.881 -27.009  0.00  0.00    +0.066 C 
ENDBRANCH  19  20
ENDBRANCH  18  19
ENDBRANCH  14  15
ENDBRANCH  12  13
TORSDOF 6
ENDMDL
