MODEL 1
REMARK VINA RESULT:      -8.0      0.000      0.000
REMARK  Name = C:\Users\Docking\Desktop\test protocol\1iep_ligandH.pdb
REMARK  8 active torsions:
REMARK  status: ('A' for Active; 'I' for Inactive)
REMARK    1  A    between atoms: _5  and  _11
REMARK    2  A    between atoms: _19  and  _21
REMARK    3  A    between atoms: _22  and  _66
REMARK    4  A    between atoms: _27  and  _30
REMARK    5  A    between atoms: _32  and  _33
REMARK    6  A    between atoms: _38  and  _43
REMARK    7  A    between atoms: _43  and  _46
REMARK    8  A    between atoms: _53  and  _55
REMARK                            x       y       z     vdW  Elec       q    Type
REMARK                         _______ _______ _______ _____ _____    ______ ____
ROOT
ATOM     10  C   UNL     1      22.742  93.361  84.514  0.00  0.00    +0.038 A 
ATOM     11  C   UNL     1      23.748  93.404  85.514  0.00  0.00    +0.047 A 
ATOM     12  C   UNL     1      23.471  92.980  86.877  0.00  0.00    +0.035 A 
ATOM     32  C   UNL     1      22.159  92.516  87.188  0.00  0.00    +0.024 A 
ATOM     33  C   UNL     1      21.125  92.467  86.184  0.00  0.00    +0.007 A 
ATOM     34  C   UNL     1      21.392  92.886  84.838  0.00  0.00    -0.029 A 
ATOM     35  C   UNL     1      20.243  92.818  83.804  0.00  0.00    +0.045 C 
ENDROOT
BRANCH  10   9
ATOM      4  C   UNL     1      23.579  96.788  81.260  0.00  0.00    +0.077 A 
ATOM      5  C   UNL     1      23.330  97.834  82.210  0.00  0.00    +0.048 A 
ATOM      6  C   UNL     1      22.982  97.447  83.524  0.00  0.00    +0.116 A 
ATOM      7  N   UNL     1      22.894  96.112  83.852  0.00  0.00    -0.223 NA
ATOM      8  C   UNL     1      23.139  95.129  82.911  0.00  0.00    +0.220 A 
ATOM      9  N   UNL     1      23.063  93.779  83.221  0.00  0.00    -0.283 N 
ATOM     36  H   UNL     1      23.244  93.085  82.496  0.00  0.00    +0.155 HD
ATOM     37  N   UNL     1      23.471  95.472  81.649  0.00  0.00    -0.214 NA
BRANCH   4   3
ATOM      1  C   UNL     1      24.989  98.438  78.005  0.00  0.00    +0.020 A 
ATOM      2  C   UNL     1      24.643  98.247  79.395  0.00  0.00    +0.013 A 
ATOM      3  C   UNL     1      23.960  97.037  79.833  0.00  0.00    +0.019 A 
ATOM     38  C   UNL     1      23.638  96.031  78.832  0.00  0.00    +0.120 A 
ATOM     39  N   UNL     1      23.982  96.243  77.501  0.00  0.00    -0.263 NA
ATOM     40  C   UNL     1      24.639  97.404  77.067  0.00  0.00    +0.111 A 
ENDBRANCH   4   3
ENDBRANCH  10   9
BRANCH  12  13
ATOM     13  N   UNL     1      24.449  93.009  87.936  0.00  0.00    -0.281 N 
ATOM     14  C   UNL     1      24.240  93.263  89.282  0.00  0.00    +0.248 C 
ATOM     30  O   UNL     1      23.205  93.717  89.747  0.00  0.00    -0.270 OA
ATOM     31  H   UNL     1      25.413  92.819  87.660  0.00  0.00    +0.155 HD
BRANCH  14  15
ATOM     15  C   UNL     1      25.346  92.986  90.249  0.00  0.00    +0.037 A 
ATOM     16  C   UNL     1      25.619  91.627  90.722  0.00  0.00    +0.013 A 
ATOM     17  C   UNL     1      26.680  91.389  91.668  0.00  0.00    +0.005 A 
ATOM     18  C   UNL     1      27.478  92.516  92.147  0.00  0.00    -0.033 A 
ATOM     28  C   UNL     1      27.189  93.854  91.657  0.00  0.00    +0.005 A 
ATOM     29  C   UNL     1      26.149  94.090  90.731  0.00  0.00    +0.013 A 
BRANCH  18  19
ATOM     19  C   UNL     1      28.616  92.359  93.172  0.00  0.00    +0.119 C 
BRANCH  19  20
ATOM     20  N   UNL     1      29.968  92.853  92.774  0.00  0.00    -0.302 NA
ATOM     21  C   UNL     1      30.472  92.179  91.495  0.00  0.00    +0.066 C 
ATOM     22  C   UNL     1      31.878  92.724  91.081  0.00  0.00    -0.064 C 
ATOM     23  N   UNL     1      32.864  92.510  92.230  0.00  0.00    +0.379 N 
ATOM     24  C   UNL     1      34.200  92.968  91.822  0.00  0.00    -0.096 C 
ATOM     25  H   UNL     1      32.926  91.413  92.422  0.00  0.00    -0.082 HD
ATOM     26  C   UNL     1      32.369  93.174  93.507  0.00  0.00    -0.064 C 
ATOM     27  C   UNL     1      30.959  92.647  93.894  0.00  0.00    +0.066 C 
ENDBRANCH  19  20
ENDBRANCH  18  19
ENDBRANCH  14  15
ENDBRANCH  12  13
TORSDOF 6
ENDMDL
MODEL 2
REMARK VINA RESULT:      -8.0     34.793     38.195
REMARK  Name = C:\Users\Docking\Desktop\test protocol\1iep_ligandH.pdb
REMARK  8 active torsions:
REMARK  status: ('A' for Active; 'I' for Inactive)
REMARK    1  A    between atoms: _5  and  _11
REMARK    2  A    between atoms: _19  and  _21
REMARK    3  A    between atoms: _22  and  _66
REMARK    4  A    between atoms: _27  and  _30
REMARK    5  A    between atoms: _32  and  _33
REMARK    6  A    between atoms: _38  and  _43
REMARK    7  A    between atoms: _43  and  _46
REMARK    8  A    between atoms: _53  and  _55
REMARK                            x       y       z     vdW  Elec       q    Type
REMARK                         _______ _______ _______ _____ _____    ______ ____
ROOT
ATOM     10  C   UNL     1      51.871  74.408  71.146  0.00  0.00    +0.038 A 
ATOM     11  C   UNL     1      52.430  75.506  70.444  0.00  0.00    +0.047 A 
ATOM     12  C   UNL     1      53.864  75.605  70.220  0.00  0.00    +0.035 A 
ATOM     32  C   UNL     1      54.699  74.565  70.723  0.00  0.00    +0.024 A 
ATOM     33  C   UNL     1      54.148  73.442  71.440  0.00  0.00    +0.007 A 
ATOM     34  C   UNL     1      52.735  73.341  71.666  0.00  0.00    -0.029 A 
ATOM     35  C   UNL     1      52.199  72.118  72.446  0.00  0.00    +0.045 C 
ENDROOT
BRANCH  10   9
ATOM      4  C   UNL     1      47.495  72.802  70.002  0.00  0.00    +0.077 A 
ATOM      5  C   UNL     1      48.005  72.003  68.925  0.00  0.00    +0.048 A 
ATOM      6  C   UNL     1      49.399  72.040  68.694  0.00  0.00    +0.116 A 
ATOM      7  N   UNL     1      50.212  72.819  69.487  0.00  0.00    -0.223 NA
ATOM      8  C   UNL     1      49.687  73.579  70.517  0.00  0.00    +0.220 A 
ATOM      9  N   UNL     1      50.488  74.364  71.332  0.00  0.00    -0.283 N 
ATOM     36  H   UNL     1      50.061  74.916  72.077  0.00  0.00    +0.155 HD
ATOM     37  N   UNL     1      48.360  73.563  70.757  0.00  0.00    -0.214 NA
BRANCH   4   3
ATOM      1  C   UNL     1      43.657  73.552  69.943  0.00  0.00    +0.020 A 
ATOM      2  C   UNL     1      45.043  73.518  69.539  0.00  0.00    +0.013 A 
ATOM      3  C   UNL     1      46.046  72.867  70.373  0.00  0.00    +0.019 A 
ATOM     38  C   UNL     1      45.609  72.254  71.618  0.00  0.00    +0.120 A 
ATOM     39  N   UNL     1      44.267  72.304  71.982  0.00  0.00    -0.263 NA
ATOM     40  C   UNL     1      43.293  72.929  71.188  0.00  0.00    +0.111 A 
ENDBRANCH   4   3
ENDBRANCH  10   9
BRANCH  12  13
ATOM     13  N   UNL     1      54.490  76.700  69.522  0.00  0.00    -0.281 N 
ATOM     14  C   UNL     1      54.824  76.774  68.180  0.00  0.00    +0.248 C 
ATOM     30  O   UNL     1      54.830  75.821  67.415  0.00  0.00    -0.270 OA
ATOM     31  H   UNL     1      54.713  77.521  70.085  0.00  0.00    +0.155 HD
BRANCH  14  15
ATOM     15  C   UNL     1      55.224  78.096  67.607  0.00  0.00    +0.037 A 
ATOM     16  C   UNL     1      56.430  78.789  68.066  0.00  0.00    +0.013 A 
ATOM     17  C   UNL     1      56.784  80.071  67.509  0.00  0.00    +0.005 A 
ATOM     18  C   UNL     1      55.930  80.667  66.485  0.00  0.00    -0.033 A 
ATOM     28  C   UNL     1      54.742  79.955  66.044  0.00  0.00    +0.005 A 
ATOM     29  C   UNL     1      54.391  78.699  66.588  0.00  0.00    +0.013 A 
BRANCH  18  19
ATOM     19  C   UNL     1      56.218  82.040  65.850  0.00  0.00    +0.119 C 
BRANCH  19  20
ATOM     20  N   UNL     1      57.637  82.507  65.847  0.00  0.00    -0.302 NA
ATOM     21  C   UNL     1      57.760  83.974  66.269  0.00  0.00    +0.066 C 
ATOM     22  C   UNL     1      59.252  84.440  66.282  0.00  0.00    -0.064 C 
ATOM     23  N   UNL     1      59.863  84.222  64.897  0.00  0.00    +0.379 N 
ATOM     24  C   UNL     1      61.249  84.712  64.889  0.00  0.00    -0.096 C 
ATOM     25  H   UNL     1      59.283  84.837  64.171  0.00  0.00    -0.082 HD
ATOM     26  C   UNL     1      59.743  82.767  64.468  0.00  0.00    -0.064 C 
ATOM     27  C   UNL     1      58.259  82.306  64.487  0.00  0.00    +0.066 C 
ENDBRANCH  19  20
ENDBRANCH  18  19
ENDBRANCH  14  15
ENDBRANCH  12  13
TORSDOF 6
ENDMDL
MODEL 3
REMARK VINA RESULT:      -8.0      5.895     11.853
REMARK  Name = C:\Users\Docking\Desktop\test protocol\1iep_ligandH.pdb
REMARK  8 active torsions:
REMARK  status: ('A' for Active; 'I' for Inactive)
REMARK    1  A    between atoms: _5  and  _11
REMARK    2  A    between atoms: _19  and  _21
REMARK    3  A    between atoms: _22  and  _66
REMARK    4  A    between atoms: _27  and  _30
REMARK    5  A    between atoms: _32  and  _33
REMARK    6  A    between atoms: _38  and  _43
REMARK    7  A    between atoms: _43  and  _46
REMARK    8  A    between atoms: _53  and  _55
REMARK                            x       y       z     vdW  Elec       q    Type
REMARK                         _______ _______ _______ _____ _____    ______ ____
ROOT
ATOM     10  C   UNL     1      32.110  96.890  91.963  0.00  0.00    +0.038 A 
ATOM     11  C   UNL     1      30.892  96.257  91.607  0.00  0.00    +0.047 A 
ATOM     12  C   UNL     1      30.609  94.888  92.010  0.00  0.00    +0.035 A 
ATOM     32  C   UNL     1      31.589  94.195  92.779  0.00  0.00    +0.024 A 
ATOM     33  C   UNL     1      32.833  94.823  93.149  0.00  0.00    +0.007 A 
ATOM     34  C   UNL     1      33.118  96.172  92.752  0.00  0.00    -0.029 A 
ATOM     35  C   UNL     1      34.471  96.792  93.172  0.00  0.00    +0.045 C 
ENDROOT
BRANCH  10   9
ATOM      4  C   UNL     1      31.829 101.637  92.619  0.00  0.00    +0.077 A 
ATOM      5  C   UNL     1      31.165 101.483  93.881  0.00  0.00    +0.048 A 
ATOM      6  C   UNL     1      30.908 100.165  94.322  0.00  0.00    +0.116 A 
ATOM      7  N   UNL     1      31.291  99.090  93.551  0.00  0.00    -0.223 NA
ATOM      8  C   UNL     1      31.928  99.273  92.337  0.00  0.00    +0.220 A 
ATOM      9  N   UNL     1      32.330  98.206  91.549  0.00  0.00    -0.283 N 
ATOM     36  H   UNL     1      32.790  98.383  90.657  0.00  0.00    +0.155 HD
ATOM     37  N   UNL     1      32.184 100.521  91.893  0.00  0.00    -0.214 NA
BRANCH   4   3
ATOM      1  C   UNL     1      32.600 105.446  92.176  0.00  0.00    +0.020 A 
ATOM      2  C   UNL     1      32.264 104.189  92.804  0.00  0.00    +0.013 A 
ATOM      3  C   UNL     1      32.174 102.964  92.019  0.00  0.00    +0.019 A 
ATOM     38  C   UNL     1      32.433 103.046  90.589  0.00  0.00    +0.120 A 
ATOM     39  N   UNL     1      32.753 104.271  90.011  0.00  0.00    -0.263 NA
ATOM     40  C   UNL     1      32.841 105.456  90.757  0.00  0.00    +0.111 A 
ENDBRANCH   4   3
ENDBRANCH  10   9
BRANCH  12  13
ATOM     13  N   UNL     1      29.394  94.191  91.671  0.00  0.00    -0.281 N 
ATOM     14  C   UNL     1      28.147  94.317  92.261  0.00  0.00    +0.248 C 
ATOM     30  O   UNL     1      27.937  94.896  93.316  0.00  0.00    -0.270 OA
ATOM     31  H   UNL     1      29.461  93.523  90.903  0.00  0.00    +0.155 HD
BRANCH  14  15
ATOM     15  C   UNL     1      26.964  93.697  91.589  0.00  0.00    +0.037 A 
ATOM     16  C   UNL     1      25.950  94.520  90.924  0.00  0.00    +0.013 A 
ATOM     17  C   UNL     1      24.811  93.898  90.299  0.00  0.00    +0.005 A 
ATOM     18  C   UNL     1      24.680  92.443  90.333  0.00  0.00    -0.033 A 
ATOM     28  C   UNL     1      25.703  91.651  90.995  0.00  0.00    +0.005 A 
ATOM     29  C   UNL     1      26.821  92.257  91.610  0.00  0.00    +0.013 A 
BRANCH  18  19
ATOM     19  C   UNL     1      23.486  91.695  89.710  0.00  0.00    +0.119 C 
BRANCH  19  20
ATOM     20  N   UNL     1      23.331  91.771  88.227  0.00  0.00    -0.302 NA
ATOM     21  C   UNL     1      24.662  92.055  87.524  0.00  0.00    +0.066 C 
ATOM     22  C   UNL     1      24.486  92.108  85.971  0.00  0.00    -0.064 C 
ATOM     23  N   UNL     1      23.447  93.173  85.615  0.00  0.00    +0.379 N 
ATOM     24  C   UNL     1      23.321  93.266  84.153  0.00  0.00    -0.096 C 
ATOM     25  H   UNL     1      23.827  94.153  85.985  0.00  0.00    -0.082 HD
ATOM     26  C   UNL     1      22.121  92.899  86.312  0.00  0.00    -0.064 C 
ATOM     27  C   UNL     1      22.313  92.819  87.852  0.00  0.00    +0.066 C 
ENDBRANCH  19  20
ENDBRANCH  18  19
ENDBRANCH  14  15
ENDBRANCH  12  13
TORSDOF 6
ENDMDL
MODEL 4
REMARK VINA RESULT:      -7.8      7.196      8.522
REMARK  Name = C:\Users\Docking\Desktop\test protocol\1iep_ligandH.pdb
REMARK  8 active torsions:
REMARK  status: ('A' for Active; 'I' for Inactive)
REMARK    1  A    between atoms: _5  and  _11
REMARK    2  A    between atoms: _19  and  _21
REMARK    3  A    between atoms: _22  and  _66
REMARK    4  A    between atoms: _27  and  _30
REMARK    5  A    between atoms: _32  and  _33
REMARK    6  A    between atoms: _38  and  _43
REMARK    7  A    between atoms: _43  and  _46
REMARK    8  A    between atoms: _53  and  _55
REMARK                            x       y       z     vdW  Elec       q    Type
REMARK                         _______ _______ _______ _____ _____    ______ ____
ROOT
ATOM     10  C   UNL     1      24.772  91.699  87.494  0.00  0.00    +0.038 A 
ATOM     11  C   UNL     1      25.095  90.393  87.045  0.00  0.00    +0.047 A 
ATOM     12  C   UNL     1      25.146  89.271  87.969  0.00  0.00    +0.035 A 
ATOM     32  C   UNL     1      24.860  89.514  89.344  0.00  0.00    +0.024 A 
ATOM     33  C   UNL     1      24.531  90.835  89.818  0.00  0.00    +0.007 A 
ATOM     34  C   UNL     1      24.481  91.947  88.912  0.00  0.00    -0.029 A 
ATOM     35  C   UNL     1      24.129  93.343  89.477  0.00  0.00    +0.045 C 
ENDROOT
BRANCH  10   9
ATOM      4  C   UNL     1      22.466  94.459  84.316  0.00  0.00    +0.077 A 
ATOM      5  C   UNL     1      21.233  93.750  84.505  0.00  0.00    +0.048 A 
ATOM      6  C   UNL     1      21.237  92.676  85.424  0.00  0.00    +0.116 A 
ATOM      7  N   UNL     1      22.392  92.346  86.098  0.00  0.00    -0.223 NA
ATOM      8  C   UNL     1      23.565  93.050  85.891  0.00  0.00    +0.220 A 
ATOM      9  N   UNL     1      24.736  92.740  86.564  0.00  0.00    -0.283 N 
ATOM     36  H   UNL     1      25.582  93.278  86.378  0.00  0.00    +0.155 HD
ATOM     37  N   UNL     1      23.588  94.078  85.018  0.00  0.00    -0.214 NA
BRANCH   4   3
ATOM      1  C   UNL     1      23.880  97.607  82.476  0.00  0.00    +0.020 A 
ATOM      2  C   UNL     1      23.779  96.502  83.400  0.00  0.00    +0.013 A 
ATOM      3  C   UNL     1      22.621  95.618  83.381  0.00  0.00    +0.019 A 
ATOM     38  C   UNL     1      21.573  95.882  82.406  0.00  0.00    +0.120 A 
ATOM     39  N   UNL     1      21.697  96.955  81.529  0.00  0.00    -0.263 NA
ATOM     40  C   UNL     1      22.807  97.813  81.539  0.00  0.00    +0.111 A 
ENDBRANCH   4   3
ENDBRANCH  10   9
BRANCH  12  13
ATOM     13  N   UNL     1      25.476  87.924  87.572  0.00  0.00    -0.281 N 
ATOM     14  C   UNL     1      24.620  86.938  87.111  0.00  0.00    +0.248 C 
ATOM     30  O   UNL     1      23.400  86.998  87.172  0.00  0.00    -0.270 OA
ATOM     31  H   UNL     1      26.461  87.667  87.640  0.00  0.00    +0.155 HD
BRANCH  14  15
ATOM     15  C   UNL     1      25.201  85.701  86.508  0.00  0.00    +0.037 A 
ATOM     16  C   UNL     1      25.314  84.460  87.278  0.00  0.00    +0.013 A 
ATOM     17  C   UNL     1      25.895  83.286  86.678  0.00  0.00    +0.005 A 
ATOM     18  C   UNL     1      26.366  83.346  85.296  0.00  0.00    -0.033 A 
ATOM     28  C   UNL     1      26.237  84.589  84.553  0.00  0.00    +0.005 A 
ATOM     29  C   UNL     1      25.670  85.742  85.139  0.00  0.00    +0.013 A 
BRANCH  18  19
ATOM     19  C   UNL     1      27.018  82.148  84.581  0.00  0.00    +0.119 C 
BRANCH  19  20
ATOM     20  N   UNL     1      28.330  81.667  85.110  0.00  0.00    -0.302 NA
ATOM     21  C   UNL     1      29.457  82.670  84.849  0.00  0.00    +0.066 C 
ATOM     22  C   UNL     1      30.817  82.162  85.429  0.00  0.00    -0.064 C 
ATOM     23  N   UNL     1      31.151  80.800  84.817  0.00  0.00    +0.379 N 
ATOM     24  C   UNL     1      32.457  80.346  85.316  0.00  0.00    -0.096 C 
ATOM     25  H   UNL     1      31.239  80.937  83.715  0.00  0.00    -0.082 HD
ATOM     26  C   UNL     1      30.034  79.797  85.070  0.00  0.00    -0.064 C 
ATOM     27  C   UNL     1      28.681  80.326  84.516  0.00  0.00    +0.066 C 
ENDBRANCH  19  20
ENDBRANCH  18  19
ENDBRANCH  14  15
ENDBRANCH  12  13
TORSDOF 6
ENDMDL
MODEL 5
REMARK VINA RESULT:      -7.6      2.917     12.055
REMARK  Name = C:\Users\Docking\Desktop\test protocol\1iep_ligandH.pdb
REMARK  8 active torsions:
REMARK  status: ('A' for Active; 'I' for Inactive)
REMARK    1  A    between atoms: _5  and  _11
REMARK    2  A    between atoms: _19  and  _21
REMARK    3  A    between atoms: _22  and  _66
REMARK    4  A    between atoms: _27  and  _30
REMARK    5  A    between atoms: _32  and  _33
REMARK    6  A    between atoms: _38  and  _43
REMARK    7  A    between atoms: _43  and  _46
REMARK    8  A    between atoms: _53  and  _55
REMARK                            x       y       z     vdW  Elec       q    Type
REMARK                         _______ _______ _______ _____ _____    ______ ____
ROOT
ATOM     10  C   UNL     1      28.855  92.254  92.333  0.00  0.00    +0.038 A 
ATOM     11  C   UNL     1      27.777  92.453  91.433  0.00  0.00    +0.047 A 
ATOM     12  C   UNL     1      26.520  91.739  91.595  0.00  0.00    +0.035 A 
ATOM     32  C   UNL     1      26.394  90.832  92.687  0.00  0.00    +0.024 A 
ATOM     33  C   UNL     1      27.480  90.617  93.611  0.00  0.00    +0.007 A 
ATOM     34  C   UNL     1      28.723  91.317  93.454  0.00  0.00    -0.029 A 
ATOM     35  C   UNL     1      29.855  91.042  94.471  0.00  0.00    +0.045 C 
ENDROOT
BRANCH  10   9
ATOM      4  C   UNL     1      31.555  96.196  92.789  0.00  0.00    +0.077 A 
ATOM      5  C   UNL     1      30.509  96.907  93.465  0.00  0.00    +0.048 A 
ATOM      6  C   UNL     1      29.288  96.225  93.669  0.00  0.00    +0.116 A 
ATOM      7  N   UNL     1      29.137  94.928  93.227  0.00  0.00    -0.223 NA
ATOM      8  C   UNL     1      30.166  94.272  92.576  0.00  0.00    +0.220 A 
ATOM      9  N   UNL     1      30.039  92.966  92.130  0.00  0.00    -0.283 N 
ATOM     36  H   UNL     1      30.819  92.520  91.648  0.00  0.00    +0.155 HD
ATOM     37  N   UNL     1      31.341  94.903  92.368  0.00  0.00    -0.214 NA
BRANCH   4   3
ATOM      1  C   UNL     1      35.425  96.696  92.508  0.00  0.00    +0.020 A 
ATOM      2  C   UNL     1      34.149  96.087  92.807  0.00  0.00    +0.013 A 
ATOM      3  C   UNL     1      32.903  96.780  92.501  0.00  0.00    +0.019 A 
ATOM     38  C   UNL     1      32.985  98.098  91.889  0.00  0.00    +0.120 A 
ATOM     39  N   UNL     1      34.228  98.659  91.615  0.00  0.00    -0.263 NA
ATOM     40  C   UNL     1      35.433  98.002  91.905  0.00  0.00    +0.111 A 
ENDBRANCH   4   3
ENDBRANCH  10   9
BRANCH  12  13
ATOM     13  N   UNL     1      25.393  91.894  90.708  0.00  0.00    -0.281 N 
ATOM     14  C   UNL     1      24.837  93.072  90.235  0.00  0.00    +0.248 C 
ATOM     30  O   UNL     1      25.093  94.182  90.676  0.00  0.00    -0.270 OA
ATOM     31  H   UNL     1      24.953  91.031  90.390  0.00  0.00    +0.155 HD
BRANCH  14  15
ATOM     15  C   UNL     1      23.842  93.004  89.122  0.00  0.00    +0.037 A 
ATOM     16  C   UNL     1      22.402  93.023  89.388  0.00  0.00    +0.013 A 
ATOM     17  C   UNL     1      21.464  92.940  88.296  0.00  0.00    +0.005 A 
ATOM     18  C   UNL     1      21.964  92.838  86.928  0.00  0.00    -0.033 A 
ATOM     28  C   UNL     1      23.399  92.827  86.692  0.00  0.00    +0.005 A 
ATOM     29  C   UNL     1      24.321  92.907  87.759  0.00  0.00    +0.013 A 
BRANCH  18  19
ATOM     19  C   UNL     1      21.036  92.723  85.704  0.00  0.00    +0.119 C 
BRANCH  19  20
ATOM     20  N   UNL     1      21.058  93.848  84.721  0.00  0.00    -0.302 NA
ATOM     21  C   UNL     1      19.699  94.546  84.617  0.00  0.00    +0.066 C 
ATOM     22  C   UNL     1      19.746  95.734  83.602  0.00  0.00    -0.064 C 
ATOM     23  N   UNL     1      20.195  95.215  82.235  0.00  0.00    +0.379 N 
ATOM     24  C   UNL     1      20.184  96.319  81.264  0.00  0.00    -0.096 C 
ATOM     25  H   UNL     1      19.447  94.460  81.897  0.00  0.00    -0.082 HD
ATOM     26  C   UNL     1      21.544  94.517  82.330  0.00  0.00    -0.064 C 
ATOM     27  C   UNL     1      21.495  93.357  83.363  0.00  0.00    +0.066 C 
ENDBRANCH  19  20
ENDBRANCH  18  19
ENDBRANCH  14  15
ENDBRANCH  12  13
TORSDOF 6
ENDMDL
