MODEL 1
REMARK VINA RESULT:      -7.5      0.000      0.000
REMARK  Name = C:\Users\Docking\Desktop\test protocol\1iep_ligandH.pdb
REMARK  8 active torsions:
REMARK  status: ('A' for Active; 'I' for Inactive)
REMARK    1  A    between atoms: _5  and  _11
REMARK    2  A    between atoms: _19  and  _21
REMARK    3  A    between atoms: _22  and  _66
REMARK    4  A    between atoms: _27  and  _30
REMARK    5  A    between atoms: _32  and  _33
REMARK    6  A    between atoms: _38  and  _43
REMARK    7  A    between atoms: _43  and  _46
REMARK    8  A    between atoms: _53  and  _55
REMARK                            x       y       z     vdW  Elec       q    Type
REMARK                         _______ _______ _______ _____ _____    ______ ____
ROOT
ATOM     10  C   UNL     1     -38.750  -1.498 -30.436  0.00  0.00    +0.038 A 
ATOM     11  C   UNL     1     -37.870  -2.350 -31.150  0.00  0.00    +0.047 A 
ATOM     12  C   UNL     1     -37.981  -2.509 -32.592  0.00  0.00    +0.035 A 
ATOM     32  C   UNL     1     -39.000  -1.783 -33.274  0.00  0.00    +0.024 A 
ATOM     33  C   UNL     1     -39.904  -0.913 -32.564  0.00  0.00    +0.007 A 
ATOM     34  C   UNL     1     -39.800  -0.754 -31.141  0.00  0.00    -0.029 A 
ATOM     35  C   UNL     1     -40.800   0.187 -30.430  0.00  0.00    +0.045 C 
ENDROOT
BRANCH  10   9
ATOM      4  C   UNL     1     -39.933  -2.669 -25.934  0.00  0.00    +0.077 A 
ATOM      5  C   UNL     1     -40.961  -3.568 -26.375  0.00  0.00    +0.048 A 
ATOM      6  C   UNL     1     -41.158  -3.694 -27.769  0.00  0.00    +0.116 A 
ATOM      7  N   UNL     1     -40.379  -2.972 -28.646  0.00  0.00    -0.223 NA
ATOM      8  C   UNL     1     -39.397  -2.113 -28.187  0.00  0.00    +0.220 A 
ATOM      9  N   UNL     1     -38.597  -1.382 -29.052  0.00  0.00    -0.283 N 
ATOM     36  H   UNL     1     -37.889  -0.754 -28.674  0.00  0.00    +0.155 HD
ATOM     37  N   UNL     1     -39.191  -1.973 -26.861  0.00  0.00    -0.214 NA
BRANCH   4   3
ATOM      1  C   UNL     1     -37.985  -2.303 -22.562  0.00  0.00    +0.020 A 
ATOM      2  C   UNL     1     -38.251  -2.545 -23.961  0.00  0.00    +0.013 A 
ATOM      3  C   UNL     1     -39.603  -2.430 -24.494  0.00  0.00    +0.019 A 
ATOM     38  C   UNL     1     -40.672  -2.065 -23.576  0.00  0.00    +0.120 A 
ATOM     39  N   UNL     1     -40.386  -1.839 -22.233  0.00  0.00    -0.263 NA
ATOM     40  C   UNL     1     -39.089  -1.949 -21.709  0.00  0.00    +0.111 A 
ENDBRANCH   4   3
ENDBRANCH  10   9
BRANCH  12  13
ATOM     13  N   UNL     1     -37.122  -3.367 -33.369  0.00  0.00    -0.281 N 
ATOM     14  C   UNL     1     -35.961  -3.024 -34.044  0.00  0.00    +0.248 C 
ATOM     30  O   UNL     1     -35.600  -1.876 -34.258  0.00  0.00    -0.270 OA
ATOM     31  H   UNL     1     -37.403  -4.345 -33.430  0.00  0.00    +0.155 HD
BRANCH  14  15
ATOM     15  C   UNL     1     -35.082  -4.113 -34.569  0.00  0.00    +0.037 A 
ATOM     16  C   UNL     1     -35.585  -5.478 -34.743  0.00  0.00    +0.013 A 
ATOM     17  C   UNL     1     -34.712  -6.513 -35.235  0.00  0.00    +0.005 A 
ATOM     18  C   UNL     1     -33.325  -6.186 -35.558  0.00  0.00    -0.033 A 
ATOM     28  C   UNL     1     -32.854  -4.823 -35.381  0.00  0.00    +0.005 A 
ATOM     29  C   UNL     1     -33.707  -3.805 -34.898  0.00  0.00    +0.013 A 
BRANCH  18  19
ATOM     19  C   UNL     1     -32.316  -7.232 -36.069  0.00  0.00    +0.119 C 
BRANCH  19  20
ATOM     20  N   UNL     1     -32.648  -7.936 -37.343  0.00  0.00    -0.302 NA
ATOM     21  C   UNL     1     -33.292  -9.303 -37.094  0.00  0.00    +0.066 C 
ATOM     22  C   UNL     1     -33.653 -10.016 -38.438  0.00  0.00    -0.064 C 
ATOM     23  N   UNL     1     -32.391 -10.159 -39.291  0.00  0.00    +0.379 N 
ATOM     24  C   UNL     1     -32.716 -10.881 -40.529  0.00  0.00    -0.096 C 
ATOM     25  H   UNL     1     -31.665 -10.781 -38.717  0.00  0.00    -0.082 HD
ATOM     26  C   UNL     1     -31.743  -8.805 -39.541  0.00  0.00    -0.064 C 
ATOM     27  C   UNL     1     -31.415  -8.093 -38.199  0.00  0.00    +0.066 C 
ENDBRANCH  19  20
ENDBRANCH  18  19
ENDBRANCH  14  15
ENDBRANCH  12  13
TORSDOF 6
ENDMDL
MODEL 2
REMARK VINA RESULT:      -7.5     46.939     50.858
REMARK  Name = C:\Users\Docking\Desktop\test protocol\1iep_ligandH.pdb
REMARK  8 active torsions:
REMARK  status: ('A' for Active; 'I' for Inactive)
REMARK    1  A    between atoms: _5  and  _11
REMARK    2  A    between atoms: _19  and  _21
REMARK    3  A    between atoms: _22  and  _66
REMARK    4  A    between atoms: _27  and  _30
REMARK    5  A    between atoms: _32  and  _33
REMARK    6  A    between atoms: _38  and  _43
REMARK    7  A    between atoms: _43  and  _46
REMARK    8  A    between atoms: _53  and  _55
REMARK                            x       y       z     vdW  Elec       q    Type
REMARK                         _______ _______ _______ _____ _____    ______ ____
ROOT
ATOM     10  C   UNL     1      -0.930  13.286   1.064  0.00  0.00    +0.038 A 
ATOM     11  C   UNL     1      -1.027  13.395  -0.347  0.00  0.00    +0.047 A 
ATOM     12  C   UNL     1      -1.234  14.684  -0.990  0.00  0.00    +0.035 A 
ATOM     32  C   UNL     1      -1.335  15.842  -0.165  0.00  0.00    +0.024 A 
ATOM     33  C   UNL     1      -1.239  15.749   1.271  0.00  0.00    +0.007 A 
ATOM     34  C   UNL     1      -1.038  14.481   1.911  0.00  0.00    -0.029 A 
ATOM     35  C   UNL     1      -0.950  14.440   3.454  0.00  0.00    +0.045 C 
ENDROOT
BRANCH  10   9
ATOM      4  C   UNL     1       1.891   9.877   2.922  0.00  0.00    +0.077 A 
ATOM      5  C   UNL     1       3.073  10.667   2.728  0.00  0.00    +0.048 A 
ATOM      6  C   UNL     1       2.913  11.941   2.140  0.00  0.00    +0.116 A 
ATOM      7  N   UNL     1       1.659  12.384   1.778  0.00  0.00    -0.223 NA
ATOM      8  C   UNL     1       0.540  11.596   1.977  0.00  0.00    +0.220 A 
ATOM      9  N   UNL     1      -0.732  12.024   1.628  0.00  0.00    -0.283 N 
ATOM     36  H   UNL     1      -1.531  11.411   1.785  0.00  0.00    +0.155 HD
ATOM     37  N   UNL     1       0.667  10.375   2.535  0.00  0.00    -0.214 NA
BRANCH   4   3
ATOM      1  C   UNL     1       1.563   6.925   5.467  0.00  0.00    +0.020 A 
ATOM      2  C   UNL     1       1.541   8.264   4.925  0.00  0.00    +0.013 A 
ATOM      3  C   UNL     1       1.897   8.511   3.534  0.00  0.00    +0.019 A 
ATOM     38  C   UNL     1       2.273   7.371   2.710  0.00  0.00    +0.120 A 
ATOM     39  N   UNL     1       2.286   6.093   3.259  0.00  0.00    -0.263 NA
ATOM     40  C   UNL     1       1.947   5.844   4.598  0.00  0.00    +0.111 A 
ENDBRANCH   4   3
ENDBRANCH  10   9
BRANCH  12  13
ATOM     13  N   UNL     1      -1.348  14.855  -2.417  0.00  0.00    -0.281 N 
ATOM     14  C   UNL     1      -0.358  15.227  -3.312  0.00  0.00    +0.248 C 
ATOM     30  O   UNL     1       0.730  15.679  -2.990  0.00  0.00    -0.270 OA
ATOM     31  H   UNL     1      -2.271  14.681  -2.816  0.00  0.00    +0.155 HD
BRANCH  14  15
ATOM     15  C   UNL     1      -0.622  15.091  -4.777  0.00  0.00    +0.037 A 
ATOM     16  C   UNL     1      -1.280  13.902  -5.324  0.00  0.00    +0.013 A 
ATOM     17  C   UNL     1      -1.506  13.788  -6.743  0.00  0.00    +0.005 A 
ATOM     18  C   UNL     1      -1.075  14.870  -7.625  0.00  0.00    -0.033 A 
ATOM     28  C   UNL     1      -0.429  16.040  -7.056  0.00  0.00    +0.005 A 
ATOM     29  C   UNL     1      -0.204  16.155  -5.666  0.00  0.00    +0.013 A 
BRANCH  18  19
ATOM     19  C   UNL     1      -1.256  14.824  -9.154  0.00  0.00    +0.119 C 
BRANCH  19  20
ATOM     20  N   UNL     1      -0.131  14.263  -9.960  0.00  0.00    -0.302 NA
ATOM     21  C   UNL     1       0.567  13.104  -9.243  0.00  0.00    +0.066 C 
ATOM     22  C   UNL     1       1.726  12.514 -10.110  0.00  0.00    -0.064 C 
ATOM     23  N   UNL     1       2.725  13.624 -10.445  0.00  0.00    +0.379 N 
ATOM     24  C   UNL     1       3.846  13.061 -11.211  0.00  0.00    -0.096 C 
ATOM     25  H   UNL     1       3.133  14.012  -9.483  0.00  0.00    -0.082 HD
ATOM     26  C   UNL     1       2.038  14.782 -11.155  0.00  0.00    -0.064 C 
ATOM     27  C   UNL     1       0.868  15.341 -10.298  0.00  0.00    +0.066 C 
ENDBRANCH  19  20
ENDBRANCH  18  19
ENDBRANCH  14  15
ENDBRANCH  12  13
TORSDOF 6
ENDMDL
MODEL 3
REMARK VINA RESULT:      -7.3     36.320     39.031
REMARK  Name = C:\Users\Docking\Desktop\test protocol\1iep_ligandH.pdb
REMARK  8 active torsions:
REMARK  status: ('A' for Active; 'I' for Inactive)
REMARK    1  A    between atoms: _5  and  _11
REMARK    2  A    between atoms: _19  and  _21
REMARK    3  A    between atoms: _22  and  _66
REMARK    4  A    between atoms: _27  and  _30
REMARK    5  A    between atoms: _32  and  _33
REMARK    6  A    between atoms: _38  and  _43
REMARK    7  A    between atoms: _43  and  _46
REMARK    8  A    between atoms: _53  and  _55
REMARK                            x       y       z     vdW  Elec       q    Type
REMARK                         _______ _______ _______ _____ _____    ______ ____
ROOT
ATOM     10  C   UNL     1     -27.298  18.871   0.258  0.00  0.00    +0.038 A 
ATOM     11  C   UNL     1     -27.146  18.862  -1.152  0.00  0.00    +0.047 A 
ATOM     12  C   UNL     1     -26.785  20.070  -1.878  0.00  0.00    +0.035 A 
ATOM     32  C   UNL     1     -26.584  21.270  -1.135  0.00  0.00    +0.024 A 
ATOM     33  C   UNL     1     -26.735  21.298   0.298  0.00  0.00    +0.007 A 
ATOM     34  C   UNL     1     -27.094  20.110   1.019  0.00  0.00    -0.029 A 
ATOM     35  C   UNL     1     -27.249  20.199   2.556  0.00  0.00    +0.045 C 
ENDROOT
BRANCH  10   9
ATOM      4  C   UNL     1     -26.186  14.610   2.166  0.00  0.00    +0.077 A 
ATOM      5  C   UNL     1     -24.800  14.751   1.823  0.00  0.00    +0.048 A 
ATOM      6  C   UNL     1     -24.416  15.933   1.150  0.00  0.00    +0.116 A 
ATOM      7  N   UNL     1     -25.356  16.894   0.848  0.00  0.00    -0.223 NA
ATOM      8  C   UNL     1     -26.684  16.726   1.191  0.00  0.00    +0.220 A 
ATOM      9  N   UNL     1     -27.645  17.683   0.904  0.00  0.00    -0.283 N 
ATOM     36  H   UNL     1     -28.616  17.518   1.168  0.00  0.00    +0.155 HD
ATOM     37  N   UNL     1     -27.077  15.606   1.833  0.00  0.00    -0.214 NA
BRANCH   4   3
ATOM      1  C   UNL     1     -26.556  11.096   3.845  0.00  0.00    +0.020 A 
ATOM      2  C   UNL     1     -25.968  12.217   3.149  0.00  0.00    +0.013 A 
ATOM      3  C   UNL     1     -26.746  13.420   2.882  0.00  0.00    +0.019 A 
ATOM     38  C   UNL     1     -28.128  13.457   3.336  0.00  0.00    +0.120 A 
ATOM     39  N   UNL     1     -28.669  12.362   4.003  0.00  0.00    -0.263 NA
ATOM     40  C   UNL     1     -27.929  11.198   4.264  0.00  0.00    +0.111 A 
ENDBRANCH   4   3
ENDBRANCH  10   9
BRANCH  12  13
ATOM     13  N   UNL     1     -26.624  20.123  -3.310  0.00  0.00    -0.281 N 
ATOM     14  C   UNL     1     -27.462  20.717  -4.239  0.00  0.00    +0.248 C 
ATOM     30  O   UNL     1     -28.593  21.112  -3.998  0.00  0.00    -0.270 OA
ATOM     31  H   UNL     1     -25.792  19.667  -3.684  0.00  0.00    +0.155 HD
BRANCH  14  15
ATOM     15  C   UNL     1     -26.979  20.885  -5.644  0.00  0.00    +0.037 A 
ATOM     16  C   UNL     1     -27.844  20.582  -6.786  0.00  0.00    +0.013 A 
ATOM     17  C   UNL     1     -27.348  20.736  -8.131  0.00  0.00    +0.005 A 
ATOM     18  C   UNL     1     -25.977  21.197  -8.340  0.00  0.00    -0.033 A 
ATOM     28  C   UNL     1     -25.142  21.496  -7.188  0.00  0.00    +0.005 A 
ATOM     29  C   UNL     1     -25.625  21.345  -5.869  0.00  0.00    +0.013 A 
BRANCH  18  19
ATOM     19  C   UNL     1     -25.357  21.370  -9.739  0.00  0.00    +0.119 C 
BRANCH  19  20
ATOM     20  N   UNL     1     -24.994  22.756 -10.159  0.00  0.00    -0.302 NA
ATOM     21  C   UNL     1     -25.441  23.057 -11.593  0.00  0.00    +0.066 C 
ATOM     22  C   UNL     1     -25.074  24.519 -12.008  0.00  0.00    -0.064 C 
ATOM     23  N   UNL     1     -23.566  24.726 -11.857  0.00  0.00    +0.379 N 
ATOM     24  C   UNL     1     -23.209  26.081 -12.302  0.00  0.00    -0.096 C 
ATOM     25  H   UNL     1     -23.056  24.002 -12.534  0.00  0.00    -0.082 HD
ATOM     26  C   UNL     1     -23.112  24.426 -10.435  0.00  0.00    -0.064 C 
ATOM     27  C   UNL     1     -23.508  22.981 -10.021  0.00  0.00    +0.066 C 
ENDBRANCH  19  20
ENDBRANCH  18  19
ENDBRANCH  14  15
ENDBRANCH  12  13
TORSDOF 6
ENDMDL
MODEL 4
REMARK VINA RESULT:      -7.3     34.704     39.368
REMARK  Name = C:\Users\Docking\Desktop\test protocol\1iep_ligandH.pdb
REMARK  8 active torsions:
REMARK  status: ('A' for Active; 'I' for Inactive)
REMARK    1  A    between atoms: _5  and  _11
REMARK    2  A    between atoms: _19  and  _21
REMARK    3  A    between atoms: _22  and  _66
REMARK    4  A    between atoms: _27  and  _30
REMARK    5  A    between atoms: _32  and  _33
REMARK    6  A    between atoms: _38  and  _43
REMARK    7  A    between atoms: _43  and  _46
REMARK    8  A    between atoms: _53  and  _55
REMARK                            x       y       z     vdW  Elec       q    Type
REMARK                         _______ _______ _______ _____ _____    ______ ____
ROOT
ATOM     10  C   UNL     1     -28.596  20.550  -3.349  0.00  0.00    +0.038 A 
ATOM     11  C   UNL     1     -28.134  19.364  -2.724  0.00  0.00    +0.047 A 
ATOM     12  C   UNL     1     -28.129  19.229  -1.276  0.00  0.00    +0.035 A 
ATOM     32  C   UNL     1     -28.605  20.322  -0.494  0.00  0.00    +0.024 A 
ATOM     33  C   UNL     1     -29.077  21.536  -1.113  0.00  0.00    +0.007 A 
ATOM     34  C   UNL     1     -29.082  21.675  -2.541  0.00  0.00    -0.029 A 
ATOM     35  C   UNL     1     -29.595  23.001  -3.150  0.00  0.00    +0.045 C 
ENDROOT
BRANCH  10   9
ATOM      4  C   UNL     1     -26.372  21.408  -7.515  0.00  0.00    +0.077 A 
ATOM      5  C   UNL     1     -25.148  21.763  -6.856  0.00  0.00    +0.048 A 
ATOM      6  C   UNL     1     -25.135  21.719  -5.444  0.00  0.00    +0.116 A 
ATOM      7  N   UNL     1     -26.267  21.345  -4.752  0.00  0.00    -0.223 NA
ATOM      8  C   UNL     1     -27.431  21.011  -5.419  0.00  0.00    +0.220 A 
ATOM      9  N   UNL     1     -28.579  20.625  -4.744  0.00  0.00    -0.283 N 
ATOM     36  H   UNL     1     -29.420  20.393  -5.272  0.00  0.00    +0.155 HD
ATOM     37  N   UNL     1     -27.470  21.047  -6.767  0.00  0.00    -0.214 NA
BRANCH   4   3
ATOM      1  C   UNL     1     -25.648  21.565 -11.356  0.00  0.00    +0.020 A 
ATOM      2  C   UNL     1     -25.429  21.579  -9.927  0.00  0.00    +0.013 A 
ATOM      3  C   UNL     1     -26.542  21.403  -9.002  0.00  0.00    +0.019 A 
ATOM     38  C   UNL     1     -27.873  21.213  -9.559  0.00  0.00    +0.120 A 
ATOM     39  N   UNL     1     -28.053  21.206 -10.938  0.00  0.00    -0.263 NA
ATOM     40  C   UNL     1     -26.990  21.376 -11.839  0.00  0.00    +0.111 A 
ENDBRANCH   4   3
ENDBRANCH  10   9
BRANCH  12  13
ATOM     13  N   UNL     1     -27.663  18.053  -0.585  0.00  0.00    -0.281 N 
ATOM     14  C   UNL     1     -26.478  17.887   0.113  0.00  0.00    +0.248 C 
ATOM     30  O   UNL     1     -25.535  18.664   0.067  0.00  0.00    -0.270 OA
ATOM     31  H   UNL     1     -28.283  17.243  -0.613  0.00  0.00    +0.155 HD
BRANCH  14  15
ATOM     15  C   UNL     1     -26.309  16.677   0.974  0.00  0.00    +0.037 A 
ATOM     16  C   UNL     1     -25.032  15.963   1.038  0.00  0.00    +0.013 A 
ATOM     17  C   UNL     1     -24.901  14.788   1.864  0.00  0.00    +0.005 A 
ATOM     18  C   UNL     1     -26.052  14.322   2.633  0.00  0.00    -0.033 A 
ATOM     28  C   UNL     1     -27.306  15.053   2.554  0.00  0.00    +0.005 A 
ATOM     29  C   UNL     1     -27.438  16.204   1.746  0.00  0.00    +0.013 A 
BRANCH  18  19
ATOM     19  C   UNL     1     -26.009  13.066   3.524  0.00  0.00    +0.119 C 
BRANCH  19  20
ATOM     20  N   UNL     1     -25.696  11.766   2.858  0.00  0.00    -0.302 NA
ATOM     21  C   UNL     1     -26.748  10.696   3.164  0.00  0.00    +0.066 C 
ATOM     22  C   UNL     1     -26.417   9.350   2.442  0.00  0.00    -0.064 C 
ATOM     23  N   UNL     1     -25.024   8.877   2.864  0.00  0.00    +0.379 N 
ATOM     24  C   UNL     1     -24.733   7.582   2.232  0.00  0.00    -0.096 C 
ATOM     25  H   UNL     1     -25.041   8.719   3.967  0.00  0.00    -0.082 HD
ATOM     26  C   UNL     1     -23.973   9.936   2.566  0.00  0.00    -0.064 C 
ATOM     27  C   UNL     1     -24.327  11.279   3.264  0.00  0.00    +0.066 C 
ENDBRANCH  19  20
ENDBRANCH  18  19
ENDBRANCH  14  15
ENDBRANCH  12  13
TORSDOF 6
ENDMDL
MODEL 5
REMARK VINA RESULT:      -7.2     35.191     40.131
REMARK  Name = C:\Users\Docking\Desktop\test protocol\1iep_ligandH.pdb
REMARK  8 active torsions:
REMARK  status: ('A' for Active; 'I' for Inactive)
REMARK    1  A    between atoms: _5  and  _11
REMARK    2  A    between atoms: _19  and  _21
REMARK    3  A    between atoms: _22  and  _66
REMARK    4  A    between atoms: _27  and  _30
REMARK    5  A    between atoms: _32  and  _33
REMARK    6  A    between atoms: _38  and  _43
REMARK    7  A    between atoms: _43  and  _46
REMARK    8  A    between atoms: _53  and  _55
REMARK                            x       y       z     vdW  Elec       q    Type
REMARK                         _______ _______ _______ _____ _____    ______ ____
ROOT
ATOM     10  C   UNL     1     -15.258 -22.959  -6.735  0.00  0.00    +0.038 A 
ATOM     11  C   UNL     1     -16.133 -21.997  -6.169  0.00  0.00    +0.047 A 
ATOM     12  C   UNL     1     -17.570 -22.070  -6.382  0.00  0.00    +0.035 A 
ATOM     32  C   UNL     1     -18.082 -23.139  -7.174  0.00  0.00    +0.024 A 
ATOM     33  C   UNL     1     -17.207 -24.124  -7.758  0.00  0.00    +0.007 A 
ATOM     34  C   UNL     1     -15.788 -24.056  -7.554  0.00  0.00    -0.029 A 
ATOM     35  C   UNL     1     -14.897 -25.136  -8.209  0.00  0.00    +0.045 C 
ENDROOT
BRANCH  10   9
ATOM      4  C   UNL     1     -11.352 -23.665  -4.037  0.00  0.00    +0.077 A 
ATOM      5  C   UNL     1     -12.111 -24.300  -2.999  0.00  0.00    +0.048 A 
ATOM      6  C   UNL     1     -13.506 -24.418  -3.194  0.00  0.00    +0.116 A 
ATOM      7  N   UNL     1     -14.086 -23.935  -4.347  0.00  0.00    -0.223 NA
ATOM      8  C   UNL     1     -13.325 -23.327  -5.328  0.00  0.00    +0.220 A 
ATOM      9  N   UNL     1     -13.886 -22.841  -6.499  0.00  0.00    -0.283 N 
ATOM     36  H   UNL     1     -13.292 -22.392  -7.195  0.00  0.00    +0.155 HD
ATOM     37  N   UNL     1     -11.991 -23.200  -5.164  0.00  0.00    -0.214 NA
BRANCH   4   3
ATOM      1  C   UNL     1      -7.530 -23.821  -4.855  0.00  0.00    +0.020 A 
ATOM      2  C   UNL     1      -8.954 -24.042  -4.957  0.00  0.00    +0.013 A 
ATOM      3  C   UNL     1      -9.869 -23.468  -3.978  0.00  0.00    +0.019 A 
ATOM     38  C   UNL     1      -9.306 -22.670  -2.900  0.00  0.00    +0.120 A 
ATOM     39  N   UNL     1      -7.930 -22.476  -2.826  0.00  0.00    -0.263 NA
ATOM     40  C   UNL     1      -7.040 -23.024  -3.762  0.00  0.00    +0.111 A 
ENDBRANCH   4   3
ENDBRANCH  10   9
BRANCH  12  13
ATOM     13  N   UNL     1     -18.507 -21.118  -5.839  0.00  0.00    -0.281 N 
ATOM     14  C   UNL     1     -19.191 -21.186  -4.636  0.00  0.00    +0.248 C 
ATOM     30  O   UNL     1     -19.262 -22.186  -3.937  0.00  0.00    -0.270 OA
ATOM     31  H   UNL     1     -18.689 -20.293  -6.411  0.00  0.00    +0.155 HD
BRANCH  14  15
ATOM     15  C   UNL     1     -19.911 -19.972  -4.145  0.00  0.00    +0.037 A 
ATOM     16  C   UNL     1     -20.388 -18.944  -5.073  0.00  0.00    +0.013 A 
ATOM     17  C   UNL     1     -21.065 -17.775  -4.572  0.00  0.00    +0.005 A 
ATOM     18  C   UNL     1     -21.271 -17.628  -3.133  0.00  0.00    -0.033 A 
ATOM     28  C   UNL     1     -20.792 -18.666  -2.235  0.00  0.00    +0.005 A 
ATOM     29  C   UNL     1     -20.127 -19.813  -2.723  0.00  0.00    +0.013 A 
BRANCH  18  19
ATOM     19  C   UNL     1     -21.964 -16.403  -2.507  0.00  0.00    +0.119 C 
BRANCH  19  20
ATOM     20  N   UNL     1     -22.275 -16.465  -1.048  0.00  0.00    -0.302 NA
ATOM     21  C   UNL     1     -23.747 -16.793  -0.787  0.00  0.00    +0.066 C 
ATOM     22  C   UNL     1     -24.050 -16.875   0.745  0.00  0.00    -0.064 C 
ATOM     23  N   UNL     1     -23.664 -15.553   1.409  0.00  0.00    +0.379 N 
ATOM     24  C   UNL     1     -24.001 -15.606   2.840  0.00  0.00    -0.096 C 
ATOM     25  H   UNL     1     -24.281 -14.749   0.946  0.00  0.00    -0.082 HD
ATOM     26  C   UNL     1     -22.201 -15.217   1.153  0.00  0.00    -0.064 C 
ATOM     27  C   UNL     1     -21.905 -15.167  -0.372  0.00  0.00    +0.066 C 
ENDBRANCH  19  20
ENDBRANCH  18  19
ENDBRANCH  14  15
ENDBRANCH  12  13
TORSDOF 6
ENDMDL
