MODEL 1
REMARK VINA RESULT:      -9.8      0.000      0.000
REMARK  Name = C:\Users\Docking\Desktop\test protocol\1iep_ligandH.pdb
REMARK  8 active torsions:
REMARK  status: ('A' for Active; 'I' for Inactive)
REMARK    1  A    between atoms: _5  and  _11
REMARK    2  A    between atoms: _19  and  _21
REMARK    3  A    between atoms: _22  and  _66
REMARK    4  A    between atoms: _27  and  _30
REMARK    5  A    between atoms: _32  and  _33
REMARK    6  A    between atoms: _38  and  _43
REMARK    7  A    between atoms: _43  and  _46
REMARK    8  A    between atoms: _53  and  _55
REMARK                            x       y       z     vdW  Elec       q    Type
REMARK                         _______ _______ _______ _____ _____    ______ ____
ROOT
ATOM     10  C   UNL     1      35.033  37.345  13.556  0.00  0.00    +0.038 A 
ATOM     11  C   UNL     1      35.317  36.942  14.886  0.00  0.00    +0.047 A 
ATOM     12  C   UNL     1      35.749  35.586  15.186  0.00  0.00    +0.035 A 
ATOM     32  C   UNL     1      35.884  34.666  14.105  0.00  0.00    +0.024 A 
ATOM     33  C   UNL     1      35.599  35.058  12.747  0.00  0.00    +0.007 A 
ATOM     34  C   UNL     1      35.171  36.394  12.446  0.00  0.00    -0.029 A 
ATOM     35  C   UNL     1      34.873  36.758  10.973  0.00  0.00    +0.045 C 
ENDROOT
BRANCH  10   9
ATOM      4  C   UNL     1      31.862  40.923  13.976  0.00  0.00    +0.077 A 
ATOM      5  C   UNL     1      30.934  40.096  14.692  0.00  0.00    +0.048 A 
ATOM      6  C   UNL     1      31.308  38.753  14.925  0.00  0.00    +0.116 A 
ATOM      7  N   UNL     1      32.522  38.284  14.472  0.00  0.00    -0.223 NA
ATOM      8  C   UNL     1      33.393  39.108  13.784  0.00  0.00    +0.220 A 
ATOM      9  N   UNL     1      34.622  38.660  13.326  0.00  0.00    -0.283 N 
ATOM     36  H   UNL     1      35.233  39.297  12.816  0.00  0.00    +0.155 HD
ATOM     37  N   UNL     1      33.059  40.394  13.547  0.00  0.00    -0.214 NA
BRANCH   4   3
ATOM      1  C   UNL     1      31.019  44.729  14.303  0.00  0.00    +0.020 A 
ATOM      2  C   UNL     1      31.249  43.350  14.666  0.00  0.00    +0.013 A 
ATOM      3  C   UNL     1      31.612  42.364  13.655  0.00  0.00    +0.019 A 
ATOM     38  C   UNL     1      31.737  42.811  12.276  0.00  0.00    +0.120 A 
ATOM     39  N   UNL     1      31.508  44.146  11.956  0.00  0.00    -0.263 NA
ATOM     40  C   UNL     1      31.156  45.102  12.919  0.00  0.00    +0.111 A 
ENDBRANCH   4   3
ENDBRANCH  10   9
BRANCH  12  13
ATOM     13  N   UNL     1      36.043  35.117  16.517  0.00  0.00    -0.281 N 
ATOM     14  C   UNL     1      36.762  35.764  17.508  0.00  0.00    +0.248 C 
ATOM     30  O   UNL     1      37.448  36.760  17.327  0.00  0.00    -0.270 OA
ATOM     31  H   UNL     1      35.676  34.196  16.758  0.00  0.00    +0.155 HD
BRANCH  14  15
ATOM     15  C   UNL     1      36.727  35.219  18.899  0.00  0.00    +0.037 A 
ATOM     16  C   UNL     1      36.901  33.787  19.159  0.00  0.00    +0.013 A 
ATOM     17  C   UNL     1      36.845  33.285  20.509  0.00  0.00    +0.005 A 
ATOM     18  C   UNL     1      36.616  34.216  21.611  0.00  0.00    -0.033 A 
ATOM     28  C   UNL     1      36.453  35.632  21.325  0.00  0.00    +0.005 A 
ATOM     29  C   UNL     1      36.505  36.128  20.003  0.00  0.00    +0.013 A 
BRANCH  18  19
ATOM     19  C   UNL     1      36.521  33.766  23.080  0.00  0.00    +0.119 C 
BRANCH  19  20
ATOM     20  N   UNL     1      37.763  33.229  23.713  0.00  0.00    -0.302 NA
ATOM     21  C   UNL     1      38.978  34.121  23.441  0.00  0.00    +0.066 C 
ATOM     22  C   UNL     1      40.264  33.557  24.128  0.00  0.00    -0.064 C 
ATOM     23  N   UNL     1      40.518  32.131  23.637  0.00  0.00    +0.379 N 
ATOM     24  C   UNL     1      41.758  31.618  24.237  0.00  0.00    -0.096 C 
ATOM     25  H   UNL     1      40.669  32.176  22.533  0.00  0.00    -0.082 HD
ATOM     26  C   UNL     1      39.313  31.238  23.901  0.00  0.00    -0.064 C 
ATOM     27  C   UNL     1      38.035  31.823  23.238  0.00  0.00    +0.066 C 
ENDBRANCH  19  20
ENDBRANCH  18  19
ENDBRANCH  14  15
ENDBRANCH  12  13
TORSDOF 6
ENDMDL
MODEL 2
REMARK VINA RESULT:      -9.3     28.620     31.822
REMARK  Name = C:\Users\Docking\Desktop\test protocol\1iep_ligandH.pdb
REMARK  8 active torsions:
REMARK  status: ('A' for Active; 'I' for Inactive)
REMARK    1  A    between atoms: _5  and  _11
REMARK    2  A    between atoms: _19  and  _21
REMARK    3  A    between atoms: _22  and  _66
REMARK    4  A    between atoms: _27  and  _30
REMARK    5  A    between atoms: _32  and  _33
REMARK    6  A    between atoms: _38  and  _43
REMARK    7  A    between atoms: _43  and  _46
REMARK    8  A    between atoms: _53  and  _55
REMARK                            x       y       z     vdW  Elec       q    Type
REMARK                         _______ _______ _______ _____ _____    ______ ____
ROOT
ATOM     10  C   UNL     1       7.847  40.871  33.325  0.00  0.00    +0.038 A 
ATOM     11  C   UNL     1       7.957  40.027  32.191  0.00  0.00    +0.047 A 
ATOM     12  C   UNL     1       7.174  40.275  30.990  0.00  0.00    +0.035 A 
ATOM     32  C   UNL     1       6.291  41.393  30.978  0.00  0.00    +0.024 A 
ATOM     33  C   UNL     1       6.166  42.261  32.123  0.00  0.00    +0.007 A 
ATOM     34  C   UNL     1       6.934  42.020  33.311  0.00  0.00    -0.029 A 
ATOM     35  C   UNL     1       6.755  42.979  34.511  0.00  0.00    +0.045 C 
ENDROOT
BRANCH  10   9
ATOM      4  C   UNL     1      11.945  41.109  35.813  0.00  0.00    +0.077 A 
ATOM      5  C   UNL     1      12.605  41.839  34.770  0.00  0.00    +0.048 A 
ATOM      6  C   UNL     1      11.857  42.127  33.606  0.00  0.00    +0.116 A 
ATOM      7  N   UNL     1      10.547  41.711  33.504  0.00  0.00    -0.223 NA
ATOM      8  C   UNL     1       9.941  41.007  34.529  0.00  0.00    +0.220 A 
ATOM      9  N   UNL     1       8.622  40.586  34.452  0.00  0.00    -0.283 N 
ATOM     36  H   UNL     1       8.214  40.063  35.226  0.00  0.00    +0.155 HD
ATOM     37  N   UNL     1      10.634  40.719  35.650  0.00  0.00    -0.214 NA
BRANCH   4   3
ATOM      1  C   UNL     1      13.975  39.183  38.546  0.00  0.00    +0.020 A 
ATOM      2  C   UNL     1      13.361  39.500  37.277  0.00  0.00    +0.013 A 
ATOM      3  C   UNL     1      12.601  40.732  37.105  0.00  0.00    +0.019 A 
ATOM     38  C   UNL     1      12.482  41.629  38.244  0.00  0.00    +0.120 A 
ATOM     39  N   UNL     1      13.084  41.297  39.454  0.00  0.00    -0.263 NA
ATOM     40  C   UNL     1      13.816  40.113  39.633  0.00  0.00    +0.111 A 
ENDBRANCH   4   3
ENDBRANCH  10   9
BRANCH  12  13
ATOM     13  N   UNL     1       7.237  39.447  29.811  0.00  0.00    -0.281 N 
ATOM     14  C   UNL     1       8.279  39.335  28.904  0.00  0.00    +0.248 C 
ATOM     30  O   UNL     1       9.235  40.093  28.854  0.00  0.00    -0.270 OA
ATOM     31  H   UNL     1       6.414  38.875  29.621  0.00  0.00    +0.155 HD
BRANCH  14  15
ATOM     15  C   UNL     1       8.245  38.228  27.900  0.00  0.00    +0.037 A 
ATOM     16  C   UNL     1       8.822  38.398  26.564  0.00  0.00    +0.013 A 
ATOM     17  C   UNL     1       8.761  37.320  25.608  0.00  0.00    +0.005 A 
ATOM     18  C   UNL     1       8.122  36.062  25.987  0.00  0.00    -0.033 A 
ATOM     28  C   UNL     1       7.563  35.919  27.321  0.00  0.00    +0.005 A 
ATOM     29  C   UNL     1       7.620  36.974  28.260  0.00  0.00    +0.013 A 
BRANCH  18  19
ATOM     19  C   UNL     1       7.993  34.866  25.025  0.00  0.00    +0.119 C 
BRANCH  19  20
ATOM     20  N   UNL     1       7.457  35.143  23.659  0.00  0.00    -0.302 NA
ATOM     21  C   UNL     1       6.426  36.275  23.665  0.00  0.00    +0.066 C 
ATOM     22  C   UNL     1       5.892  36.566  22.224  0.00  0.00    -0.064 C 
ATOM     23  N   UNL     1       5.289  35.288  21.639  0.00  0.00    +0.379 N 
ATOM     24  C   UNL     1       4.734  35.573  20.308  0.00  0.00    -0.096 C 
ATOM     25  H   UNL     1       4.445  34.980  22.299  0.00  0.00    -0.082 HD
ATOM     26  C   UNL     1       6.306  34.156  21.632  0.00  0.00    -0.064 C 
ATOM     27  C   UNL     1       6.852  33.895  23.064  0.00  0.00    +0.066 C 
ENDBRANCH  19  20
ENDBRANCH  18  19
ENDBRANCH  14  15
ENDBRANCH  12  13
TORSDOF 6
ENDMDL
MODEL 3
REMARK VINA RESULT:      -9.2     26.332     30.380
REMARK  Name = C:\Users\Docking\Desktop\test protocol\1iep_ligandH.pdb
REMARK  8 active torsions:
REMARK  status: ('A' for Active; 'I' for Inactive)
REMARK    1  A    between atoms: _5  and  _11
REMARK    2  A    between atoms: _19  and  _21
REMARK    3  A    between atoms: _22  and  _66
REMARK    4  A    between atoms: _27  and  _30
REMARK    5  A    between atoms: _32  and  _33
REMARK    6  A    between atoms: _38  and  _43
REMARK    7  A    between atoms: _43  and  _46
REMARK    8  A    between atoms: _53  and  _55
REMARK                            x       y       z     vdW  Elec       q    Type
REMARK                         _______ _______ _______ _____ _____    ______ ____
ROOT
ATOM     10  C   UNL     1      12.676  21.959  28.347  0.00  0.00    +0.038 A 
ATOM     11  C   UNL     1      12.101  23.255  28.308  0.00  0.00    +0.047 A 
ATOM     12  C   UNL     1      10.847  23.502  27.613  0.00  0.00    +0.035 A 
ATOM     32  C   UNL     1      10.204  22.404  26.971  0.00  0.00    +0.024 A 
ATOM     33  C   UNL     1      10.774  21.080  27.000  0.00  0.00    +0.007 A 
ATOM     34  C   UNL     1      12.012  20.832  27.682  0.00  0.00    -0.029 A 
ATOM     35  C   UNL     1      12.581  19.393  27.675  0.00  0.00    +0.045 C 
ENDROOT
BRANCH  10   9
ATOM      4  C   UNL     1      17.470  22.026  28.558  0.00  0.00    +0.077 A 
ATOM      5  C   UNL     1      17.584  22.429  27.186  0.00  0.00    +0.048 A 
ATOM      6  C   UNL     1      16.385  22.600  26.459  0.00  0.00    +0.116 A 
ATOM      7  N   UNL     1      15.168  22.384  27.069  0.00  0.00    -0.223 NA
ATOM      8  C   UNL     1      15.094  21.995  28.394  0.00  0.00    +0.220 A 
ATOM      9  N   UNL     1      13.881  21.779  29.029  0.00  0.00    -0.283 N 
ATOM     36  H   UNL     1      13.869  21.486  30.006  0.00  0.00    +0.155 HD
ATOM     37  N   UNL     1      16.225  21.822  29.109  0.00  0.00    -0.214 NA
BRANCH   4   3
ATOM      1  C   UNL     1      21.036  21.122  29.889  0.00  0.00    +0.020 A 
ATOM      2  C   UNL     1      19.932  21.316  28.978  0.00  0.00    +0.013 A 
ATOM      3  C   UNL     1      18.646  21.807  29.459  0.00  0.00    +0.019 A 
ATOM     38  C   UNL     1      18.510  22.095  30.879  0.00  0.00    +0.120 A 
ATOM     39  N   UNL     1      19.591  21.897  31.733  0.00  0.00    -0.263 NA
ATOM     40  C   UNL     1      20.832  21.424  31.282  0.00  0.00    +0.111 A 
ENDBRANCH   4   3
ENDBRANCH  10   9
BRANCH  12  13
ATOM     13  N   UNL     1      10.221  24.798  27.533  0.00  0.00    -0.281 N 
ATOM     14  C   UNL     1      10.383  25.763  26.553  0.00  0.00    +0.248 C 
ATOM     30  O   UNL     1      11.261  25.744  25.703  0.00  0.00    -0.270 OA
ATOM     31  H   UNL     1       9.579  25.032  28.290  0.00  0.00    +0.155 HD
BRANCH  14  15
ATOM     15  C   UNL     1       9.444  26.925  26.521  0.00  0.00    +0.037 A 
ATOM     16  C   UNL     1       8.317  27.017  27.452  0.00  0.00    +0.013 A 
ATOM     17  C   UNL     1       7.416  28.141  27.389  0.00  0.00    +0.005 A 
ATOM     18  C   UNL     1       7.640  29.183  26.390  0.00  0.00    -0.033 A 
ATOM     28  C   UNL     1       8.769  29.069  25.482  0.00  0.00    +0.005 A 
ATOM     29  C   UNL     1       9.654  27.969  25.540  0.00  0.00    +0.013 A 
BRANCH  18  19
ATOM     19  C   UNL     1       6.717  30.406  26.237  0.00  0.00    +0.119 C 
BRANCH  19  20
ATOM     20  N   UNL     1       7.140  31.465  25.272  0.00  0.00    -0.302 NA
ATOM     21  C   UNL     1       6.888  32.873  25.817  0.00  0.00    +0.066 C 
ATOM     22  C   UNL     1       7.357  33.968  24.804  0.00  0.00    -0.064 C 
ATOM     23  N   UNL     1       6.636  33.767  23.470  0.00  0.00    +0.379 N 
ATOM     24  C   UNL     1       7.031  34.830  22.534  0.00  0.00    -0.096 C 
ATOM     25  H   UNL     1       5.542  33.871  23.658  0.00  0.00    -0.082 HD
ATOM     26  C   UNL     1       6.879  32.368  22.922  0.00  0.00    -0.064 C 
ATOM     27  C   UNL     1       6.437  31.288  23.948  0.00  0.00    +0.066 C 
ENDBRANCH  19  20
ENDBRANCH  18  19
ENDBRANCH  14  15
ENDBRANCH  12  13
TORSDOF 6
ENDMDL
MODEL 4
REMARK VINA RESULT:      -8.9      7.726      9.395
REMARK  Name = C:\Users\Docking\Desktop\test protocol\1iep_ligandH.pdb
REMARK  8 active torsions:
REMARK  status: ('A' for Active; 'I' for Inactive)
REMARK    1  A    between atoms: _5  and  _11
REMARK    2  A    between atoms: _19  and  _21
REMARK    3  A    between atoms: _22  and  _66
REMARK    4  A    between atoms: _27  and  _30
REMARK    5  A    between atoms: _32  and  _33
REMARK    6  A    between atoms: _38  and  _43
REMARK    7  A    between atoms: _43  and  _46
REMARK    8  A    between atoms: _53  and  _55
REMARK                            x       y       z     vdW  Elec       q    Type
REMARK                         _______ _______ _______ _____ _____    ______ ____
ROOT
ATOM     10  C   UNL     1      36.992  39.932  10.140  0.00  0.00    +0.038 A 
ATOM     11  C   UNL     1      36.590  38.585   9.953  0.00  0.00    +0.047 A 
ATOM     12  C   UNL     1      37.542  37.564   9.543  0.00  0.00    +0.035 A 
ATOM     32  C   UNL     1      38.898  37.950   9.336  0.00  0.00    +0.024 A 
ATOM     33  C   UNL     1      39.325  39.315   9.521  0.00  0.00    +0.007 A 
ATOM     34  C   UNL     1      38.389  40.327   9.922  0.00  0.00    -0.029 A 
ATOM     35  C   UNL     1      38.901  41.775  10.099  0.00  0.00    +0.045 C 
ENDROOT
BRANCH  10   9
ATOM      4  C   UNL     1      33.351  41.350  12.926  0.00  0.00    +0.077 A 
ATOM      5  C   UNL     1      33.334  40.106  13.640  0.00  0.00    +0.048 A 
ATOM      6  C   UNL     1      34.275  39.125  13.254  0.00  0.00    +0.116 A 
ATOM      7  N   UNL     1      35.161  39.379  12.230  0.00  0.00    -0.223 NA
ATOM      8  C   UNL     1      35.149  40.590  11.561  0.00  0.00    +0.220 A 
ATOM      9  N   UNL     1      36.036  40.870  10.534  0.00  0.00    -0.283 N 
ATOM     36  H   UNL     1      35.990  41.772  10.060  0.00  0.00    +0.155 HD
ATOM     37  N   UNL     1      34.260  41.543  11.910  0.00  0.00    -0.214 NA
BRANCH   4   3
ATOM      1  C   UNL     1      31.129  43.969  14.800  0.00  0.00    +0.020 A 
ATOM      2  C   UNL     1      32.030  42.862  14.572  0.00  0.00    +0.013 A 
ATOM      3  C   UNL     1      32.421  42.487  13.219  0.00  0.00    +0.019 A 
ATOM     38  C   UNL     1      31.881  43.259  12.110  0.00  0.00    +0.120 A 
ATOM     39  N   UNL     1      31.014  44.319  12.360  0.00  0.00    -0.263 NA
ATOM     40  C   UNL     1      30.629  44.688  13.658  0.00  0.00    +0.111 A 
ENDBRANCH   4   3
ENDBRANCH  10   9
BRANCH  12  13
ATOM     13  N   UNL     1      37.189  36.182   9.330  0.00  0.00    -0.281 N 
ATOM     14  C   UNL     1      37.715  35.304   8.397  0.00  0.00    +0.248 C 
ATOM     30  O   UNL     1      38.422  35.635   7.457  0.00  0.00    -0.270 OA
ATOM     31  H   UNL     1      36.464  35.807   9.941  0.00  0.00    +0.155 HD
BRANCH  14  15
ATOM     15  C   UNL     1      37.398  33.848   8.517  0.00  0.00    +0.037 A 
ATOM     16  C   UNL     1      37.668  33.111   9.754  0.00  0.00    +0.013 A 
ATOM     17  C   UNL     1      37.368  31.704   9.838  0.00  0.00    +0.005 A 
ATOM     18  C   UNL     1      36.793  31.024   8.680  0.00  0.00    -0.033 A 
ATOM     28  C   UNL     1      36.530  31.781   7.467  0.00  0.00    +0.005 A 
ATOM     29  C   UNL     1      36.823  33.160   7.381  0.00  0.00    +0.013 A 
BRANCH  18  19
ATOM     19  C   UNL     1      36.461  29.520   8.672  0.00  0.00    +0.119 C 
BRANCH  19  20
ATOM     20  N   UNL     1      35.608  29.002   9.784  0.00  0.00    -0.302 NA
ATOM     21  C   UNL     1      35.274  27.519   9.608  0.00  0.00    +0.066 C 
ATOM     22  C   UNL     1      34.400  26.988  10.791  0.00  0.00    -0.064 C 
ATOM     23  N   UNL     1      33.123  27.823  10.892  0.00  0.00    +0.379 N 
ATOM     24  C   UNL     1      32.272  27.290  11.967  0.00  0.00    -0.096 C 
ATOM     25  H   UNL     1      32.567  27.708   9.933  0.00  0.00    -0.082 HD
ATOM     26  C   UNL     1      33.446  29.300  11.065  0.00  0.00    -0.064 C 
ATOM     27  C   UNL     1      34.339  29.810   9.899  0.00  0.00    +0.066 C 
ENDBRANCH  19  20
ENDBRANCH  18  19
ENDBRANCH  14  15
ENDBRANCH  12  13
TORSDOF 6
ENDMDL
MODEL 5
REMARK VINA RESULT:      -8.6      8.082     13.678
REMARK  Name = C:\Users\Docking\Desktop\test protocol\1iep_ligandH.pdb
REMARK  8 active torsions:
REMARK  status: ('A' for Active; 'I' for Inactive)
REMARK    1  A    between atoms: _5  and  _11
REMARK    2  A    between atoms: _19  and  _21
REMARK    3  A    between atoms: _22  and  _66
REMARK    4  A    between atoms: _27  and  _30
REMARK    5  A    between atoms: _32  and  _33
REMARK    6  A    between atoms: _38  and  _43
REMARK    7  A    between atoms: _43  and  _46
REMARK    8  A    between atoms: _53  and  _55
REMARK                            x       y       z     vdW  Elec       q    Type
REMARK                         _______ _______ _______ _____ _____    ______ ____
ROOT
ATOM     10  C   UNL     1      40.981  35.001   6.980  0.00  0.00    +0.038 A 
ATOM     11  C   UNL     1      39.906  35.637   7.651  0.00  0.00    +0.047 A 
ATOM     12  C   UNL     1      39.629  35.367   9.053  0.00  0.00    +0.035 A 
ATOM     32  C   UNL     1      40.470  34.445   9.742  0.00  0.00    +0.024 A 
ATOM     33  C   UNL     1      41.567  33.788   9.075  0.00  0.00    +0.007 A 
ATOM     34  C   UNL     1      41.843  34.049   7.691  0.00  0.00    -0.029 A 
ATOM     35  C   UNL     1      43.028  33.312   7.025  0.00  0.00    +0.045 C 
ENDROOT
BRANCH  10   9
ATOM      4  C   UNL     1      40.455  34.073   2.300  0.00  0.00    +0.077 A 
ATOM      5  C   UNL     1      39.699  32.882   2.561  0.00  0.00    +0.048 A 
ATOM      6  C   UNL     1      39.474  32.539   3.913  0.00  0.00    +0.116 A 
ATOM      7  N   UNL     1      39.972  33.336   4.921  0.00  0.00    -0.223 NA
ATOM      8  C   UNL     1      40.698  34.477   4.635  0.00  0.00    +0.220 A 
ATOM      9  N   UNL     1      41.202  35.297   5.633  0.00  0.00    -0.283 N 
ATOM     36  H   UNL     1      41.739  36.127   5.381  0.00  0.00    +0.155 HD
ATOM     37  N   UNL     1      40.928  34.825   3.352  0.00  0.00    -0.214 NA
BRANCH   4   3
ATOM      1  C   UNL     1      42.044  36.038  -0.685  0.00  0.00    +0.020 A 
ATOM      2  C   UNL     1      41.775  35.595   0.663  0.00  0.00    +0.013 A 
ATOM      3  C   UNL     1      40.773  34.569   0.924  0.00  0.00    +0.019 A 
ATOM     38  C   UNL     1      40.056  34.007  -0.211  0.00  0.00    +0.120 A 
ATOM     39  N   UNL     1      40.336  34.455  -1.499  0.00  0.00    -0.263 NA
ATOM     40  C   UNL     1      41.297  35.443  -1.761  0.00  0.00    +0.111 A 
ENDBRANCH   4   3
ENDBRANCH  10   9
BRANCH  12  13
ATOM     13  N   UNL     1      38.547  35.976   9.785  0.00  0.00    -0.281 N 
ATOM     14  C   UNL     1      38.403  37.307  10.142  0.00  0.00    +0.248 C 
ATOM     30  O   UNL     1      39.292  38.142  10.069  0.00  0.00    -0.270 OA
ATOM     31  H   UNL     1      37.796  35.351  10.076  0.00  0.00    +0.155 HD
BRANCH  14  15
ATOM     15  C   UNL     1      37.085  37.775  10.668  0.00  0.00    +0.037 A 
ATOM     16  C   UNL     1      36.198  36.873  11.407  0.00  0.00    +0.013 A 
ATOM     17  C   UNL     1      34.924  37.345  11.889  0.00  0.00    +0.005 A 
ATOM     18  C   UNL     1      34.531  38.729  11.635  0.00  0.00    -0.033 A 
ATOM     28  C   UNL     1      35.432  39.604  10.904  0.00  0.00    +0.005 A 
ATOM     29  C   UNL     1      36.681  39.144  10.429  0.00  0.00    +0.013 A 
BRANCH  18  19
ATOM     19  C   UNL     1      33.181  39.313  12.094  0.00  0.00    +0.119 C 
BRANCH  19  20
ATOM     20  N   UNL     1      33.126  40.781  12.359  0.00  0.00    -0.302 NA
ATOM     21  C   UNL     1      32.489  41.096  13.715  0.00  0.00    +0.066 C 
ATOM     22  C   UNL     1      32.460  42.636  13.986  0.00  0.00    -0.064 C 
ATOM     23  N   UNL     1      31.703  43.336  12.856  0.00  0.00    +0.379 N 
ATOM     24  C   UNL     1      31.623  44.777  13.138  0.00  0.00    -0.096 C 
ATOM     25  H   UNL     1      30.662  42.935  12.848  0.00  0.00    -0.082 HD
ATOM     26  C   UNL     1      32.328  43.025  11.504  0.00  0.00    -0.064 C 
ATOM     27  C   UNL     1      32.379  41.492  11.257  0.00  0.00    +0.066 C 
ENDBRANCH  19  20
ENDBRANCH  18  19
ENDBRANCH  14  15
ENDBRANCH  12  13
TORSDOF 6
ENDMDL
