MODEL 1
REMARK VINA RESULT:      -8.2      0.000      0.000
REMARK  Name = C:\Users\Docking\Desktop\test protocol\1iep_ligandH.pdb
REMARK  8 active torsions:
REMARK  status: ('A' for Active; 'I' for Inactive)
REMARK    1  A    between atoms: _5  and  _11
REMARK    2  A    between atoms: _19  and  _21
REMARK    3  A    between atoms: _22  and  _66
REMARK    4  A    between atoms: _27  and  _30
REMARK    5  A    between atoms: _32  and  _33
REMARK    6  A    between atoms: _38  and  _43
REMARK    7  A    between atoms: _43  and  _46
REMARK    8  A    between atoms: _53  and  _55
REMARK                            x       y       z     vdW  Elec       q    Type
REMARK                         _______ _______ _______ _____ _____    ______ ____
ROOT
ATOM     10  C   UNL     1     -23.787   1.869 -23.999  0.00  0.00    +0.038 A 
ATOM     11  C   UNL     1     -22.449   2.273 -23.757  0.00  0.00    +0.047 A 
ATOM     12  C   UNL     1     -21.329   1.412 -24.101  0.00  0.00    +0.035 A 
ATOM     32  C   UNL     1     -21.608   0.146 -24.694  0.00  0.00    +0.024 A 
ATOM     33  C   UNL     1     -22.962  -0.281 -24.947  0.00  0.00    +0.007 A 
ATOM     34  C   UNL     1     -24.071   0.563 -24.606  0.00  0.00    -0.029 A 
ATOM     35  C   UNL     1     -25.502   0.051 -24.894  0.00  0.00    +0.045 C 
ENDROOT
BRANCH  10   9
ATOM      4  C   UNL     1     -27.226   3.360 -21.001  0.00  0.00    +0.077 A 
ATOM      5  C   UNL     1     -26.951   2.307 -20.067  0.00  0.00    +0.048 A 
ATOM      6  C   UNL     1     -25.921   1.398 -20.399  0.00  0.00    +0.116 A 
ATOM      7  N   UNL     1     -25.225   1.542 -21.580  0.00  0.00    -0.223 NA
ATOM      8  C   UNL     1     -25.517   2.568 -22.459  0.00  0.00    +0.220 A 
ATOM      9  N   UNL     1     -24.825   2.736 -23.648  0.00  0.00    -0.283 N 
ATOM     36  H   UNL     1     -25.075   3.502 -24.274  0.00  0.00    +0.155 HD
ATOM     37  N   UNL     1     -26.497   3.448 -22.166  0.00  0.00    -0.214 NA
BRANCH   4   3
ATOM      1  C   UNL     1     -30.667   5.217 -20.885  0.00  0.00    +0.020 A 
ATOM      2  C   UNL     1     -29.687   4.179 -21.108  0.00  0.00    +0.013 A 
ATOM      3  C   UNL     1     -28.282   4.401 -20.791  0.00  0.00    +0.019 A 
ATOM     38  C   UNL     1     -27.899   5.694 -20.245  0.00  0.00    +0.120 A 
ATOM     39  N   UNL     1     -28.864   6.675 -20.042  0.00  0.00    -0.263 NA
ATOM     40  C   UNL     1     -30.219   6.474 -20.346  0.00  0.00    +0.111 A 
ENDBRANCH   4   3
ENDBRANCH  10   9
BRANCH  12  13
ATOM     13  N   UNL     1     -19.950   1.765 -23.872  0.00  0.00    -0.281 N 
ATOM     14  C   UNL     1     -18.933   0.956 -23.391  0.00  0.00    +0.248 C 
ATOM     30  O   UNL     1     -19.104  -0.141 -22.882  0.00  0.00    -0.270 OA
ATOM     31  H   UNL     1     -19.693   2.727 -24.090  0.00  0.00    +0.155 HD
BRANCH  14  15
ATOM     15  C   UNL     1     -17.522   1.444 -23.476  0.00  0.00    +0.037 A 
ATOM     16  C   UNL     1     -17.134   2.747 -22.930  0.00  0.00    +0.013 A 
ATOM     17  C   UNL     1     -15.771   3.200 -23.040  0.00  0.00    +0.005 A 
ATOM     18  C   UNL     1     -14.784   2.348 -23.699  0.00  0.00    -0.033 A 
ATOM     28  C   UNL     1     -15.195   1.058 -24.227  0.00  0.00    +0.005 A 
ATOM     29  C   UNL     1     -16.531   0.610 -24.122  0.00  0.00    +0.013 A 
BRANCH  18  19
ATOM     19  C   UNL     1     -13.311   2.760 -23.880  0.00  0.00    +0.119 C 
BRANCH  19  20
ATOM     20  N   UNL     1     -12.324   2.221 -22.898  0.00  0.00    -0.302 NA
ATOM     21  C   UNL     1     -11.210   3.226 -22.591  0.00  0.00    +0.066 C 
ATOM     22  C   UNL     1     -10.199   2.654 -21.544  0.00  0.00    -0.064 C 
ATOM     23  N   UNL     1      -9.614   1.342 -22.069  0.00  0.00    +0.379 N 
ATOM     24  C   UNL     1      -8.620   0.831 -21.114  0.00  0.00    -0.096 C 
ATOM     25  H   UNL     1      -9.083   1.566 -23.023  0.00  0.00    -0.082 HD
ATOM     26  C   UNL     1     -10.715   0.337 -22.379  0.00  0.00    -0.064 C 
ATOM     27  C   UNL     1     -11.730   0.927 -23.398  0.00  0.00    +0.066 C 
ENDBRANCH  19  20
ENDBRANCH  18  19
ENDBRANCH  14  15
ENDBRANCH  12  13
TORSDOF 6
ENDMDL
MODEL 2
REMARK VINA RESULT:      -8.2     21.709     24.212
REMARK  Name = C:\Users\Docking\Desktop\test protocol\1iep_ligandH.pdb
REMARK  8 active torsions:
REMARK  status: ('A' for Active; 'I' for Inactive)
REMARK    1  A    between atoms: _5  and  _11
REMARK    2  A    between atoms: _19  and  _21
REMARK    3  A    between atoms: _22  and  _66
REMARK    4  A    between atoms: _27  and  _30
REMARK    5  A    between atoms: _32  and  _33
REMARK    6  A    between atoms: _38  and  _43
REMARK    7  A    between atoms: _43  and  _46
REMARK    8  A    between atoms: _53  and  _55
REMARK                            x       y       z     vdW  Elec       q    Type
REMARK                         _______ _______ _______ _____ _____    ______ ____
ROOT
ATOM     10  C   UNL     1     -14.665  22.065  -7.572  0.00  0.00    +0.038 A 
ATOM     11  C   UNL     1     -13.473  21.875  -8.317  0.00  0.00    +0.047 A 
ATOM     12  C   UNL     1     -12.484  22.935  -8.436  0.00  0.00    +0.035 A 
ATOM     32  C   UNL     1     -12.739  24.174  -7.780  0.00  0.00    +0.024 A 
ATOM     33  C   UNL     1     -13.946  24.385  -7.020  0.00  0.00    +0.007 A 
ATOM     34  C   UNL     1     -14.927  23.345  -6.901  0.00  0.00    -0.029 A 
ATOM     35  C   UNL     1     -16.205  23.628  -6.079  0.00  0.00    +0.045 C 
ENDROOT
BRANCH  10   9
ATOM      4  C   UNL     1     -18.251  19.427  -9.367  0.00  0.00    +0.077 A 
ATOM      5  C   UNL     1     -18.323  20.227 -10.556  0.00  0.00    +0.048 A 
ATOM      6  C   UNL     1     -17.425  21.313 -10.663  0.00  0.00    +0.116 A 
ATOM      7  N   UNL     1     -16.525  21.569  -9.651  0.00  0.00    -0.223 NA
ATOM      8  C   UNL     1     -16.483  20.779  -8.517  0.00  0.00    +0.220 A 
ATOM      9  N   UNL     1     -15.581  21.014  -7.491  0.00  0.00    -0.283 N 
ATOM     36  H   UNL     1     -15.587  20.412  -6.667  0.00  0.00    +0.155 HD
ATOM     37  N   UNL     1     -17.331  19.737  -8.390  0.00  0.00    -0.214 NA
BRANCH   4   3
ATOM      1  C   UNL     1     -19.514  15.773  -8.771  0.00  0.00    +0.020 A 
ATOM      2  C   UNL     1     -18.621  16.881  -9.023  0.00  0.00    +0.013 A 
ATOM      3  C   UNL     1     -19.131  18.244  -9.109  0.00  0.00    +0.019 A 
ATOM     38  C   UNL     1     -20.560  18.454  -8.933  0.00  0.00    +0.120 A 
ATOM     39  N   UNL     1     -21.396  17.367  -8.692  0.00  0.00    -0.263 NA
ATOM     40  C   UNL     1     -20.917  16.051  -8.610  0.00  0.00    +0.111 A 
ENDBRANCH   4   3
ENDBRANCH  10   9
BRANCH  12  13
ATOM     13  N   UNL     1     -11.259  22.803  -9.185  0.00  0.00    -0.281 N 
ATOM     14  C   UNL     1     -10.065  22.234  -8.772  0.00  0.00    +0.248 C 
ATOM     30  O   UNL     1      -9.802  21.943  -7.615  0.00  0.00    -0.270 OA
ATOM     31  H   UNL     1     -11.274  23.173 -10.135  0.00  0.00    +0.155 HD
BRANCH  14  15
ATOM     15  C   UNL     1      -9.004  21.964  -9.789  0.00  0.00    +0.037 A 
ATOM     16  C   UNL     1      -8.117  20.803  -9.673  0.00  0.00    +0.013 A 
ATOM     17  C   UNL     1      -7.091  20.575 -10.659  0.00  0.00    +0.005 A 
ATOM     18  C   UNL     1      -6.947  21.510 -11.772  0.00  0.00    -0.033 A 
ATOM     28  C   UNL     1      -7.844  22.650 -11.867  0.00  0.00    +0.005 A 
ATOM     29  C   UNL     1      -8.850  22.877 -10.901  0.00  0.00    +0.013 A 
BRANCH  18  19
ATOM     19  C   UNL     1      -5.867  21.356 -12.859  0.00  0.00    +0.119 C 
BRANCH  19  20
ATOM     20  N   UNL     1      -6.314  20.897 -14.208  0.00  0.00    -0.302 NA
ATOM     21  C   UNL     1      -6.406  19.371 -14.294  0.00  0.00    +0.066 C 
ATOM     22  C   UNL     1      -6.897  18.909 -15.705  0.00  0.00    -0.064 C 
ATOM     23  N   UNL     1      -5.951  19.456 -16.775  0.00  0.00    +0.379 N 
ATOM     24  C   UNL     1      -6.376  18.976 -18.098  0.00  0.00    -0.096 C 
ATOM     25  H   UNL     1      -4.936  19.039 -16.574  0.00  0.00    -0.082 HD
ATOM     26  C   UNL     1      -5.851  20.973 -16.695  0.00  0.00    -0.064 C 
ATOM     27  C   UNL     1      -5.390  21.422 -15.280  0.00  0.00    +0.066 C 
ENDBRANCH  19  20
ENDBRANCH  18  19
ENDBRANCH  14  15
ENDBRANCH  12  13
TORSDOF 6
ENDMDL
MODEL 3
REMARK VINA RESULT:      -8.1     19.176     24.211
REMARK  Name = C:\Users\Docking\Desktop\test protocol\1iep_ligandH.pdb
REMARK  8 active torsions:
REMARK  status: ('A' for Active; 'I' for Inactive)
REMARK    1  A    between atoms: _5  and  _11
REMARK    2  A    between atoms: _19  and  _21
REMARK    3  A    between atoms: _22  and  _66
REMARK    4  A    between atoms: _27  and  _30
REMARK    5  A    between atoms: _32  and  _33
REMARK    6  A    between atoms: _38  and  _43
REMARK    7  A    between atoms: _43  and  _46
REMARK    8  A    between atoms: _53  and  _55
REMARK                            x       y       z     vdW  Elec       q    Type
REMARK                         _______ _______ _______ _____ _____    ______ ____
ROOT
ATOM     10  C   UNL     1     -19.992  17.826  -8.240  0.00  0.00    +0.038 A 
ATOM     11  C   UNL     1     -21.378  17.526  -8.228  0.00  0.00    +0.047 A 
ATOM     12  C   UNL     1     -21.849  16.150  -8.194  0.00  0.00    +0.035 A 
ATOM     32  C   UNL     1     -20.880  15.104  -8.170  0.00  0.00    +0.024 A 
ATOM     33  C   UNL     1     -19.468  15.392  -8.182  0.00  0.00    +0.007 A 
ATOM     34  C   UNL     1     -18.997  16.747  -8.218  0.00  0.00    -0.029 A 
ATOM     35  C   UNL     1     -17.471  16.996  -8.237  0.00  0.00    +0.045 C 
ENDROOT
BRANCH  10   9
ATOM      4  C   UNL     1     -18.513  21.747 -10.581  0.00  0.00    +0.077 A 
ATOM      5  C   UNL     1     -18.505  21.063 -11.842  0.00  0.00    +0.048 A 
ATOM      6  C   UNL     1     -18.880  19.701 -11.844  0.00  0.00    +0.116 A 
ATOM      7  N   UNL     1     -19.237  19.079 -10.666  0.00  0.00    -0.223 NA
ATOM      8  C   UNL     1     -19.233  19.768  -9.467  0.00  0.00    +0.220 A 
ATOM      9  N   UNL     1     -19.595  19.165  -8.272  0.00  0.00    -0.283 N 
ATOM     36  H   UNL     1     -19.572  19.705  -7.408  0.00  0.00    +0.155 HD
ATOM     37  N   UNL     1     -18.877  21.069  -9.439  0.00  0.00    -0.214 NA
BRANCH   4   3
ATOM      1  C   UNL     1     -18.356  25.632 -11.008  0.00  0.00    +0.020 A 
ATOM      2  C   UNL     1     -18.747  24.255 -11.207  0.00  0.00    +0.013 A 
ATOM      3  C   UNL     1     -18.145  23.189 -10.417  0.00  0.00    +0.019 A 
ATOM     38  C   UNL     1     -17.142  23.551  -9.426  0.00  0.00    +0.120 A 
ATOM     39  N   UNL     1     -16.785  24.885  -9.259  0.00  0.00    -0.263 NA
ATOM     40  C   UNL     1     -17.356  25.920 -10.014  0.00  0.00    +0.111 A 
ENDBRANCH   4   3
ENDBRANCH  10   9
BRANCH  12  13
ATOM     13  N   UNL     1     -23.243  15.783  -8.189  0.00  0.00    -0.281 N 
ATOM     14  C   UNL     1     -24.167  15.961  -7.172  0.00  0.00    +0.248 C 
ATOM     30  O   UNL     1     -23.881  16.271  -6.025  0.00  0.00    -0.270 OA
ATOM     31  H   UNL     1     -23.592  15.339  -9.039  0.00  0.00    +0.155 HD
BRANCH  14  15
ATOM     15  C   UNL     1     -25.617  15.750  -7.468  0.00  0.00    +0.037 A 
ATOM     16  C   UNL     1     -26.136  14.425  -7.816  0.00  0.00    +0.013 A 
ATOM     17  C   UNL     1     -27.536  14.252  -8.114  0.00  0.00    +0.005 A 
ATOM     18  C   UNL     1     -28.427  15.409  -8.064  0.00  0.00    -0.033 A 
ATOM     28  C   UNL     1     -27.886  16.711  -7.711  0.00  0.00    +0.005 A 
ATOM     29  C   UNL     1     -26.514  16.884  -7.419  0.00  0.00    +0.013 A 
BRANCH  18  19
ATOM     19  C   UNL     1     -29.930  15.322  -8.387  0.00  0.00    +0.119 C 
BRANCH  19  20
ATOM     20  N   UNL     1     -30.330  15.443  -9.821  0.00  0.00    -0.302 NA
ATOM     21  C   UNL     1     -31.438  16.480 -10.023  0.00  0.00    +0.066 C 
ATOM     22  C   UNL     1     -31.827  16.611 -11.531  0.00  0.00    -0.064 C 
ATOM     23  N   UNL     1     -32.262  15.244 -12.063  0.00  0.00    +0.379 N 
ATOM     24  C   UNL     1     -32.684  15.374 -13.465  0.00  0.00    -0.096 C 
ATOM     25  H   UNL     1     -33.148  14.918 -11.471  0.00  0.00    -0.082 HD
ATOM     26  C   UNL     1     -31.167  14.206 -11.863  0.00  0.00    -0.064 C 
ATOM     27  C   UNL     1     -30.766  14.105 -10.365  0.00  0.00    +0.066 C 
ENDBRANCH  19  20
ENDBRANCH  18  19
ENDBRANCH  14  15
ENDBRANCH  12  13
TORSDOF 6
ENDMDL
MODEL 4
REMARK VINA RESULT:      -8.1     22.536     27.530
REMARK  Name = C:\Users\Docking\Desktop\test protocol\1iep_ligandH.pdb
REMARK  8 active torsions:
REMARK  status: ('A' for Active; 'I' for Inactive)
REMARK    1  A    between atoms: _5  and  _11
REMARK    2  A    between atoms: _19  and  _21
REMARK    3  A    between atoms: _22  and  _66
REMARK    4  A    between atoms: _27  and  _30
REMARK    5  A    between atoms: _32  and  _33
REMARK    6  A    between atoms: _38  and  _43
REMARK    7  A    between atoms: _43  and  _46
REMARK    8  A    between atoms: _53  and  _55
REMARK                            x       y       z     vdW  Elec       q    Type
REMARK                         _______ _______ _______ _____ _____    ______ ____
ROOT
ATOM     10  C   UNL     1      -9.096  17.688  -3.829  0.00  0.00    +0.038 A 
ATOM     11  C   UNL     1     -10.374  17.949  -4.386  0.00  0.00    +0.047 A 
ATOM     12  C   UNL     1     -10.930  19.293  -4.394  0.00  0.00    +0.035 A 
ATOM     32  C   UNL     1     -10.157  20.348  -3.829  0.00  0.00    +0.024 A 
ATOM     33  C   UNL     1      -8.857  20.100  -3.257  0.00  0.00    +0.007 A 
ATOM     34  C   UNL     1      -8.303  18.776  -3.244  0.00  0.00    -0.029 A 
ATOM     35  C   UNL     1      -6.908  18.567  -2.612  0.00  0.00    +0.045 C 
ENDROOT
BRANCH  10   9
ATOM      4  C   UNL     1      -8.116  13.505  -1.687  0.00  0.00    +0.077 A 
ATOM      5  C   UNL     1      -8.587  13.977  -0.417  0.00  0.00    +0.048 A 
ATOM      6  C   UNL     1      -9.067  15.305  -0.356  0.00  0.00    +0.116 A 
ATOM      7  N   UNL     1      -9.071  16.092  -1.487  0.00  0.00    -0.223 NA
ATOM      8  C   UNL     1      -8.608  15.607  -2.696  0.00  0.00    +0.220 A 
ATOM      9  N   UNL     1      -8.610  16.378  -3.848  0.00  0.00    -0.283 N 
ATOM     36  H   UNL     1      -8.253  15.985  -4.718  0.00  0.00    +0.155 HD
ATOM     37  N   UNL     1      -8.144  14.343  -2.780  0.00  0.00    -0.214 NA
BRANCH   4   3
ATOM      1  C   UNL     1      -6.285  10.084  -1.195  0.00  0.00    +0.020 A 
ATOM      2  C   UNL     1      -6.776  11.416  -0.927  0.00  0.00    +0.013 A 
ATOM      3  C   UNL     1      -7.582  12.125  -1.913  0.00  0.00    +0.019 A 
ATOM     38  C   UNL     1      -7.877  11.451  -3.169  0.00  0.00    +0.120 A 
ATOM     39  N   UNL     1      -7.389  10.169  -3.399  0.00  0.00    -0.263 NA
ATOM     40  C   UNL     1      -6.611   9.478  -2.459  0.00  0.00    +0.111 A 
ENDBRANCH   4   3
ENDBRANCH  10   9
BRANCH  12  13
ATOM     13  N   UNL     1     -12.225  19.618  -4.939  0.00  0.00    -0.281 N 
ATOM     14  C   UNL     1     -12.512  20.214  -6.156  0.00  0.00    +0.248 C 
ATOM     30  O   UNL     1     -11.684  20.757  -6.872  0.00  0.00    -0.270 OA
ATOM     31  H   UNL     1     -13.028  19.379  -4.356  0.00  0.00    +0.155 HD
BRANCH  14  15
ATOM     15  C   UNL     1     -13.926  20.222  -6.640  0.00  0.00    +0.037 A 
ATOM     16  C   UNL     1     -14.275  20.758  -7.959  0.00  0.00    +0.013 A 
ATOM     17  C   UNL     1     -15.649  20.770  -8.395  0.00  0.00    +0.005 A 
ATOM     18  C   UNL     1     -16.685  20.241  -7.511  0.00  0.00    -0.033 A 
ATOM     28  C   UNL     1     -16.311  19.711  -6.210  0.00  0.00    +0.005 A 
ATOM     29  C   UNL     1     -14.965  19.699  -5.779  0.00  0.00    +0.013 A 
BRANCH  18  19
ATOM     19  C   UNL     1     -18.179  20.233  -7.885  0.00  0.00    +0.119 C 
BRANCH  19  20
ATOM     20  N   UNL     1     -18.877  18.913  -7.882  0.00  0.00    -0.302 NA
ATOM     21  C   UNL     1     -18.048  17.823  -8.567  0.00  0.00    +0.066 C 
ATOM     22  C   UNL     1     -18.783  16.443  -8.535  0.00  0.00    -0.064 C 
ATOM     23  N   UNL     1     -20.152  16.583  -9.203  0.00  0.00    +0.379 N 
ATOM     24  C   UNL     1     -20.822  15.274  -9.226  0.00  0.00    -0.096 C 
ATOM     25  H   UNL     1     -19.983  16.895 -10.260  0.00  0.00    -0.082 HD
ATOM     26  C   UNL     1     -20.982  17.666  -8.529  0.00  0.00    -0.064 C 
ATOM     27  C   UNL     1     -20.230  19.026  -8.541  0.00  0.00    +0.066 C 
ENDBRANCH  19  20
ENDBRANCH  18  19
ENDBRANCH  14  15
ENDBRANCH  12  13
TORSDOF 6
ENDMDL
MODEL 5
REMARK VINA RESULT:      -7.9     22.134     24.318
REMARK  Name = C:\Users\Docking\Desktop\test protocol\1iep_ligandH.pdb
REMARK  8 active torsions:
REMARK  status: ('A' for Active; 'I' for Inactive)
REMARK    1  A    between atoms: _5  and  _11
REMARK    2  A    between atoms: _19  and  _21
REMARK    3  A    between atoms: _22  and  _66
REMARK    4  A    between atoms: _27  and  _30
REMARK    5  A    between atoms: _32  and  _33
REMARK    6  A    between atoms: _38  and  _43
REMARK    7  A    between atoms: _43  and  _46
REMARK    8  A    between atoms: _53  and  _55
REMARK                            x       y       z     vdW  Elec       q    Type
REMARK                         _______ _______ _______ _____ _____    ______ ____
ROOT
ATOM     10  C   UNL     1     -17.209  20.615  -8.165  0.00  0.00    +0.038 A 
ATOM     11  C   UNL     1     -15.993  20.230  -7.545  0.00  0.00    +0.047 A 
ATOM     12  C   UNL     1     -14.716  20.757  -8.001  0.00  0.00    +0.035 A 
ATOM     32  C   UNL     1     -14.715  21.676  -9.091  0.00  0.00    +0.024 A 
ATOM     33  C   UNL     1     -15.942  22.077  -9.733  0.00  0.00    +0.007 A 
ATOM     34  C   UNL     1     -17.204  21.559  -9.289  0.00  0.00    -0.029 A 
ATOM     35  C   UNL     1     -18.487  22.019 -10.020  0.00  0.00    +0.045 C 
ENDROOT
BRANCH  10   9
ATOM      4  C   UNL     1     -20.346  17.012  -7.699  0.00  0.00    +0.077 A 
ATOM      5  C   UNL     1     -19.545  16.132  -8.500  0.00  0.00    +0.048 A 
ATOM      6  C   UNL     1     -18.336  16.648  -9.019  0.00  0.00    +0.116 A 
ATOM      7  N   UNL     1     -17.966  17.948  -8.751  0.00  0.00    -0.223 NA
ATOM      8  C   UNL     1     -18.763  18.770  -7.976  0.00  0.00    +0.220 A 
ATOM      9  N   UNL     1     -18.407  20.079  -7.686  0.00  0.00    -0.283 N 
ATOM     36  H   UNL     1     -19.026  20.656  -7.117  0.00  0.00    +0.155 HD
ATOM     37  N   UNL     1     -19.923  18.302  -7.470  0.00  0.00    -0.214 NA
BRANCH   4   3
ATOM      1  C   UNL     1     -24.092  15.999  -7.206  0.00  0.00    +0.020 A 
ATOM      2  C   UNL     1     -22.860  16.383  -7.855  0.00  0.00    +0.013 A 
ATOM      3  C   UNL     1     -21.649  16.613  -7.078  0.00  0.00    +0.019 A 
ATOM     38  C   UNL     1     -21.718  16.443  -5.634  0.00  0.00    +0.120 A 
ATOM     39  N   UNL     1     -22.919  16.073  -5.037  0.00  0.00    -0.263 NA
ATOM     40  C   UNL     1     -24.091  15.851  -5.774  0.00  0.00    +0.111 A 
ENDBRANCH   4   3
ENDBRANCH  10   9
BRANCH  12  13
ATOM     13  N   UNL     1     -13.449  20.396  -7.416  0.00  0.00    -0.281 N 
ATOM     14  C   UNL     1     -12.710  21.104  -6.483  0.00  0.00    +0.248 C 
ATOM     30  O   UNL     1     -12.925  22.265  -6.167  0.00  0.00    -0.270 OA
ATOM     31  H   UNL     1     -13.048  19.511  -7.728  0.00  0.00    +0.155 HD
BRANCH  14  15
ATOM     15  C   UNL     1     -11.555  20.430  -5.814  0.00  0.00    +0.037 A 
ATOM     16  C   UNL     1     -10.206  20.998  -5.873  0.00  0.00    +0.013 A 
ATOM     17  C   UNL     1      -9.107  20.318  -5.234  0.00  0.00    +0.005 A 
ATOM     18  C   UNL     1      -9.354  19.063  -4.528  0.00  0.00    -0.033 A 
ATOM     28  C   UNL     1     -10.703  18.525  -4.481  0.00  0.00    +0.005 A 
ATOM     29  C   UNL     1     -11.783  19.188  -5.107  0.00  0.00    +0.013 A 
BRANCH  18  19
ATOM     19  C   UNL     1      -8.238  18.259  -3.835  0.00  0.00    +0.119 C 
BRANCH  19  20
ATOM     20  N   UNL     1      -8.649  17.289  -2.777  0.00  0.00    -0.302 NA
ATOM     21  C   UNL     1      -7.746  17.367  -1.544  0.00  0.00    +0.066 C 
ATOM     22  C   UNL     1      -8.204  16.362  -0.438  0.00  0.00    -0.064 C 
ATOM     23  N   UNL     1      -8.214  14.944  -1.013  0.00  0.00    +0.379 N 
ATOM     24  C   UNL     1      -8.588  13.990   0.040  0.00  0.00    -0.096 C 
ATOM     25  H   UNL     1      -7.174  14.703  -1.334  0.00  0.00    -0.082 HD
ATOM     26  C   UNL     1      -9.108  14.858  -2.242  0.00  0.00    -0.064 C 
ATOM     27  C   UNL     1      -8.661  15.882  -3.323  0.00  0.00    +0.066 C 
ENDBRANCH  19  20
ENDBRANCH  18  19
ENDBRANCH  14  15
ENDBRANCH  12  13
TORSDOF 6
ENDMDL
