MODEL 1
REMARK VINA RESULT:      -9.8      0.000      0.000
REMARK  Name = C:\Users\Docking\Desktop\test protocol\1iep_ligandH.pdb
REMARK  8 active torsions:
REMARK  status: ('A' for Active; 'I' for Inactive)
REMARK    1  A    between atoms: _5  and  _11
REMARK    2  A    between atoms: _19  and  _21
REMARK    3  A    between atoms: _22  and  _66
REMARK    4  A    between atoms: _27  and  _30
REMARK    5  A    between atoms: _32  and  _33
REMARK    6  A    between atoms: _38  and  _43
REMARK    7  A    between atoms: _43  and  _46
REMARK    8  A    between atoms: _53  and  _55
REMARK                            x       y       z     vdW  Elec       q    Type
REMARK                         _______ _______ _______ _____ _____    ______ ____
ROOT
ATOM     10  C   UNL     1      47.088   0.418   7.928  0.00  0.00    +0.038 A 
ATOM     11  C   UNL     1      46.001   1.225   8.350  0.00  0.00    +0.047 A 
ATOM     12  C   UNL     1      44.678   1.070   7.765  0.00  0.00    +0.035 A 
ATOM     32  C   UNL     1      44.497   0.081   6.755  0.00  0.00    +0.024 A 
ATOM     33  C   UNL     1      45.592  -0.748   6.314  0.00  0.00    +0.007 A 
ATOM     34  C   UNL     1      46.900  -0.598   6.885  0.00  0.00    -0.029 A 
ATOM     35  C   UNL     1      48.038  -1.509   6.369  0.00  0.00    +0.045 C 
ENDROOT
BRANCH  10   9
ATOM      4  C   UNL     1      51.443   2.431   8.077  0.00  0.00    +0.077 A 
ATOM      5  C   UNL     1      51.221   3.141   6.850  0.00  0.00    +0.048 A 
ATOM      6  C   UNL     1      49.976   2.955   6.208  0.00  0.00    +0.116 A 
ATOM      7  N   UNL     1      49.030   2.119   6.762  0.00  0.00    -0.223 NA
ATOM      8  C   UNL     1      49.277   1.448   7.945  0.00  0.00    +0.220 A 
ATOM      9  N   UNL     1      48.337   0.609   8.524  0.00  0.00    -0.283 N 
ATOM     36  H   UNL     1      48.560   0.127   9.394  0.00  0.00    +0.155 HD
ATOM     37  N   UNL     1      50.458   1.608   8.577  0.00  0.00    -0.214 NA
BRANCH   4   3
ATOM      1  C   UNL     1      54.553   3.834   9.990  0.00  0.00    +0.020 A 
ATOM      2  C   UNL     1      53.332   3.797   9.217  0.00  0.00    +0.013 A 
ATOM      3  C   UNL     1      52.706   2.527   8.874  0.00  0.00    +0.019 A 
ATOM     38  C   UNL     1      53.345   1.302   9.332  0.00  0.00    +0.120 A 
ATOM     39  N   UNL     1      54.520   1.368  10.074  0.00  0.00    -0.263 NA
ATOM     40  C   UNL     1      55.133   2.585  10.409  0.00  0.00    +0.111 A 
ENDBRANCH   4   3
ENDBRANCH  10   9
BRANCH  12  13
ATOM     13  N   UNL     1      43.538   1.866   8.147  0.00  0.00    -0.281 N 
ATOM     14  C   UNL     1      43.255   3.175   7.791  0.00  0.00    +0.248 C 
ATOM     30  O   UNL     1      44.053   3.934   7.261  0.00  0.00    -0.270 OA
ATOM     31  H   UNL     1      42.856   1.409   8.753  0.00  0.00    +0.155 HD
BRANCH  14  15
ATOM     15  C   UNL     1      41.896   3.724   8.080  0.00  0.00    +0.037 A 
ATOM     16  C   UNL     1      40.704   2.874   8.019  0.00  0.00    +0.013 A 
ATOM     17  C   UNL     1      39.402   3.433   8.285  0.00  0.00    +0.005 A 
ATOM     18  C   UNL     1      39.286   4.851   8.616  0.00  0.00    -0.033 A 
ATOM     28  C   UNL     1      40.485   5.670   8.674  0.00  0.00    +0.005 A 
ATOM     29  C   UNL     1      41.762   5.126   8.413  0.00  0.00    +0.013 A 
BRANCH  18  19
ATOM     19  C   UNL     1      37.935   5.537   8.894  0.00  0.00    +0.119 C 
BRANCH  19  20
ATOM     20  N   UNL     1      37.317   5.311  10.234  0.00  0.00    -0.302 NA
ATOM     21  C   UNL     1      36.267   4.197  10.203  0.00  0.00    +0.066 C 
ATOM     22  C   UNL     1      35.647   3.959  11.618  0.00  0.00    -0.064 C 
ATOM     23  N   UNL     1      35.036   5.265  12.130  0.00  0.00    +0.379 N 
ATOM     24  C   UNL     1      34.400   5.031  13.435  0.00  0.00    -0.096 C 
ATOM     25  H   UNL     1      34.236   5.567  11.414  0.00  0.00    -0.082 HD
ATOM     26  C   UNL     1      36.072   6.379  12.162  0.00  0.00    -0.064 C 
ATOM     27  C   UNL     1      36.704   6.587  10.757  0.00  0.00    +0.066 C 
ENDBRANCH  19  20
ENDBRANCH  18  19
ENDBRANCH  14  15
ENDBRANCH  12  13
TORSDOF 6
ENDMDL
MODEL 2
REMARK VINA RESULT:      -9.5      6.867     14.007
REMARK  Name = C:\Users\Docking\Desktop\test protocol\1iep_ligandH.pdb
REMARK  8 active torsions:
REMARK  status: ('A' for Active; 'I' for Inactive)
REMARK    1  A    between atoms: _5  and  _11
REMARK    2  A    between atoms: _19  and  _21
REMARK    3  A    between atoms: _22  and  _66
REMARK    4  A    between atoms: _27  and  _30
REMARK    5  A    between atoms: _32  and  _33
REMARK    6  A    between atoms: _38  and  _43
REMARK    7  A    between atoms: _43  and  _46
REMARK    8  A    between atoms: _53  and  _55
REMARK                            x       y       z     vdW  Elec       q    Type
REMARK                         _______ _______ _______ _____ _____    ______ ____
ROOT
ATOM     10  C   UNL     1      36.730   7.152   4.160  0.00  0.00    +0.038 A 
ATOM     11  C   UNL     1      37.970   6.503   4.390  0.00  0.00    +0.047 A 
ATOM     12  C   UNL     1      38.177   5.670   5.565  0.00  0.00    +0.035 A 
ATOM     32  C   UNL     1      37.098   5.517   6.483  0.00  0.00    +0.024 A 
ATOM     33  C   UNL     1      35.831   6.170   6.265  0.00  0.00    +0.007 A 
ATOM     34  C   UNL     1      35.622   6.995   5.110  0.00  0.00    -0.029 A 
ATOM     35  C   UNL     1      34.245   7.676   4.930  0.00  0.00    +0.045 C 
ENDROOT
BRANCH  10   9
ATOM      4  C   UNL     1      37.108   7.849  -0.574  0.00  0.00    +0.077 A 
ATOM      5  C   UNL     1      37.664   6.543  -0.782  0.00  0.00    +0.048 A 
ATOM      6  C   UNL     1      37.843   5.726   0.357  0.00  0.00    +0.116 A 
ATOM      7  N   UNL     1      37.489   6.190   1.605  0.00  0.00    -0.223 NA
ATOM      8  C   UNL     1      36.957   7.455   1.771  0.00  0.00    +0.220 A 
ATOM      9  N   UNL     1      36.587   7.940   3.016  0.00  0.00    -0.283 N 
ATOM     36  H   UNL     1      36.205   8.882   3.097  0.00  0.00    +0.155 HD
ATOM     37  N   UNL     1      36.778   8.256   0.700  0.00  0.00    -0.214 NA
BRANCH   4   3
ATOM      1  C   UNL     1      35.328  10.200  -3.143  0.00  0.00    +0.020 A 
ATOM      2  C   UNL     1      35.517   9.251  -2.071  0.00  0.00    +0.013 A 
ATOM      3  C   UNL     1      36.856   8.829  -1.677  0.00  0.00    +0.019 A 
ATOM     38  C   UNL     1      37.990   9.390  -2.395  0.00  0.00    +0.120 A 
ATOM     39  N   UNL     1      37.777  10.301  -3.425  0.00  0.00    -0.263 NA
ATOM     40  C   UNL     1      36.494  10.714  -3.813  0.00  0.00    +0.111 A 
ENDBRANCH   4   3
ENDBRANCH  10   9
BRANCH  12  13
ATOM     13  N   UNL     1      39.417   4.994   5.855  0.00  0.00    -0.281 N 
ATOM     14  C   UNL     1      40.447   5.419   6.678  0.00  0.00    +0.248 C 
ATOM     30  O   UNL     1      40.552   6.552   7.124  0.00  0.00    -0.270 OA
ATOM     31  H   UNL     1      39.551   4.091   5.399  0.00  0.00    +0.155 HD
BRANCH  14  15
ATOM     15  C   UNL     1      41.524   4.451   7.047  0.00  0.00    +0.037 A 
ATOM     16  C   UNL     1      42.928   4.864   7.112  0.00  0.00    +0.013 A 
ATOM     17  C   UNL     1      43.949   3.905   7.454  0.00  0.00    +0.005 A 
ATOM     18  C   UNL     1      43.568   2.523   7.735  0.00  0.00    -0.033 A 
ATOM     28  C   UNL     1      42.167   2.142   7.669  0.00  0.00    +0.005 A 
ATOM     29  C   UNL     1      41.164   3.078   7.333  0.00  0.00    +0.013 A 
BRANCH  18  19
ATOM     19  C   UNL     1      44.593   1.429   8.087  0.00  0.00    +0.119 C 
BRANCH  19  20
ATOM     20  N   UNL     1      46.014   1.673   7.701  0.00  0.00    -0.302 NA
ATOM     21  C   UNL     1      46.279   1.323   6.234  0.00  0.00    +0.066 C 
ATOM     22  C   UNL     1      47.766   1.606   5.841  0.00  0.00    -0.064 C 
ATOM     23  N   UNL     1      48.694   0.813   6.762  0.00  0.00    +0.379 N 
ATOM     24  C   UNL     1      50.091   1.032   6.358  0.00  0.00    -0.096 C 
ATOM     25  H   UNL     1      48.466  -0.269   6.622  0.00  0.00    -0.082 HD
ATOM     26  C   UNL     1      48.435   1.153   8.224  0.00  0.00    -0.064 C 
ATOM     27  C   UNL     1      46.949   0.896   8.596  0.00  0.00    +0.066 C 
ENDBRANCH  19  20
ENDBRANCH  18  19
ENDBRANCH  14  15
ENDBRANCH  12  13
TORSDOF 6
ENDMDL
MODEL 3
REMARK VINA RESULT:      -9.3      3.191      3.590
REMARK  Name = C:\Users\Docking\Desktop\test protocol\1iep_ligandH.pdb
REMARK  8 active torsions:
REMARK  status: ('A' for Active; 'I' for Inactive)
REMARK    1  A    between atoms: _5  and  _11
REMARK    2  A    between atoms: _19  and  _21
REMARK    3  A    between atoms: _22  and  _66
REMARK    4  A    between atoms: _27  and  _30
REMARK    5  A    between atoms: _32  and  _33
REMARK    6  A    between atoms: _38  and  _43
REMARK    7  A    between atoms: _43  and  _46
REMARK    8  A    between atoms: _53  and  _55
REMARK                            x       y       z     vdW  Elec       q    Type
REMARK                         _______ _______ _______ _____ _____    ______ ____
ROOT
ATOM     10  C   UNL     1      46.898   0.914   8.271  0.00  0.00    +0.038 A 
ATOM     11  C   UNL     1      45.985   1.900   7.815  0.00  0.00    +0.047 A 
ATOM     12  C   UNL     1      44.717   1.528   7.209  0.00  0.00    +0.035 A 
ATOM     32  C   UNL     1      44.408   0.142   7.084  0.00  0.00    +0.024 A 
ATOM     33  C   UNL     1      45.325  -0.874   7.541  0.00  0.00    +0.007 A 
ATOM     34  C   UNL     1      46.579  -0.512   8.138  0.00  0.00    -0.029 A 
ATOM     35  C   UNL     1      47.525  -1.643   8.604  0.00  0.00    +0.045 C 
ENDROOT
BRANCH  10   9
ATOM      4  C   UNL     1      51.548   2.068   7.986  0.00  0.00    +0.077 A 
ATOM      5  C   UNL     1      51.589   1.799   6.578  0.00  0.00    +0.048 A 
ATOM      6  C   UNL     1      50.394   1.358   5.966  0.00  0.00    +0.116 A 
ATOM      7  N   UNL     1      49.249   1.203   6.716  0.00  0.00    -0.223 NA
ATOM      8  C   UNL     1      49.244   1.470   8.073  0.00  0.00    +0.220 A 
ATOM      9  N   UNL     1      48.102   1.328   8.846  0.00  0.00    -0.283 N 
ATOM     36  H   UNL     1      48.141   1.528   9.845  0.00  0.00    +0.155 HD
ATOM     37  N   UNL     1      50.373   1.890   8.681  0.00  0.00    -0.214 NA
BRANCH   4   3
ATOM      1  C   UNL     1      54.238   4.358   9.666  0.00  0.00    +0.020 A 
ATOM      2  C   UNL     1      53.088   3.952   8.891  0.00  0.00    +0.013 A 
ATOM      3  C   UNL     1      52.728   2.544   8.775  0.00  0.00    +0.019 A 
ATOM     38  C   UNL     1      53.559   1.565   9.460  0.00  0.00    +0.120 A 
ATOM     39  N   UNL     1      54.661   1.986  10.198  0.00  0.00    -0.263 NA
ATOM     40  C   UNL     1      55.018   3.338  10.316  0.00  0.00    +0.111 A 
ENDBRANCH   4   3
ENDBRANCH  10   9
BRANCH  12  13
ATOM     13  N   UNL     1      43.754   2.484   6.720  0.00  0.00    -0.281 N 
ATOM     14  C   UNL     1      42.758   3.130   7.434  0.00  0.00    +0.248 C 
ATOM     30  O   UNL     1      42.406   2.821   8.562  0.00  0.00    -0.270 OA
ATOM     31  H   UNL     1      43.815   2.712   5.728  0.00  0.00    +0.155 HD
BRANCH  14  15
ATOM     15  C   UNL     1      42.040   4.275   6.796  0.00  0.00    +0.037 A 
ATOM     16  C   UNL     1      42.304   5.658   7.202  0.00  0.00    +0.013 A 
ATOM     17  C   UNL     1      41.585   6.744   6.583  0.00  0.00    +0.005 A 
ATOM     18  C   UNL     1      40.596   6.449   5.549  0.00  0.00    -0.033 A 
ATOM     28  C   UNL     1      40.358   5.069   5.162  0.00  0.00    +0.005 A 
ATOM     29  C   UNL     1      41.060   4.003   5.767  0.00  0.00    +0.013 A 
BRANCH  18  19
ATOM     19  C   UNL     1      39.767   7.543   4.849  0.00  0.00    +0.119 C 
BRANCH  19  20
ATOM     20  N   UNL     1      38.304   7.585   5.144  0.00  0.00    -0.302 NA
ATOM     21  C   UNL     1      37.474   7.871   3.890  0.00  0.00    +0.066 C 
ATOM     22  C   UNL     1      35.944   7.890   4.212  0.00  0.00    -0.064 C 
ATOM     23  N   UNL     1      35.666   8.934   5.295  0.00  0.00    +0.379 N 
ATOM     24  C   UNL     1      34.221   8.995   5.559  0.00  0.00    -0.096 C 
ATOM     25  H   UNL     1      35.979   9.927   4.895  0.00  0.00    -0.082 HD
ATOM     26  C   UNL     1      36.490   8.659   6.545  0.00  0.00    -0.064 C 
ATOM     27  C   UNL     1      38.007   8.613   6.208  0.00  0.00    +0.066 C 
ENDBRANCH  19  20
ENDBRANCH  18  19
ENDBRANCH  14  15
ENDBRANCH  12  13
TORSDOF 6
ENDMDL
MODEL 4
REMARK VINA RESULT:      -9.2      8.494     13.929
REMARK  Name = C:\Users\Docking\Desktop\test protocol\1iep_ligandH.pdb
REMARK  8 active torsions:
REMARK  status: ('A' for Active; 'I' for Inactive)
REMARK    1  A    between atoms: _5  and  _11
REMARK    2  A    between atoms: _19  and  _21
REMARK    3  A    between atoms: _22  and  _66
REMARK    4  A    between atoms: _27  and  _30
REMARK    5  A    between atoms: _32  and  _33
REMARK    6  A    between atoms: _38  and  _43
REMARK    7  A    between atoms: _43  and  _46
REMARK    8  A    between atoms: _53  and  _55
REMARK                            x       y       z     vdW  Elec       q    Type
REMARK                         _______ _______ _______ _____ _____    ______ ____
ROOT
ATOM     10  C   UNL     1      39.305   5.617   6.449  0.00  0.00    +0.038 A 
ATOM     11  C   UNL     1      38.666   5.906   5.216  0.00  0.00    +0.047 A 
ATOM     12  C   UNL     1      39.421   6.394   4.073  0.00  0.00    +0.035 A 
ATOM     32  C   UNL     1      40.827   6.574   4.219  0.00  0.00    +0.024 A 
ATOM     33  C   UNL     1      41.493   6.287   5.465  0.00  0.00    +0.007 A 
ATOM     34  C   UNL     1      40.753   5.808   6.597  0.00  0.00    -0.029 A 
ATOM     35  C   UNL     1      41.518   5.522   7.911  0.00  0.00    +0.045 C 
ENDROOT
BRANCH  10   9
ATOM      4  C   UNL     1      36.790   6.315  10.477  0.00  0.00    +0.077 A 
ATOM      5  C   UNL     1      37.064   7.723  10.474  0.00  0.00    +0.048 A 
ATOM      6  C   UNL     1      37.862   8.227   9.423  0.00  0.00    +0.116 A 
ATOM      7  N   UNL     1      38.344   7.377   8.451  0.00  0.00    -0.223 NA
ATOM      8  C   UNL     1      38.063   6.023   8.484  0.00  0.00    +0.220 A 
ATOM      9  N   UNL     1      38.531   5.151   7.514  0.00  0.00    -0.283 N 
ATOM     36  H   UNL     1      38.307   4.158   7.578  0.00  0.00    +0.155 HD
ATOM     37  N   UNL     1      37.304   5.517   9.479  0.00  0.00    -0.214 NA
BRANCH   4   3
ATOM      1  C   UNL     1      34.329   5.652  13.444  0.00  0.00    +0.020 A 
ATOM      2  C   UNL     1      35.112   6.359  12.456  0.00  0.00    +0.013 A 
ATOM      3  C   UNL     1      35.960   5.633  11.520  0.00  0.00    +0.019 A 
ATOM     38  C   UNL     1      35.993   4.181  11.609  0.00  0.00    +0.120 A 
ATOM     39  N   UNL     1      35.230   3.528  12.572  0.00  0.00    -0.263 NA
ATOM     40  C   UNL     1      34.411   4.216  13.480  0.00  0.00    +0.111 A 
ENDBRANCH   4   3
ENDBRANCH  10   9
BRANCH  12  13
ATOM     13  N   UNL     1      38.825   6.712   2.798  0.00  0.00    -0.281 N 
ATOM     14  C   UNL     1      37.840   7.647   2.529  0.00  0.00    +0.248 C 
ATOM     30  O   UNL     1      37.166   8.206   3.381  0.00  0.00    -0.270 OA
ATOM     31  H   UNL     1      39.172   6.183   1.998  0.00  0.00    +0.155 HD
BRANCH  14  15
ATOM     15  C   UNL     1      37.551   8.002   1.106  0.00  0.00    +0.037 A 
ATOM     16  C   UNL     1      38.632   8.169   0.130  0.00  0.00    +0.013 A 
ATOM     17  C   UNL     1      38.327   8.528  -1.232  0.00  0.00    +0.005 A 
ATOM     18  C   UNL     1      36.934   8.722  -1.627  0.00  0.00    -0.033 A 
ATOM     28  C   UNL     1      35.881   8.544  -0.640  0.00  0.00    +0.005 A 
ATOM     29  C   UNL     1      36.176   8.193   0.696  0.00  0.00    +0.013 A 
BRANCH  18  19
ATOM     19  C   UNL     1      36.517   9.126  -3.054  0.00  0.00    +0.119 C 
BRANCH  19  20
ATOM     20  N   UNL     1      36.280  10.578  -3.311  0.00  0.00    -0.302 NA
ATOM     21  C   UNL     1      35.055  10.811  -4.200  0.00  0.00    +0.066 C 
ATOM     22  C   UNL     1      34.808  12.336  -4.440  0.00  0.00    -0.064 C 
ATOM     23  N   UNL     1      36.057  12.961  -5.064  0.00  0.00    +0.379 N 
ATOM     24  C   UNL     1      35.807  14.382  -5.344  0.00  0.00    -0.096 C 
ATOM     25  H   UNL     1      36.239  12.450  -6.038  0.00  0.00    -0.082 HD
ATOM     26  C   UNL     1      37.280  12.731  -4.187  0.00  0.00    -0.064 C 
ATOM     27  C   UNL     1      37.499  11.214  -3.931  0.00  0.00    +0.066 C 
ENDBRANCH  19  20
ENDBRANCH  18  19
ENDBRANCH  14  15
ENDBRANCH  12  13
TORSDOF 6
ENDMDL
MODEL 5
REMARK VINA RESULT:      -9.0      2.000      2.652
REMARK  Name = C:\Users\Docking\Desktop\test protocol\1iep_ligandH.pdb
REMARK  8 active torsions:
REMARK  status: ('A' for Active; 'I' for Inactive)
REMARK    1  A    between atoms: _5  and  _11
REMARK    2  A    between atoms: _19  and  _21
REMARK    3  A    between atoms: _22  and  _66
REMARK    4  A    between atoms: _27  and  _30
REMARK    5  A    between atoms: _32  and  _33
REMARK    6  A    between atoms: _38  and  _43
REMARK    7  A    between atoms: _43  and  _46
REMARK    8  A    between atoms: _53  and  _55
REMARK                            x       y       z     vdW  Elec       q    Type
REMARK                         _______ _______ _______ _____ _____    ______ ____
ROOT
ATOM     10  C   UNL     1      48.099   0.257   8.108  0.00  0.00    +0.038 A 
ATOM     11  C   UNL     1      46.906   0.964   8.409  0.00  0.00    +0.047 A 
ATOM     12  C   UNL     1      45.625   0.543   7.865  0.00  0.00    +0.035 A 
ATOM     32  C   UNL     1      45.593  -0.604   7.021  0.00  0.00    +0.024 A 
ATOM     33  C   UNL     1      46.795  -1.334   6.704  0.00  0.00    +0.007 A 
ATOM     34  C   UNL     1      48.063  -0.922   7.235  0.00  0.00    -0.029 A 
ATOM     35  C   UNL     1      49.321  -1.738   6.856  0.00  0.00    +0.045 C 
ENDROOT
BRANCH  10   9
ATOM      4  C   UNL     1      52.020   3.023   8.021  0.00  0.00    +0.077 A 
ATOM      5  C   UNL     1      51.654   3.605   6.762  0.00  0.00    +0.048 A 
ATOM      6  C   UNL     1      50.453   3.160   6.167  0.00  0.00    +0.116 A 
ATOM      7  N   UNL     1      49.682   2.204   6.793  0.00  0.00    -0.223 NA
ATOM      8  C   UNL     1      50.065   1.662   8.006  0.00  0.00    +0.220 A 
ATOM      9  N   UNL     1      49.302   0.706   8.657  0.00  0.00    -0.283 N 
ATOM     36  H   UNL     1      49.623   0.325   9.547  0.00  0.00    +0.155 HD
ATOM     37  N   UNL     1      51.209   2.070   8.594  0.00  0.00    -0.214 NA
BRANCH   4   3
ATOM      1  C   UNL     1      54.758   5.058   9.936  0.00  0.00    +0.020 A 
ATOM      2  C   UNL     1      53.548   4.755   9.208  0.00  0.00    +0.013 A 
ATOM      3  C   UNL     1      53.259   3.393   8.777  0.00  0.00    +0.019 A 
ATOM     38  C   UNL     1      54.223   2.352   9.101  0.00  0.00    +0.120 A 
ATOM     39  N   UNL     1      55.381   2.674   9.802  0.00  0.00    -0.263 NA
ATOM     40  C   UNL     1      55.671   3.981  10.221  0.00  0.00    +0.111 A 
ENDBRANCH   4   3
ENDBRANCH  10   9
BRANCH  12  13
ATOM     13  N   UNL     1      44.382   1.226   8.129  0.00  0.00    -0.281 N 
ATOM     14  C   UNL     1      43.988   2.479   7.687  0.00  0.00    +0.248 C 
ATOM     30  O   UNL     1      44.736   3.296   7.170  0.00  0.00    -0.270 OA
ATOM     31  H   UNL     1      43.712   0.726   8.713  0.00  0.00    +0.155 HD
BRANCH  14  15
ATOM     15  C   UNL     1      42.561   2.888   7.856  0.00  0.00    +0.037 A 
ATOM     16  C   UNL     1      41.464   1.982   7.507  0.00  0.00    +0.013 A 
ATOM     17  C   UNL     1      40.096   2.409   7.664  0.00  0.00    +0.005 A 
ATOM     18  C   UNL     1      39.818   3.749   8.175  0.00  0.00    -0.033 A 
ATOM     28  C   UNL     1      40.925   4.625   8.519  0.00  0.00    +0.005 A 
ATOM     29  C   UNL     1      42.267   4.211   8.365  0.00  0.00    +0.013 A 
BRANCH  18  19
ATOM     19  C   UNL     1      38.389   4.295   8.355  0.00  0.00    +0.119 C 
BRANCH  19  20
ATOM     20  N   UNL     1      38.040   5.551   7.626  0.00  0.00    -0.302 NA
ATOM     21  C   UNL     1      37.449   6.612   8.559  0.00  0.00    +0.066 C 
ATOM     22  C   UNL     1      37.111   7.927   7.784  0.00  0.00    -0.064 C 
ATOM     23  N   UNL     1      36.143   7.608   6.642  0.00  0.00    +0.379 N 
ATOM     24  C   UNL     1      35.778   8.852   5.948  0.00  0.00    -0.096 C 
ATOM     25  H   UNL     1      35.215   7.188   7.094  0.00  0.00    -0.082 HD
ATOM     26  C   UNL     1      36.723   6.553   5.712  0.00  0.00    -0.064 C 
ATOM     27  C   UNL     1      37.083   5.261   6.497  0.00  0.00    +0.066 C 
ENDBRANCH  19  20
ENDBRANCH  18  19
ENDBRANCH  14  15
ENDBRANCH  12  13
TORSDOF 6
ENDMDL
