MODEL 1
REMARK VINA RESULT:      -8.6      0.000      0.000
REMARK  Name = C:\Users\Docking\Desktop\test protocol\1iep_ligandH.pdb
REMARK  8 active torsions:
REMARK  status: ('A' for Active; 'I' for Inactive)
REMARK    1  A    between atoms: _5  and  _11
REMARK    2  A    between atoms: _19  and  _21
REMARK    3  A    between atoms: _22  and  _66
REMARK    4  A    between atoms: _27  and  _30
REMARK    5  A    between atoms: _32  and  _33
REMARK    6  A    between atoms: _38  and  _43
REMARK    7  A    between atoms: _43  and  _46
REMARK    8  A    between atoms: _53  and  _55
REMARK                            x       y       z     vdW  Elec       q    Type
REMARK                         _______ _______ _______ _____ _____    ______ ____
ROOT
ATOM     10  C   UNL     1       3.663  30.775  26.894  0.00  0.00    +0.038 A 
ATOM     11  C   UNL     1       4.023  31.800  25.982  0.00  0.00    +0.047 A 
ATOM     12  C   UNL     1       3.233  32.056  24.788  0.00  0.00    +0.035 A 
ATOM     32  C   UNL     1       2.080  31.251  24.555  0.00  0.00    +0.024 A 
ATOM     33  C   UNL     1       1.700  30.205  25.471  0.00  0.00    +0.007 A 
ATOM     34  C   UNL     1       2.477  29.946  26.649  0.00  0.00    -0.029 A 
ATOM     35  C   UNL     1       2.026  28.806  27.593  0.00  0.00    +0.045 C 
ENDROOT
BRANCH  10   9
ATOM      4  C   UNL     1       7.660  29.195  29.030  0.00  0.00    +0.077 A 
ATOM      5  C   UNL     1       8.199  28.708  27.793  0.00  0.00    +0.048 A 
ATOM      6  C   UNL     1       7.413  28.877  26.631  0.00  0.00    +0.116 A 
ATOM      7  N   UNL     1       6.182  29.490  26.712  0.00  0.00    -0.223 NA
ATOM      8  C   UNL     1       5.690  29.946  27.921  0.00  0.00    +0.220 A 
ATOM      9  N   UNL     1       4.458  30.572  28.025  0.00  0.00    -0.283 N 
ATOM     36  H   UNL     1       4.127  30.888  28.936  0.00  0.00    +0.155 HD
ATOM     37  N   UNL     1       6.421  29.795  29.046  0.00  0.00    -0.214 NA
BRANCH   4   3
ATOM      1  C   UNL     1       8.412  28.794  32.848  0.00  0.00    +0.020 A 
ATOM      2  C   UNL     1       7.677  28.886  31.607  0.00  0.00    +0.013 A 
ATOM      3  C   UNL     1       8.372  29.093  30.343  0.00  0.00    +0.019 A 
ATOM     38  C   UNL     1       9.823  29.202  30.369  0.00  0.00    +0.120 A 
ATOM     39  N   UNL     1      10.504  29.111  31.579  0.00  0.00    -0.263 NA
ATOM     40  C   UNL     1       9.846  28.913  32.802  0.00  0.00    +0.111 A 
ENDBRANCH   4   3
ENDBRANCH  10   9
BRANCH  12  13
ATOM     13  N   UNL     1       3.555  33.077  23.822  0.00  0.00    -0.281 N 
ATOM     14  C   UNL     1       4.371  32.969  22.708  0.00  0.00    +0.248 C 
ATOM     30  O   UNL     1       5.123  32.031  22.491  0.00  0.00    -0.270 OA
ATOM     31  H   UNL     1       3.128  33.991  23.978  0.00  0.00    +0.155 HD
BRANCH  14  15
ATOM     15  C   UNL     1       4.361  34.069  21.696  0.00  0.00    +0.037 A 
ATOM     16  C   UNL     1       3.460  35.217  21.830  0.00  0.00    +0.013 A 
ATOM     17  C   UNL     1       3.459  36.256  20.830  0.00  0.00    +0.005 A 
ATOM     18  C   UNL     1       4.364  36.152  19.688  0.00  0.00    -0.033 A 
ATOM     28  C   UNL     1       5.252  35.006  19.584  0.00  0.00    +0.005 A 
ATOM     29  C   UNL     1       5.255  33.985  20.561  0.00  0.00    +0.013 A 
BRANCH  18  19
ATOM     19  C   UNL     1       4.416  37.203  18.564  0.00  0.00    +0.119 C 
BRANCH  19  20
ATOM     20  N   UNL     1       4.232  38.633  18.955  0.00  0.00    -0.302 NA
ATOM     21  C   UNL     1       4.246  39.566  17.741  0.00  0.00    +0.066 C 
ATOM     22  C   UNL     1       4.029  41.055  18.167  0.00  0.00    -0.064 C 
ATOM     23  N   UNL     1       5.109  41.458  19.172  0.00  0.00    +0.379 N 
ATOM     24  C   UNL     1       4.944  42.874  19.530  0.00  0.00    -0.096 C 
ATOM     25  H   UNL     1       6.098  41.349  18.668  0.00  0.00    -0.082 HD
ATOM     26  C   UNL     1       5.104  40.532  20.381  0.00  0.00    -0.064 C 
ATOM     27  C   UNL     1       5.290  39.052  19.945  0.00  0.00    +0.066 C 
ENDBRANCH  19  20
ENDBRANCH  18  19
ENDBRANCH  14  15
ENDBRANCH  12  13
TORSDOF 6
ENDMDL
MODEL 2
REMARK VINA RESULT:      -8.4      7.428      9.473
REMARK  Name = C:\Users\Docking\Desktop\test protocol\1iep_ligandH.pdb
REMARK  8 active torsions:
REMARK  status: ('A' for Active; 'I' for Inactive)
REMARK    1  A    between atoms: _5  and  _11
REMARK    2  A    between atoms: _19  and  _21
REMARK    3  A    between atoms: _22  and  _66
REMARK    4  A    between atoms: _27  and  _30
REMARK    5  A    between atoms: _32  and  _33
REMARK    6  A    between atoms: _38  and  _43
REMARK    7  A    between atoms: _43  and  _46
REMARK    8  A    between atoms: _53  and  _55
REMARK                            x       y       z     vdW  Elec       q    Type
REMARK                         _______ _______ _______ _____ _____    ______ ____
ROOT
ATOM     10  C   UNL     1       9.966  27.199  21.168  0.00  0.00    +0.038 A 
ATOM     11  C   UNL     1       9.566  28.476  20.697  0.00  0.00    +0.047 A 
ATOM     12  C   UNL     1       8.801  29.383  21.538  0.00  0.00    +0.035 A 
ATOM     32  C   UNL     1       8.462  28.958  22.855  0.00  0.00    +0.024 A 
ATOM     33  C   UNL     1       8.859  27.663  23.350  0.00  0.00    +0.007 A 
ATOM     34  C   UNL     1       9.612  26.764  22.524  0.00  0.00    -0.029 A 
ATOM     35  C   UNL     1      10.005  25.385  23.105  0.00  0.00    +0.045 C 
ENDROOT
BRANCH  10   9
ATOM      4  C   UNL     1      10.265  23.795  17.798  0.00  0.00    +0.077 A 
ATOM      5  C   UNL     1       8.840  23.639  17.745  0.00  0.00    +0.048 A 
ATOM      6  C   UNL     1       8.066  24.448  18.607  0.00  0.00    +0.116 A 
ATOM      7  N   UNL     1       8.683  25.344  19.453  0.00  0.00    -0.223 NA
ATOM      8  C   UNL     1      10.059  25.469  19.480  0.00  0.00    +0.220 A 
ATOM      9  N   UNL     1      10.700  26.369  20.318  0.00  0.00    -0.283 N 
ATOM     36  H   UNL     1      11.718  26.425  20.313  0.00  0.00    +0.155 HD
ATOM     37  N   UNL     1      10.821  24.706  18.668  0.00  0.00    -0.214 NA
BRANCH   4   3
ATOM      1  C   UNL     1      11.748  21.223  15.251  0.00  0.00    +0.020 A 
ATOM      2  C   UNL     1      10.788  21.946  16.052  0.00  0.00    +0.013 A 
ATOM      3  C   UNL     1      11.217  23.014  16.946  0.00  0.00    +0.019 A 
ATOM     38  C   UNL     1      12.637  23.328  17.007  0.00  0.00    +0.120 A 
ATOM     39  N   UNL     1      13.539  22.613  16.224  0.00  0.00    -0.263 NA
ATOM     40  C   UNL     1      13.137  21.583  15.361  0.00  0.00    +0.111 A 
ENDBRANCH   4   3
ENDBRANCH  10   9
BRANCH  12  13
ATOM     13  N   UNL     1       8.360  30.688  21.111  0.00  0.00    -0.281 N 
ATOM     14  C   UNL     1       7.332  30.995  20.234  0.00  0.00    +0.248 C 
ATOM     30  O   UNL     1       6.770  30.182  19.516  0.00  0.00    -0.270 OA
ATOM     31  H   UNL     1       8.868  31.481  21.502  0.00  0.00    +0.155 HD
BRANCH  14  15
ATOM     15  C   UNL     1       6.871  32.413  20.131  0.00  0.00    +0.037 A 
ATOM     16  C   UNL     1       5.608  32.755  19.472  0.00  0.00    +0.013 A 
ATOM     17  C   UNL     1       5.195  34.132  19.371  0.00  0.00    +0.005 A 
ATOM     18  C   UNL     1       6.046  35.178  19.932  0.00  0.00    -0.033 A 
ATOM     28  C   UNL     1       7.292  34.810  20.585  0.00  0.00    +0.005 A 
ATOM     29  C   UNL     1       7.700  33.462  20.685  0.00  0.00    +0.013 A 
BRANCH  18  19
ATOM     19  C   UNL     1       5.695  36.676  19.852  0.00  0.00    +0.119 C 
BRANCH  19  20
ATOM     20  N   UNL     1       5.061  37.162  18.590  0.00  0.00    -0.302 NA
ATOM     21  C   UNL     1       5.920  36.854  17.360  0.00  0.00    +0.066 C 
ATOM     22  C   UNL     1       5.231  37.350  16.047  0.00  0.00    -0.064 C 
ATOM     23  N   UNL     1       4.957  38.851  16.153  0.00  0.00    +0.379 N 
ATOM     24  C   UNL     1       4.363  39.331  14.897  0.00  0.00    -0.096 C 
ATOM     25  H   UNL     1       5.938  39.365  16.282  0.00  0.00    -0.082 HD
ATOM     26  C   UNL     1       4.107  39.167  17.375  0.00  0.00    -0.064 C 
ATOM     27  C   UNL     1       4.786  38.644  18.672  0.00  0.00    +0.066 C 
ENDBRANCH  19  20
ENDBRANCH  18  19
ENDBRANCH  14  15
ENDBRANCH  12  13
TORSDOF 6
ENDMDL
MODEL 3
REMARK VINA RESULT:      -8.3      7.558     10.435
REMARK  Name = C:\Users\Docking\Desktop\test protocol\1iep_ligandH.pdb
REMARK  8 active torsions:
REMARK  status: ('A' for Active; 'I' for Inactive)
REMARK    1  A    between atoms: _5  and  _11
REMARK    2  A    between atoms: _19  and  _21
REMARK    3  A    between atoms: _22  and  _66
REMARK    4  A    between atoms: _27  and  _30
REMARK    5  A    between atoms: _32  and  _33
REMARK    6  A    between atoms: _38  and  _43
REMARK    7  A    between atoms: _43  and  _46
REMARK    8  A    between atoms: _53  and  _55
REMARK                            x       y       z     vdW  Elec       q    Type
REMARK                         _______ _______ _______ _____ _____    ______ ____
ROOT
ATOM     10  C   UNL     1       6.949  33.787  20.908  0.00  0.00    +0.038 A 
ATOM     11  C   UNL     1       8.177  34.439  21.190  0.00  0.00    +0.047 A 
ATOM     12  C   UNL     1       9.158  34.680  20.144  0.00  0.00    +0.035 A 
ATOM     32  C   UNL     1       8.856  34.246  18.820  0.00  0.00    +0.024 A 
ATOM     33  C   UNL     1       7.613  33.581  18.516  0.00  0.00    +0.007 A 
ATOM     34  C   UNL     1       6.642  33.338  19.544  0.00  0.00    -0.029 A 
ATOM     35  C   UNL     1       5.330  32.614  19.162  0.00  0.00    +0.045 C 
ENDROOT
BRANCH  10   9
ATOM      4  C   UNL     1       2.997  34.948  23.372  0.00  0.00    +0.077 A 
ATOM      5  C   UNL     1       2.730  36.076  22.527  0.00  0.00    +0.048 A 
ATOM      6  C   UNL     1       3.638  36.327  21.474  0.00  0.00    +0.116 A 
ATOM      7  N   UNL     1       4.728  35.505  21.289  0.00  0.00    -0.223 NA
ATOM      8  C   UNL     1       4.957  34.426  22.123  0.00  0.00    +0.220 A 
ATOM      9  N   UNL     1       6.043  33.581  21.950  0.00  0.00    -0.283 N 
ATOM     36  H   UNL     1       6.181  32.800  22.591  0.00  0.00    +0.155 HD
ATOM     37  N   UNL     1       4.106  34.166  23.137  0.00  0.00    -0.214 NA
BRANCH   4   3
ATOM      1  C   UNL     1       0.556  32.964  25.697  0.00  0.00    +0.020 A 
ATOM      2  C   UNL     1       1.380  33.300  24.559  0.00  0.00    +0.013 A 
ATOM      3  C   UNL     1       2.129  34.551  24.525  0.00  0.00    +0.019 A 
ATOM     38  C   UNL     1       2.021  35.445  25.667  0.00  0.00    +0.120 A 
ATOM     39  N   UNL     1       1.218  35.096  26.748  0.00  0.00    -0.263 NA
ATOM     40  C   UNL     1       0.492  33.896  26.792  0.00  0.00    +0.111 A 
ENDBRANCH   4   3
ENDBRANCH  10   9
BRANCH  12  13
ATOM     13  N   UNL     1      10.425  35.330  20.372  0.00  0.00    -0.281 N 
ATOM     14  C   UNL     1      11.064  35.549  21.581  0.00  0.00    +0.248 C 
ATOM     30  O   UNL     1      10.540  35.407  22.676  0.00  0.00    -0.270 OA
ATOM     31  H   UNL     1      10.909  35.671  19.541  0.00  0.00    +0.155 HD
BRANCH  14  15
ATOM     15  C   UNL     1      12.488  36.005  21.574  0.00  0.00    +0.037 A 
ATOM     16  C   UNL     1      13.391  35.694  22.684  0.00  0.00    +0.013 A 
ATOM     17  C   UNL     1      14.755  36.160  22.659  0.00  0.00    +0.005 A 
ATOM     18  C   UNL     1      15.224  36.942  21.518  0.00  0.00    -0.033 A 
ATOM     28  C   UNL     1      14.308  37.232  20.427  0.00  0.00    +0.005 A 
ATOM     29  C   UNL     1      12.970  36.777  20.448  0.00  0.00    +0.013 A 
BRANCH  18  19
ATOM     19  C   UNL     1      16.656  37.499  21.417  0.00  0.00    +0.119 C 
BRANCH  19  20
ATOM     20  N   UNL     1      17.132  38.369  22.533  0.00  0.00    -0.302 NA
ATOM     21  C   UNL     1      16.181  39.541  22.793  0.00  0.00    +0.066 C 
ATOM     22  C   UNL     1      16.683  40.428  23.979  0.00  0.00    -0.064 C 
ATOM     23  N   UNL     1      18.094  40.933  23.673  0.00  0.00    +0.379 N 
ATOM     24  C   UNL     1      18.545  41.815  24.760  0.00  0.00    -0.096 C 
ATOM     25  H   UNL     1      18.040  41.544  22.742  0.00  0.00    -0.082 HD
ATOM     26  C   UNL     1      19.045  39.774  23.411  0.00  0.00    -0.064 C 
ATOM     27  C   UNL     1      18.523  38.882  22.250  0.00  0.00    +0.066 C 
ENDBRANCH  19  20
ENDBRANCH  18  19
ENDBRANCH  14  15
ENDBRANCH  12  13
TORSDOF 6
ENDMDL
MODEL 4
REMARK VINA RESULT:      -8.3      7.409      9.569
REMARK  Name = C:\Users\Docking\Desktop\test protocol\1iep_ligandH.pdb
REMARK  8 active torsions:
REMARK  status: ('A' for Active; 'I' for Inactive)
REMARK    1  A    between atoms: _5  and  _11
REMARK    2  A    between atoms: _19  and  _21
REMARK    3  A    between atoms: _22  and  _66
REMARK    4  A    between atoms: _27  and  _30
REMARK    5  A    between atoms: _32  and  _33
REMARK    6  A    between atoms: _38  and  _43
REMARK    7  A    between atoms: _43  and  _46
REMARK    8  A    between atoms: _53  and  _55
REMARK                            x       y       z     vdW  Elec       q    Type
REMARK                         _______ _______ _______ _____ _____    ______ ____
ROOT
ATOM     10  C   UNL     1       9.790  26.944  21.255  0.00  0.00    +0.038 A 
ATOM     11  C   UNL     1       9.429  28.227  20.771  0.00  0.00    +0.047 A 
ATOM     12  C   UNL     1       8.785  29.203  21.636  0.00  0.00    +0.035 A 
ATOM     32  C   UNL     1       8.526  28.840  22.990  0.00  0.00    +0.024 A 
ATOM     33  C   UNL     1       8.885  27.539  23.497  0.00  0.00    +0.007 A 
ATOM     34  C   UNL     1       9.518  26.571  22.648  0.00  0.00    -0.029 A 
ATOM     35  C   UNL     1       9.876  25.190  23.244  0.00  0.00    +0.045 C 
ENDROOT
BRANCH  10   9
ATOM      4  C   UNL     1       9.628  23.576  17.839  0.00  0.00    +0.077 A 
ATOM      5  C   UNL     1       8.193  23.588  17.812  0.00  0.00    +0.048 A 
ATOM      6  C   UNL     1       7.535  24.470  18.699  0.00  0.00    +0.116 A 
ATOM      7  N   UNL     1       8.267  25.275  19.544  0.00  0.00    -0.223 NA
ATOM      8  C   UNL     1       9.650  25.238  19.545  0.00  0.00    +0.220 A 
ATOM      9  N   UNL     1      10.406  26.045  20.380  0.00  0.00    -0.283 N 
ATOM     36  H   UNL     1      11.424  25.983  20.356  0.00  0.00    +0.155 HD
ATOM     37  N   UNL     1      10.302  24.403  18.709  0.00  0.00    -0.214 NA
BRANCH   4   3
ATOM      1  C   UNL     1      12.643  22.082  15.844  0.00  0.00    +0.020 A 
ATOM      2  C   UNL     1      11.877  22.958  16.701  0.00  0.00    +0.013 A 
ATOM      3  C   UNL     1      10.466  22.701  16.960  0.00  0.00    +0.019 A 
ATOM     38  C   UNL     1       9.855  21.539  16.333  0.00  0.00    +0.120 A 
ATOM     39  N   UNL     1      10.617  20.713  15.511  0.00  0.00    -0.263 NA
ATOM     40  C   UNL     1      11.975  20.952  15.253  0.00  0.00    +0.111 A 
ENDBRANCH   4   3
ENDBRANCH  10   9
BRANCH  12  13
ATOM     13  N   UNL     1       8.389  30.519  21.199  0.00  0.00    -0.281 N 
ATOM     14  C   UNL     1       7.425  30.850  20.260  0.00  0.00    +0.248 C 
ATOM     30  O   UNL     1       6.904  30.053  19.494  0.00  0.00    -0.270 OA
ATOM     31  H   UNL     1       8.878  31.301  21.634  0.00  0.00    +0.155 HD
BRANCH  14  15
ATOM     15  C   UNL     1       6.988  32.275  20.146  0.00  0.00    +0.037 A 
ATOM     16  C   UNL     1       7.677  33.342  20.876  0.00  0.00    +0.013 A 
ATOM     17  C   UNL     1       7.224  34.706  20.761  0.00  0.00    +0.005 A 
ATOM     18  C   UNL     1       6.075  35.010  19.911  0.00  0.00    -0.033 A 
ATOM     28  C   UNL     1       5.414  33.932  19.194  0.00  0.00    +0.005 A 
ATOM     29  C   UNL     1       5.854  32.594  19.305  0.00  0.00    +0.013 A 
BRANCH  18  19
ATOM     19  C   UNL     1       5.510  36.433  19.747  0.00  0.00    +0.119 C 
BRANCH  19  20
ATOM     20  N   UNL     1       4.755  37.007  20.900  0.00  0.00    -0.302 NA
ATOM     21  C   UNL     1       3.414  36.300  21.118  0.00  0.00    +0.066 C 
ATOM     22  C   UNL     1       2.648  36.898  22.343  0.00  0.00    -0.064 C 
ATOM     23  N   UNL     1       2.442  38.399  22.129  0.00  0.00    +0.379 N 
ATOM     24  C   UNL     1       1.671  38.953  23.251  0.00  0.00    -0.096 C 
ATOM     25  H   UNL     1       1.833  38.527  21.204  0.00  0.00    -0.082 HD
ATOM     26  C   UNL     1       3.770  39.108  21.909  0.00  0.00    -0.064 C 
ATOM     27  C   UNL     1       4.537  38.487  20.708  0.00  0.00    +0.066 C 
ENDBRANCH  19  20
ENDBRANCH  18  19
ENDBRANCH  14  15
ENDBRANCH  12  13
TORSDOF 6
ENDMDL
MODEL 5
REMARK VINA RESULT:      -8.3      1.091      1.698
REMARK  Name = C:\Users\Docking\Desktop\test protocol\1iep_ligandH.pdb
REMARK  8 active torsions:
REMARK  status: ('A' for Active; 'I' for Inactive)
REMARK    1  A    between atoms: _5  and  _11
REMARK    2  A    between atoms: _19  and  _21
REMARK    3  A    between atoms: _22  and  _66
REMARK    4  A    between atoms: _27  and  _30
REMARK    5  A    between atoms: _32  and  _33
REMARK    6  A    between atoms: _38  and  _43
REMARK    7  A    between atoms: _43  and  _46
REMARK    8  A    between atoms: _53  and  _55
REMARK                            x       y       z     vdW  Elec       q    Type
REMARK                         _______ _______ _______ _____ _____    ______ ____
ROOT
ATOM     10  C   UNL     1       3.289  30.417  27.329  0.00  0.00    +0.038 A 
ATOM     11  C   UNL     1       3.672  31.241  26.239  0.00  0.00    +0.047 A 
ATOM     12  C   UNL     1       2.831  31.367  25.059  0.00  0.00    +0.035 A 
ATOM     32  C   UNL     1       1.605  30.642  25.023  0.00  0.00    +0.024 A 
ATOM     33  C   UNL     1       1.200  29.799  26.121  0.00  0.00    +0.007 A 
ATOM     34  C   UNL     1       2.027  29.669  27.287  0.00  0.00    -0.029 A 
ATOM     35  C   UNL     1       1.546  28.747  28.431  0.00  0.00    +0.045 C 
ENDROOT
BRANCH  10   9
ATOM      4  C   UNL     1       7.238  28.801  29.526  0.00  0.00    +0.077 A 
ATOM      5  C   UNL     1       7.637  28.039  28.378  0.00  0.00    +0.048 A 
ATOM      6  C   UNL     1       6.794  28.084  27.245  0.00  0.00    +0.116 A 
ATOM      7  N   UNL     1       5.641  28.838  27.269  0.00  0.00    -0.223 NA
ATOM      8  C   UNL     1       5.285  29.561  28.393  0.00  0.00    +0.220 A 
ATOM      9  N   UNL     1       4.135  30.333  28.437  0.00  0.00    -0.283 N 
ATOM     36  H   UNL     1       3.903  30.846  29.288  0.00  0.00    +0.155 HD
ATOM     37  N   UNL     1       6.073  29.533  29.489  0.00  0.00    -0.214 NA
BRANCH   4   3
ATOM      1  C   UNL     1       8.218  28.795  33.313  0.00  0.00    +0.020 A 
ATOM      2  C   UNL     1       7.413  28.734  32.115  0.00  0.00    +0.013 A 
ATOM      3  C   UNL     1       8.025  28.858  30.798  0.00  0.00    +0.019 A 
ATOM     38  C   UNL     1       9.467  29.042  30.728  0.00  0.00    +0.120 A 
ATOM     39  N   UNL     1      10.217  29.099  31.899  0.00  0.00    -0.263 NA
ATOM     40  C   UNL     1       9.638  28.983  33.171  0.00  0.00    +0.111 A 
ENDBRANCH   4   3
ENDBRANCH  10   9
BRANCH  12  13
ATOM     13  N   UNL     1       3.172  32.182  23.919  0.00  0.00    -0.281 N 
ATOM     14  C   UNL     1       3.754  33.439  23.914  0.00  0.00    +0.248 C 
ATOM     30  O   UNL     1       3.876  34.148  24.902  0.00  0.00    -0.270 OA
ATOM     31  H   UNL     1       2.958  31.784  23.005  0.00  0.00    +0.155 HD
BRANCH  14  15
ATOM     15  C   UNL     1       4.262  33.994  22.623  0.00  0.00    +0.037 A 
ATOM     16  C   UNL     1       5.623  33.715  22.158  0.00  0.00    +0.013 A 
ATOM     17  C   UNL     1       6.093  34.277  20.917  0.00  0.00    +0.005 A 
ATOM     18  C   UNL     1       5.200  35.124  20.131  0.00  0.00    -0.033 A 
ATOM     28  C   UNL     1       3.853  35.381  20.613  0.00  0.00    +0.005 A 
ATOM     29  C   UNL     1       3.389  34.832  21.829  0.00  0.00    +0.013 A 
BRANCH  18  19
ATOM     19  C   UNL     1       5.624  35.783  18.805  0.00  0.00    +0.119 C 
BRANCH  19  20
ATOM     20  N   UNL     1       5.418  37.257  18.677  0.00  0.00    -0.302 NA
ATOM     21  C   UNL     1       5.334  37.946  20.042  0.00  0.00    +0.066 C 
ATOM     22  C   UNL     1       5.141  39.490  19.890  0.00  0.00    -0.064 C 
ATOM     23  N   UNL     1       3.882  39.764  19.066  0.00  0.00    +0.379 N 
ATOM     24  C   UNL     1       3.665  41.215  18.970  0.00  0.00    -0.096 C 
ATOM     25  H   UNL     1       3.016  39.329  19.617  0.00  0.00    -0.082 HD
ATOM     26  C   UNL     1       3.955  39.081  17.708  0.00  0.00    -0.064 C 
ATOM     27  C   UNL     1       4.177  37.551  17.871  0.00  0.00    +0.066 C 
ENDBRANCH  19  20
ENDBRANCH  18  19
ENDBRANCH  14  15
ENDBRANCH  12  13
TORSDOF 6
ENDMDL
