MODEL 1
REMARK VINA RESULT:      -8.6      0.000      0.000
REMARK  Name = C:\Users\Docking\Desktop\test protocol\1iep_ligandH.pdb
REMARK  8 active torsions:
REMARK  status: ('A' for Active; 'I' for Inactive)
REMARK    1  A    between atoms: _5  and  _11
REMARK    2  A    between atoms: _19  and  _21
REMARK    3  A    between atoms: _22  and  _66
REMARK    4  A    between atoms: _27  and  _30
REMARK    5  A    between atoms: _32  and  _33
REMARK    6  A    between atoms: _38  and  _43
REMARK    7  A    between atoms: _43  and  _46
REMARK    8  A    between atoms: _53  and  _55
REMARK                            x       y       z     vdW  Elec       q    Type
REMARK                         _______ _______ _______ _____ _____    ______ ____
ROOT
ATOM     10  C   UNL     1      23.645  40.956  -0.755  0.00  0.00    +0.038 A 
ATOM     11  C   UNL     1      22.305  40.626  -0.429  0.00  0.00    +0.047 A 
ATOM     12  C   UNL     1      21.199  41.473  -0.847  0.00  0.00    +0.035 A 
ATOM     32  C   UNL     1      21.494  42.648  -1.597  0.00  0.00    +0.024 A 
ATOM     33  C   UNL     1      22.851  42.999  -1.936  0.00  0.00    +0.007 A 
ATOM     34  C   UNL     1      23.946  42.169  -1.524  0.00  0.00    -0.029 A 
ATOM     35  C   UNL     1      25.381  42.597  -1.910  0.00  0.00    +0.045 C 
ENDROOT
BRANCH  10   9
ATOM      4  C   UNL     1      27.212  39.797   2.240  0.00  0.00    +0.077 A 
ATOM      5  C   UNL     1      27.040  40.999   3.005  0.00  0.00    +0.048 A 
ATOM      6  C   UNL     1      26.028  41.892   2.590  0.00  0.00    +0.116 A 
ATOM      7  N   UNL     1      25.250  41.596   1.491  0.00  0.00    -0.223 NA
ATOM      8  C   UNL     1      25.444  40.429   0.775  0.00  0.00    +0.220 A 
ATOM      9  N   UNL     1      24.669  40.106  -0.328  0.00  0.00    -0.283 N 
ATOM     36  H   UNL     1      24.847  39.239  -0.834  0.00  0.00    +0.155 HD
ATOM     37  N   UNL     1      26.405  39.560   1.150  0.00  0.00    -0.214 NA
BRANCH   4   3
ATOM      1  C   UNL     1      28.919  36.435   3.281  0.00  0.00    +0.020 A 
ATOM      2  C   UNL     1      27.890  37.406   2.990  0.00  0.00    +0.013 A 
ATOM      3  C   UNL     1      28.238  38.753   2.556  0.00  0.00    +0.019 A 
ATOM     38  C   UNL     1      29.648  39.088   2.425  0.00  0.00    +0.120 A 
ATOM     39  N   UNL     1      30.617  38.132   2.714  0.00  0.00    -0.263 NA
ATOM     40  C   UNL     1      30.294  36.834   3.134  0.00  0.00    +0.111 A 
ENDBRANCH   4   3
ENDBRANCH  10   9
BRANCH  12  13
ATOM     13  N   UNL     1      19.818  41.193  -0.539  0.00  0.00    -0.281 N 
ATOM     14  C   UNL     1      18.786  42.099  -0.355  0.00  0.00    +0.248 C 
ATOM     30  O   UNL     1      18.940  43.303  -0.218  0.00  0.00    -0.270 OA
ATOM     31  H   UNL     1      19.572  40.208  -0.444  0.00  0.00    +0.155 HD
BRANCH  14  15
ATOM     15  C   UNL     1      17.381  41.592  -0.304  0.00  0.00    +0.037 A 
ATOM     16  C   UNL     1      16.240  42.497  -0.462  0.00  0.00    +0.013 A 
ATOM     17  C   UNL     1      14.895  41.984  -0.391  0.00  0.00    +0.005 A 
ATOM     18  C   UNL     1      14.683  40.557  -0.161  0.00  0.00    -0.033 A 
ATOM     28  C   UNL     1      15.833  39.681  -0.013  0.00  0.00    +0.005 A 
ATOM     29  C   UNL     1      17.153  40.180  -0.081  0.00  0.00    +0.013 A 
BRANCH  18  19
ATOM     19  C   UNL     1      13.283  39.926  -0.050  0.00  0.00    +0.119 C 
BRANCH  19  20
ATOM     20  N   UNL     1      12.145  40.839   0.270  0.00  0.00    -0.302 NA
ATOM     21  C   UNL     1      11.201  40.237   1.314  0.00  0.00    +0.066 C 
ATOM     22  C   UNL     1      10.029  41.214   1.654  0.00  0.00    -0.064 C 
ATOM     23  N   UNL     1       9.269  41.559   0.372  0.00  0.00    +0.379 N 
ATOM     24  C   UNL     1       8.131  42.432   0.696  0.00  0.00    -0.096 C 
ATOM     25  H   UNL     1       8.859  40.609  -0.044  0.00  0.00    -0.082 HD
ATOM     26  C   UNL     1      10.201  42.156  -0.674  0.00  0.00    -0.064 C 
ATOM     27  C   UNL     1      11.378  41.189  -0.982  0.00  0.00    +0.066 C 
ENDBRANCH  19  20
ENDBRANCH  18  19
ENDBRANCH  14  15
ENDBRANCH  12  13
TORSDOF 6
ENDMDL
MODEL 2
REMARK VINA RESULT:      -8.4     23.890     25.958
REMARK  Name = C:\Users\Docking\Desktop\test protocol\1iep_ligandH.pdb
REMARK  8 active torsions:
REMARK  status: ('A' for Active; 'I' for Inactive)
REMARK    1  A    between atoms: _5  and  _11
REMARK    2  A    between atoms: _19  and  _21
REMARK    3  A    between atoms: _22  and  _66
REMARK    4  A    between atoms: _27  and  _30
REMARK    5  A    between atoms: _32  and  _33
REMARK    6  A    between atoms: _38  and  _43
REMARK    7  A    between atoms: _43  and  _46
REMARK    8  A    between atoms: _53  and  _55
REMARK                            x       y       z     vdW  Elec       q    Type
REMARK                         _______ _______ _______ _____ _____    ______ ____
ROOT
ATOM     10  C   UNL     1       9.671  27.888  20.586  0.00  0.00    +0.038 A 
ATOM     11  C   UNL     1       9.105  28.995  19.903  0.00  0.00    +0.047 A 
ATOM     12  C   UNL     1       8.351  30.013  20.617  0.00  0.00    +0.035 A 
ATOM     32  C   UNL     1       8.194  29.874  22.027  0.00  0.00    +0.024 A 
ATOM     33  C   UNL     1       8.762  28.755  22.736  0.00  0.00    +0.007 A 
ATOM     34  C   UNL     1       9.505  27.746  22.037  0.00  0.00    -0.029 A 
ATOM     35  C   UNL     1      10.086  26.565  22.848  0.00  0.00    +0.045 C 
ENDROOT
BRANCH  10   9
ATOM      4  C   UNL     1       9.904  23.970  17.823  0.00  0.00    +0.077 A 
ATOM      5  C   UNL     1       8.482  23.780  17.870  0.00  0.00    +0.048 A 
ATOM      6  C   UNL     1       7.728  24.709  18.622  0.00  0.00    +0.116 A 
ATOM      7  N   UNL     1       8.359  25.747  19.274  0.00  0.00    -0.223 NA
ATOM      8  C   UNL     1       9.732  25.900  19.210  0.00  0.00    +0.220 A 
ATOM      9  N   UNL     1      10.387  26.940  19.851  0.00  0.00    -0.283 N 
ATOM     36  H   UNL     1      11.401  27.014  19.785  0.00  0.00    +0.155 HD
ATOM     37  N   UNL     1      10.475  25.025  18.499  0.00  0.00    -0.214 NA
BRANCH   4   3
ATOM      1  C   UNL     1      13.128  22.415  16.246  0.00  0.00    +0.020 A 
ATOM      2  C   UNL     1      12.272  23.311  16.989  0.00  0.00    +0.013 A 
ATOM      3  C   UNL     1      10.836  23.074  17.068  0.00  0.00    +0.019 A 
ATOM     38  C   UNL     1      10.294  21.912  16.380  0.00  0.00    +0.120 A 
ATOM     39  N   UNL     1      11.142  21.067  15.672  0.00  0.00    -0.263 NA
ATOM     40  C   UNL     1      12.526  21.286  15.587  0.00  0.00    +0.111 A 
ENDBRANCH   4   3
ENDBRANCH  10   9
BRANCH  12  13
ATOM     13  N   UNL     1       7.746  31.155  19.976  0.00  0.00    -0.281 N 
ATOM     14  C   UNL     1       6.675  31.913  20.420  0.00  0.00    +0.248 C 
ATOM     30  O   UNL     1       5.934  31.591  21.337  0.00  0.00    -0.270 OA
ATOM     31  H   UNL     1       8.158  31.439  19.087  0.00  0.00    +0.155 HD
BRANCH  14  15
ATOM     15  C   UNL     1       6.375  33.208  19.738  0.00  0.00    +0.037 A 
ATOM     16  C   UNL     1       5.024  33.775  19.745  0.00  0.00    +0.013 A 
ATOM     17  C   UNL     1       4.757  35.018  19.064  0.00  0.00    +0.005 A 
ATOM     18  C   UNL     1       5.847  35.703  18.372  0.00  0.00    -0.033 A 
ATOM     28  C   UNL     1       7.178  35.121  18.386  0.00  0.00    +0.005 A 
ATOM     29  C   UNL     1       7.443  33.902  19.051  0.00  0.00    +0.013 A 
BRANCH  18  19
ATOM     19  C   UNL     1       5.649  37.022  17.602  0.00  0.00    +0.119 C 
BRANCH  19  20
ATOM     20  N   UNL     1       5.332  38.241  18.405  0.00  0.00    -0.302 NA
ATOM     21  C   UNL     1       5.206  37.929  19.899  0.00  0.00    +0.066 C 
ATOM     22  C   UNL     1       4.897  39.219  20.726  0.00  0.00    -0.064 C 
ATOM     23  N   UNL     1       3.615  39.865  20.197  0.00  0.00    +0.379 N 
ATOM     24  C   UNL     1       3.289  41.046  21.010  0.00  0.00    -0.096 C 
ATOM     25  H   UNL     1       2.788  39.128  20.325  0.00  0.00    -0.082 HD
ATOM     26  C   UNL     1       3.730  40.176  18.712  0.00  0.00    -0.064 C 
ATOM     27  C   UNL     1       4.067  38.893  17.903  0.00  0.00    +0.066 C 
ENDBRANCH  19  20
ENDBRANCH  18  19
ENDBRANCH  14  15
ENDBRANCH  12  13
TORSDOF 6
ENDMDL
MODEL 3
REMARK VINA RESULT:      -8.3     20.829     25.827
REMARK  Name = C:\Users\Docking\Desktop\test protocol\1iep_ligandH.pdb
REMARK  8 active torsions:
REMARK  status: ('A' for Active; 'I' for Inactive)
REMARK    1  A    between atoms: _5  and  _11
REMARK    2  A    between atoms: _19  and  _21
REMARK    3  A    between atoms: _22  and  _66
REMARK    4  A    between atoms: _27  and  _30
REMARK    5  A    between atoms: _32  and  _33
REMARK    6  A    between atoms: _38  and  _43
REMARK    7  A    between atoms: _43  and  _46
REMARK    8  A    between atoms: _53  and  _55
REMARK                            x       y       z     vdW  Elec       q    Type
REMARK                         _______ _______ _______ _____ _____    ______ ____
ROOT
ATOM     10  C   UNL     1      14.477  23.292  14.842  0.00  0.00    +0.038 A 
ATOM     11  C   UNL     1      15.616  24.109  15.061  0.00  0.00    +0.047 A 
ATOM     12  C   UNL     1      16.917  23.747  14.519  0.00  0.00    +0.035 A 
ATOM     32  C   UNL     1      17.021  22.547  13.757  0.00  0.00    +0.024 A 
ATOM     33  C   UNL     1      15.874  21.705  13.526  0.00  0.00    +0.007 A 
ATOM     34  C   UNL     1      14.589  22.056  14.059  0.00  0.00    -0.029 A 
ATOM     35  C   UNL     1      13.395  21.112  13.785  0.00  0.00    +0.045 C 
ENDROOT
BRANCH  10   9
ATOM      4  C   UNL     1      11.251  23.373  18.395  0.00  0.00    +0.077 A 
ATOM      5  C   UNL     1      12.062  22.534  19.230  0.00  0.00    +0.048 A 
ATOM      6  C   UNL     1      13.299  22.098  18.705  0.00  0.00    +0.116 A 
ATOM      7  N   UNL     1      13.686  22.478  17.438  0.00  0.00    -0.223 NA
ATOM      8  C   UNL     1      12.880  23.287  16.658  0.00  0.00    +0.220 A 
ATOM      9  N   UNL     1      13.253  23.688  15.385  0.00  0.00    -0.283 N 
ATOM     36  H   UNL     1      12.626  24.278  14.839  0.00  0.00    +0.155 HD
ATOM     37  N   UNL     1      11.693  23.715  17.136  0.00  0.00    -0.214 NA
BRANCH   4   3
ATOM      1  C   UNL     1       7.487  24.435  18.390  0.00  0.00    +0.020 A 
ATOM      2  C   UNL     1       8.750  23.897  17.941  0.00  0.00    +0.013 A 
ATOM      3  C   UNL     1       9.920  23.918  18.810  0.00  0.00    +0.019 A 
ATOM     38  C   UNL     1       9.776  24.494  20.138  0.00  0.00    +0.120 A 
ATOM     39  N   UNL     1       8.548  25.007  20.543  0.00  0.00    -0.263 NA
ATOM     40  C   UNL     1       7.416  24.994  19.714  0.00  0.00    +0.111 A 
ENDBRANCH   4   3
ENDBRANCH  10   9
BRANCH  12  13
ATOM     13  N   UNL     1      18.110  24.533  14.716  0.00  0.00    -0.281 N 
ATOM     14  C   UNL     1      18.815  25.261  13.772  0.00  0.00    +0.248 C 
ATOM     30  O   UNL     1      18.646  25.174  12.564  0.00  0.00    -0.270 OA
ATOM     31  H   UNL     1      18.480  24.554  15.666  0.00  0.00    +0.155 HD
BRANCH  14  15
ATOM     15  C   UNL     1      19.870  26.213  14.234  0.00  0.00    +0.037 A 
ATOM     16  C   UNL     1      19.645  27.661  14.223  0.00  0.00    +0.013 A 
ATOM     17  C   UNL     1      20.685  28.558  14.659  0.00  0.00    +0.005 A 
ATOM     18  C   UNL     1      21.961  28.009  15.112  0.00  0.00    -0.033 A 
ATOM     28  C   UNL     1      22.156  26.569  15.117  0.00  0.00    +0.005 A 
ATOM     29  C   UNL     1      21.138  25.686  14.690  0.00  0.00    +0.013 A 
BRANCH  18  19
ATOM     19  C   UNL     1      23.135  28.892  15.574  0.00  0.00    +0.119 C 
BRANCH  19  20
ATOM     20  N   UNL     1      24.494  28.274  15.582  0.00  0.00    -0.302 NA
ATOM     21  C   UNL     1      24.927  27.855  16.989  0.00  0.00    +0.066 C 
ATOM     22  C   UNL     1      26.342  27.190  16.976  0.00  0.00    -0.064 C 
ATOM     23  N   UNL     1      27.354  28.161  16.364  0.00  0.00    +0.379 N 
ATOM     24  C   UNL     1      28.695  27.561  16.403  0.00  0.00    -0.096 C 
ATOM     25  H   UNL     1      27.373  29.075  17.003  0.00  0.00    -0.082 HD
ATOM     26  C   UNL     1      26.929  28.585  14.965  0.00  0.00    -0.064 C 
ATOM     27  C   UNL     1      25.510  29.218  14.986  0.00  0.00    +0.066 C 
ENDBRANCH  19  20
ENDBRANCH  18  19
ENDBRANCH  14  15
ENDBRANCH  12  13
TORSDOF 6
ENDMDL
MODEL 4
REMARK VINA RESULT:      -8.3     22.190     27.069
REMARK  Name = C:\Users\Docking\Desktop\test protocol\1iep_ligandH.pdb
REMARK  8 active torsions:
REMARK  status: ('A' for Active; 'I' for Inactive)
REMARK    1  A    between atoms: _5  and  _11
REMARK    2  A    between atoms: _19  and  _21
REMARK    3  A    between atoms: _22  and  _66
REMARK    4  A    between atoms: _27  and  _30
REMARK    5  A    between atoms: _32  and  _33
REMARK    6  A    between atoms: _38  and  _43
REMARK    7  A    between atoms: _43  and  _46
REMARK    8  A    between atoms: _53  and  _55
REMARK                            x       y       z     vdW  Elec       q    Type
REMARK                         _______ _______ _______ _____ _____    ______ ____
ROOT
ATOM     10  C   UNL     1       9.097  25.866  19.060  0.00  0.00    +0.038 A 
ATOM     11  C   UNL     1      10.396  25.661  18.528  0.00  0.00    +0.047 A 
ATOM     12  C   UNL     1      11.015  24.344  18.541  0.00  0.00    +0.035 A 
ATOM     32  C   UNL     1      10.281  23.259  19.102  0.00  0.00    +0.024 A 
ATOM     33  C   UNL     1       8.961  23.450  19.649  0.00  0.00    +0.007 A 
ATOM     34  C   UNL     1       8.346  24.747  19.640  0.00  0.00    -0.029 A 
ATOM     35  C   UNL     1       6.931  24.895  20.246  0.00  0.00    +0.045 C 
ENDROOT
BRANCH  10   9
ATOM      4  C   UNL     1       7.991  30.060  21.116  0.00  0.00    +0.077 A 
ATOM      5  C   UNL     1       8.522  29.646  22.383  0.00  0.00    +0.048 A 
ATOM      6  C   UNL     1       9.065  28.344  22.465  0.00  0.00    +0.116 A 
ATOM      7  N   UNL     1       9.070  27.525  21.357  0.00  0.00    -0.223 NA
ATOM      8  C   UNL     1       8.549  27.955  20.150  0.00  0.00    +0.220 A 
ATOM      9  N   UNL     1       8.551  27.151  19.021  0.00  0.00    -0.283 N 
ATOM     36  H   UNL     1       8.150  27.502  18.151  0.00  0.00    +0.155 HD
ATOM     37  N   UNL     1       8.024  29.193  20.047  0.00  0.00    -0.214 NA
BRANCH   4   3
ATOM      1  C   UNL     1       5.725  33.238  21.371  0.00  0.00    +0.020 A 
ATOM      2  C   UNL     1       6.271  31.930  21.649  0.00  0.00    +0.013 A 
ATOM      3  C   UNL     1       7.387  31.407  20.870  0.00  0.00    +0.019 A 
ATOM     38  C   UNL     1       7.933  32.241  19.810  0.00  0.00    +0.120 A 
ATOM     39  N   UNL     1       7.385  33.496  19.564  0.00  0.00    -0.263 NA
ATOM     40  C   UNL     1       6.310  34.009  20.305  0.00  0.00    +0.111 A 
ENDBRANCH   4   3
ENDBRANCH  10   9
BRANCH  12  13
ATOM     13  N   UNL     1      12.333  24.076  18.023  0.00  0.00    -0.281 N 
ATOM     14  C   UNL     1      12.675  23.315  16.917  0.00  0.00    +0.248 C 
ATOM     30  O   UNL     1      11.907  22.569  16.327  0.00  0.00    -0.270 OA
ATOM     31  H   UNL     1      13.109  24.500  18.533  0.00  0.00    +0.155 HD
BRANCH  14  15
ATOM     15  C   UNL     1      14.076  23.381  16.400  0.00  0.00    +0.037 A 
ATOM     16  C   UNL     1      15.221  23.441  17.313  0.00  0.00    +0.013 A 
ATOM     17  C   UNL     1      16.561  23.521  16.788  0.00  0.00    +0.005 A 
ATOM     18  C   UNL     1      16.763  23.539  15.342  0.00  0.00    -0.033 A 
ATOM     28  C   UNL     1      15.610  23.473  14.459  0.00  0.00    +0.005 A 
ATOM     29  C   UNL     1      14.295  23.396  14.970  0.00  0.00    +0.013 A 
BRANCH  18  19
ATOM     19  C   UNL     1      18.157  23.644  14.693  0.00  0.00    +0.119 C 
BRANCH  19  20
ATOM     20  N   UNL     1      18.921  24.907  14.917  0.00  0.00    -0.302 NA
ATOM     21  C   UNL     1      18.383  26.063  14.068  0.00  0.00    +0.066 C 
ATOM     22  C   UNL     1      19.180  27.382  14.331  0.00  0.00    -0.064 C 
ATOM     23  N   UNL     1      20.664  27.144  14.044  0.00  0.00    +0.379 N 
ATOM     24  C   UNL     1      21.407  28.398  14.234  0.00  0.00    -0.096 C 
ATOM     25  H   UNL     1      20.758  26.854  12.971  0.00  0.00    -0.082 HD
ATOM     26  C   UNL     1      21.206  25.995  14.882  0.00  0.00    -0.064 C 
ATOM     27  C   UNL     1      20.388  24.696  14.635  0.00  0.00    +0.066 C 
ENDBRANCH  19  20
ENDBRANCH  18  19
ENDBRANCH  14  15
ENDBRANCH  12  13
TORSDOF 6
ENDMDL
MODEL 5
REMARK VINA RESULT:      -8.2     21.210     23.142
REMARK  Name = C:\Users\Docking\Desktop\test protocol\1iep_ligandH.pdb
REMARK  8 active torsions:
REMARK  status: ('A' for Active; 'I' for Inactive)
REMARK    1  A    between atoms: _5  and  _11
REMARK    2  A    between atoms: _19  and  _21
REMARK    3  A    between atoms: _22  and  _66
REMARK    4  A    between atoms: _27  and  _30
REMARK    5  A    between atoms: _32  and  _33
REMARK    6  A    between atoms: _38  and  _43
REMARK    7  A    between atoms: _43  and  _46
REMARK    8  A    between atoms: _53  and  _55
REMARK                            x       y       z     vdW  Elec       q    Type
REMARK                         _______ _______ _______ _____ _____    ______ ____
ROOT
ATOM     10  C   UNL     1      19.146  23.718  14.496  0.00  0.00    +0.038 A 
ATOM     11  C   UNL     1      17.941  23.848  15.232  0.00  0.00    +0.047 A 
ATOM     12  C   UNL     1      16.699  23.263  14.752  0.00  0.00    +0.035 A 
ATOM     32  C   UNL     1      16.721  22.548  13.518  0.00  0.00    +0.024 A 
ATOM     33  C   UNL     1      17.938  22.407  12.757  0.00  0.00    +0.007 A 
ATOM     34  C   UNL     1      19.165  22.985  13.225  0.00  0.00    -0.029 A 
ATOM     35  C   UNL     1      20.438  22.808  12.364  0.00  0.00    +0.045 C 
ENDROOT
BRANCH  10   9
ATOM      4  C   UNL     1      22.007  27.498  15.249  0.00  0.00    +0.077 A 
ATOM      5  C   UNL     1      21.122  28.382  14.547  0.00  0.00    +0.048 A 
ATOM      6  C   UNL     1      19.945  27.823  14.001  0.00  0.00    +0.116 A 
ATOM      7  N   UNL     1      19.682  26.479  14.152  0.00  0.00    -0.223 NA
ATOM      8  C   UNL     1      20.558  25.654  14.833  0.00  0.00    +0.220 A 
ATOM      9  N   UNL     1      20.310  24.300  15.004  0.00  0.00    -0.283 N 
ATOM     36  H   UNL     1      20.984  23.724  15.507  0.00  0.00    +0.155 HD
ATOM     37  N   UNL     1      21.690  26.163  15.363  0.00  0.00    -0.214 NA
BRANCH   4   3
ATOM      1  C   UNL     1      25.177  29.581  16.204  0.00  0.00    +0.020 A 
ATOM      2  C   UNL     1      23.940  29.202  15.561  0.00  0.00    +0.013 A 
ATOM      3  C   UNL     1      23.289  27.939  15.884  0.00  0.00    +0.019 A 
ATOM     38  C   UNL     1      23.920  27.075  16.871  0.00  0.00    +0.120 A 
ATOM     39  N   UNL     1      25.112  27.466  17.473  0.00  0.00    -0.263 NA
ATOM     40  C   UNL     1      25.749  28.679  17.168  0.00  0.00    +0.111 A 
ENDBRANCH   4   3
ENDBRANCH  10   9
BRANCH  12  13
ATOM     13  N   UNL     1      15.443  23.369  15.451  0.00  0.00    -0.281 N 
ATOM     14  C   UNL     1      15.078  22.766  16.644  0.00  0.00    +0.248 C 
ATOM     30  O   UNL     1      15.707  21.868  17.184  0.00  0.00    -0.270 OA
ATOM     31  H   UNL     1      14.736  23.961  15.014  0.00  0.00    +0.155 HD
BRANCH  14  15
ATOM     15  C   UNL     1      13.828  23.215  17.328  0.00  0.00    +0.037 A 
ATOM     16  C   UNL     1      13.869  23.837  18.654  0.00  0.00    +0.013 A 
ATOM     17  C   UNL     1      12.646  24.246  19.299  0.00  0.00    +0.005 A 
ATOM     18  C   UNL     1      11.371  24.035  18.617  0.00  0.00    -0.033 A 
ATOM     28  C   UNL     1      11.360  23.421  17.300  0.00  0.00    +0.005 A 
ATOM     29  C   UNL     1      12.557  23.018  16.665  0.00  0.00    +0.013 A 
BRANCH  18  19
ATOM     19  C   UNL     1      10.016  24.421  19.239  0.00  0.00    +0.119 C 
BRANCH  19  20
ATOM     20  N   UNL     1       9.985  25.630  20.115  0.00  0.00    -0.302 NA
ATOM     21  C   UNL     1       8.916  25.522  21.206  0.00  0.00    +0.066 C 
ATOM     22  C   UNL     1       8.913  26.784  22.128  0.00  0.00    -0.064 C 
ATOM     23  N   UNL     1       8.692  28.035  21.274  0.00  0.00    +0.379 N 
ATOM     24  C   UNL     1       8.631  29.218  22.145  0.00  0.00    -0.096 C 
ATOM     25  H   UNL     1       7.701  27.931  20.773  0.00  0.00    -0.082 HD
ATOM     26  C   UNL     1       9.750  28.148  20.186  0.00  0.00    -0.064 C 
ATOM     27  C   UNL     1       9.764  26.876  19.294  0.00  0.00    +0.066 C 
ENDBRANCH  19  20
ENDBRANCH  18  19
ENDBRANCH  14  15
ENDBRANCH  12  13
TORSDOF 6
ENDMDL
