MODEL 1
REMARK VINA RESULT:      -9.2      0.000      0.000
REMARK  Name = C:\Users\Docking\Desktop\test protocol\1iep_ligandH.pdb
REMARK  8 active torsions:
REMARK  status: ('A' for Active; 'I' for Inactive)
REMARK    1  A    between atoms: _5  and  _11
REMARK    2  A    between atoms: _19  and  _21
REMARK    3  A    between atoms: _22  and  _66
REMARK    4  A    between atoms: _27  and  _30
REMARK    5  A    between atoms: _32  and  _33
REMARK    6  A    between atoms: _38  and  _43
REMARK    7  A    between atoms: _43  and  _46
REMARK    8  A    between atoms: _53  and  _55
REMARK                            x       y       z     vdW  Elec       q    Type
REMARK                         _______ _______ _______ _____ _____    ______ ____
ROOT
ATOM     10  C   UNL     1      30.111  12.553  20.369  0.00  0.00    +0.038 A 
ATOM     11  C   UNL     1      31.181  11.754  19.890  0.00  0.00    +0.047 A 
ATOM     12  C   UNL     1      32.438  11.666  20.617  0.00  0.00    +0.035 A 
ATOM     32  C   UNL     1      32.570  12.402  21.830  0.00  0.00    +0.024 A 
ATOM     33  C   UNL     1      31.493  13.220  22.331  0.00  0.00    +0.007 A 
ATOM     34  C   UNL     1      30.252  13.313  21.617  0.00  0.00    -0.029 A 
ATOM     35  C   UNL     1      29.134  14.210  22.197  0.00  0.00    +0.045 C 
ENDROOT
BRANCH  10   9
ATOM      4  C   UNL     1      27.536  14.006  16.588  0.00  0.00    +0.077 A 
ATOM      5  C   UNL     1      28.636  14.754  16.052  0.00  0.00    +0.048 A 
ATOM      6  C   UNL     1      29.845  14.745  16.783  0.00  0.00    +0.116 A 
ATOM      7  N   UNL     1      29.936  14.037  17.961  0.00  0.00    -0.223 NA
ATOM      8  C   UNL     1      28.855  13.327  18.452  0.00  0.00    +0.220 A 
ATOM      9  N   UNL     1      28.926  12.601  19.631  0.00  0.00    -0.283 N 
ATOM     36  H   UNL     1      28.104  12.097  19.963  0.00  0.00    +0.155 HD
ATOM     37  N   UNL     1      27.689  13.321  17.773  0.00  0.00    -0.214 NA
BRANCH   4   3
ATOM      1  C   UNL     1      23.830  14.712  15.553  0.00  0.00    +0.020 A 
ATOM      2  C   UNL     1      25.107  14.843  16.217  0.00  0.00    +0.013 A 
ATOM      3  C   UNL     1      26.194  13.916  15.930  0.00  0.00    +0.019 A 
ATOM     38  C   UNL     1      25.955  12.859  14.958  0.00  0.00    +0.120 A 
ATOM     39  N   UNL     1      24.715  12.757  14.336  0.00  0.00    -0.263 NA
ATOM     40  C   UNL     1      23.661  13.643  14.605  0.00  0.00    +0.111 A 
ENDBRANCH   4   3
ENDBRANCH  10   9
BRANCH  12  13
ATOM     13  N   UNL     1      33.562  10.877  20.175  0.00  0.00    -0.281 N 
ATOM     14  C   UNL     1      34.901  11.229  20.177  0.00  0.00    +0.248 C 
ATOM     30  O   UNL     1      35.318  12.363  20.361  0.00  0.00    -0.270 OA
ATOM     31  H   UNL     1      33.343   9.947  19.818  0.00  0.00    +0.155 HD
BRANCH  14  15
ATOM     15  C   UNL     1      35.926  10.171  19.923  0.00  0.00    +0.037 A 
ATOM     16  C   UNL     1      35.638   8.758  20.178  0.00  0.00    +0.013 A 
ATOM     17  C   UNL     1      36.650   7.759  19.941  0.00  0.00    +0.005 A 
ATOM     18  C   UNL     1      37.960   8.171  19.443  0.00  0.00    -0.033 A 
ATOM     28  C   UNL     1      38.217   9.580  19.194  0.00  0.00    +0.005 A 
ATOM     29  C   UNL     1      37.228  10.562  19.426  0.00  0.00    +0.013 A 
BRANCH  18  19
ATOM     19  C   UNL     1      39.106   7.176  19.182  0.00  0.00    +0.119 C 
BRANCH  19  20
ATOM     20  N   UNL     1      40.395   7.414  19.898  0.00  0.00    -0.302 NA
ATOM     21  C   UNL     1      41.327   8.340  19.112  0.00  0.00    +0.066 C 
ATOM     22  C   UNL     1      42.661   8.596  19.887  0.00  0.00    -0.064 C 
ATOM     23  N   UNL     1      43.344   7.258  20.176  0.00  0.00    +0.379 N 
ATOM     24  C   UNL     1      44.627   7.499  20.853  0.00  0.00    -0.096 C 
ATOM     25  H   UNL     1      43.564   6.772  19.197  0.00  0.00    -0.082 HD
ATOM     26  C   UNL     1      42.423   6.330  20.956  0.00  0.00    -0.064 C 
ATOM     27  C   UNL     1      41.089   6.106  20.191  0.00  0.00    +0.066 C 
ENDBRANCH  19  20
ENDBRANCH  18  19
ENDBRANCH  14  15
ENDBRANCH  12  13
TORSDOF 6
ENDMDL
MODEL 2
REMARK VINA RESULT:      -9.0     16.232     20.458
REMARK  Name = C:\Users\Docking\Desktop\test protocol\1iep_ligandH.pdb
REMARK  8 active torsions:
REMARK  status: ('A' for Active; 'I' for Inactive)
REMARK    1  A    between atoms: _5  and  _11
REMARK    2  A    between atoms: _19  and  _21
REMARK    3  A    between atoms: _22  and  _66
REMARK    4  A    between atoms: _27  and  _30
REMARK    5  A    between atoms: _32  and  _33
REMARK    6  A    between atoms: _38  and  _43
REMARK    7  A    between atoms: _43  and  _46
REMARK    8  A    between atoms: _53  and  _55
REMARK                            x       y       z     vdW  Elec       q    Type
REMARK                         _______ _______ _______ _____ _____    ______ ____
ROOT
ATOM     10  C   UNL     1      13.598   8.849  11.356  0.00  0.00    +0.038 A 
ATOM     11  C   UNL     1      14.113   8.984  12.671  0.00  0.00    +0.047 A 
ATOM     12  C   UNL     1      14.124  10.272  13.346  0.00  0.00    +0.035 A 
ATOM     32  C   UNL     1      13.601  11.402  12.654  0.00  0.00    +0.024 A 
ATOM     33  C   UNL     1      13.075  11.284  11.317  0.00  0.00    +0.007 A 
ATOM     34  C   UNL     1      13.064  10.017  10.644  0.00  0.00    -0.029 A 
ATOM     35  C   UNL     1      12.494   9.950   9.208  0.00  0.00    +0.045 C 
ENDROOT
BRANCH  10   9
ATOM      4  C   UNL     1      15.640   5.502   8.588  0.00  0.00    +0.077 A 
ATOM      5  C   UNL     1      16.762   6.345   8.292  0.00  0.00    +0.048 A 
ATOM      6  C   UNL     1      16.772   7.636   8.867  0.00  0.00    +0.116 A 
ATOM      7  N   UNL     1      15.732   8.042   9.675  0.00  0.00    -0.223 NA
ATOM      8  C   UNL     1      14.664   7.204   9.938  0.00  0.00    +0.220 A 
ATOM      9  N   UNL     1      13.612   7.589  10.755  0.00  0.00    -0.283 N 
ATOM     36  H   UNL     1      12.839   6.944  10.919  0.00  0.00    +0.155 HD
ATOM     37  N   UNL     1      14.630   5.967   9.401  0.00  0.00    -0.214 NA
BRANCH   4   3
ATOM      1  C   UNL     1      16.281   1.735   7.747  0.00  0.00    +0.020 A 
ATOM      2  C   UNL     1      16.477   3.064   8.280  0.00  0.00    +0.013 A 
ATOM      3  C   UNL     1      15.486   4.110   8.058  0.00  0.00    +0.019 A 
ATOM     38  C   UNL     1      14.298   3.775   7.287  0.00  0.00    +0.120 A 
ATOM     39  N   UNL     1      14.137   2.488   6.785  0.00  0.00    -0.263 NA
ATOM     40  C   UNL     1      15.084   1.474   6.991  0.00  0.00    +0.111 A 
ENDBRANCH   4   3
ENDBRANCH  10   9
BRANCH  12  13
ATOM     13  N   UNL     1      14.641  10.470  14.678  0.00  0.00    -0.281 N 
ATOM     14  C   UNL     1      13.954  10.397  15.878  0.00  0.00    +0.248 C 
ATOM     30  O   UNL     1      12.736  10.360  15.976  0.00  0.00    -0.270 OA
ATOM     31  H   UNL     1      15.635  10.692  14.743  0.00  0.00    +0.155 HD
BRANCH  14  15
ATOM     15  C   UNL     1      14.730  10.378  17.155  0.00  0.00    +0.037 A 
ATOM     16  C   UNL     1      14.302  11.162  18.317  0.00  0.00    +0.013 A 
ATOM     17  C   UNL     1      15.079  11.138  19.531  0.00  0.00    +0.005 A 
ATOM     18  C   UNL     1      16.292  10.326  19.589  0.00  0.00    -0.033 A 
ATOM     28  C   UNL     1      16.690   9.554  18.424  0.00  0.00    +0.005 A 
ATOM     29  C   UNL     1      15.932   9.575  17.232  0.00  0.00    +0.013 A 
BRANCH  18  19
ATOM     19  C   UNL     1      17.193  10.258  20.837  0.00  0.00    +0.119 C 
BRANCH  19  20
ATOM     20  N   UNL     1      17.529  11.548  21.509  0.00  0.00    -0.302 NA
ATOM     21  C   UNL     1      18.433  12.429  20.642  0.00  0.00    +0.066 C 
ATOM     22  C   UNL     1      18.756  13.785  21.352  0.00  0.00    -0.064 C 
ATOM     23  N   UNL     1      19.409  13.505  22.706  0.00  0.00    +0.379 N 
ATOM     24  C   UNL     1      19.767  14.778  23.350  0.00  0.00    -0.096 C 
ATOM     25  H   UNL     1      20.354  12.944  22.517  0.00  0.00    -0.082 HD
ATOM     26  C   UNL     1      18.518  12.628  23.573  0.00  0.00    -0.064 C 
ATOM     27  C   UNL     1      18.179  11.296  22.847  0.00  0.00    +0.066 C 
ENDBRANCH  19  20
ENDBRANCH  18  19
ENDBRANCH  14  15
ENDBRANCH  12  13
TORSDOF 6
ENDMDL
MODEL 3
REMARK VINA RESULT:      -8.7     16.245     21.452
REMARK  Name = C:\Users\Docking\Desktop\test protocol\1iep_ligandH.pdb
REMARK  8 active torsions:
REMARK  status: ('A' for Active; 'I' for Inactive)
REMARK    1  A    between atoms: _5  and  _11
REMARK    2  A    between atoms: _19  and  _21
REMARK    3  A    between atoms: _22  and  _66
REMARK    4  A    between atoms: _27  and  _30
REMARK    5  A    between atoms: _32  and  _33
REMARK    6  A    between atoms: _38  and  _43
REMARK    7  A    between atoms: _43  and  _46
REMARK    8  A    between atoms: _53  and  _55
REMARK                            x       y       z     vdW  Elec       q    Type
REMARK                         _______ _______ _______ _____ _____    ______ ____
ROOT
ATOM     10  C   UNL     1      13.345  10.587  14.017  0.00  0.00    +0.038 A 
ATOM     11  C   UNL     1      13.532   9.514  13.109  0.00  0.00    +0.047 A 
ATOM     12  C   UNL     1      12.923   9.530  11.789  0.00  0.00    +0.035 A 
ATOM     32  C   UNL     1      12.130  10.657  11.424  0.00  0.00    +0.024 A 
ATOM     33  C   UNL     1      11.927  11.756  12.335  0.00  0.00    +0.007 A 
ATOM     34  C   UNL     1      12.524  11.744  13.640  0.00  0.00    -0.029 A 
ATOM     35  C   UNL     1      12.269  12.947  14.578  0.00  0.00    +0.045 C 
ENDROOT
BRANCH  10   9
ATOM      4  C   UNL     1      17.198  10.811  16.869  0.00  0.00    +0.077 A 
ATOM      5  C   UNL     1      18.077  11.057  15.762  0.00  0.00    +0.048 A 
ATOM      6  C   UNL     1      17.498  11.112  14.474  0.00  0.00    +0.116 A 
ATOM      7  N   UNL     1      16.141  10.932  14.317  0.00  0.00    -0.223 NA
ATOM      8  C   UNL     1      15.322  10.695  15.406  0.00  0.00    +0.220 A 
ATOM      9  N   UNL     1      13.954  10.519  15.272  0.00  0.00    -0.283 N 
ATOM     36  H   UNL     1      13.385  10.339  16.099  0.00  0.00    +0.155 HD
ATOM     37  N   UNL     1      15.851  10.637  16.646  0.00  0.00    -0.214 NA
BRANCH   4   3
ATOM      1  C   UNL     1      19.068  11.506  20.234  0.00  0.00    +0.020 A 
ATOM      2  C   UNL     1      18.659  11.628  18.854  0.00  0.00    +0.013 A 
ATOM      3  C   UNL     1      17.659  10.729  18.292  0.00  0.00    +0.019 A 
ATOM     38  C   UNL     1      17.088   9.710  19.159  0.00  0.00    +0.120 A 
ATOM     39  N   UNL     1      17.503   9.615  20.484  0.00  0.00    -0.263 NA
ATOM     40  C   UNL     1      18.466  10.474  21.036  0.00  0.00    +0.111 A 
ENDBRANCH   4   3
ENDBRANCH  10   9
BRANCH  12  13
ATOM     13  N   UNL     1      13.071   8.465  10.827  0.00  0.00    -0.281 N 
ATOM     14  C   UNL     1      14.035   8.337   9.841  0.00  0.00    +0.248 C 
ATOM     30  O   UNL     1      14.793   9.231   9.495  0.00  0.00    -0.270 OA
ATOM     31  H   UNL     1      12.382   7.715  10.881  0.00  0.00    +0.155 HD
BRANCH  14  15
ATOM     15  C   UNL     1      14.165   7.032   9.124  0.00  0.00    +0.037 A 
ATOM     16  C   UNL     1      14.387   5.782   9.856  0.00  0.00    +0.013 A 
ATOM     17  C   UNL     1      14.527   4.539   9.139  0.00  0.00    +0.005 A 
ATOM     18  C   UNL     1      14.443   4.541   7.680  0.00  0.00    -0.033 A 
ATOM     28  C   UNL     1      14.217   5.794   6.980  0.00  0.00    +0.005 A 
ATOM     29  C   UNL     1      14.081   7.014   7.679  0.00  0.00    +0.013 A 
BRANCH  18  19
ATOM     19  C   UNL     1      14.601   3.265   6.832  0.00  0.00    +0.119 C 
BRANCH  19  20
ATOM     20  N   UNL     1      15.237   2.083   7.487  0.00  0.00    -0.302 NA
ATOM     21  C   UNL     1      16.753   2.249   7.627  0.00  0.00    +0.066 C 
ATOM     22  C   UNL     1      17.399   1.014   8.334  0.00  0.00    -0.064 C 
ATOM     23  N   UNL     1      17.063  -0.254   7.547  0.00  0.00    +0.379 N 
ATOM     24  C   UNL     1      17.717  -1.410   8.177  0.00  0.00    -0.096 C 
ATOM     25  H   UNL     1      17.491  -0.139   6.524  0.00  0.00    -0.082 HD
ATOM     26  C   UNL     1      15.558  -0.426   7.402  0.00  0.00    -0.064 C 
ATOM     27  C   UNL     1      14.922   0.820   6.724  0.00  0.00    +0.066 C 
ENDBRANCH  19  20
ENDBRANCH  18  19
ENDBRANCH  14  15
ENDBRANCH  12  13
TORSDOF 6
ENDMDL
MODEL 4
REMARK VINA RESULT:      -8.6      2.038      2.643
REMARK  Name = C:\Users\Docking\Desktop\test protocol\1iep_ligandH.pdb
REMARK  8 active torsions:
REMARK  status: ('A' for Active; 'I' for Inactive)
REMARK    1  A    between atoms: _5  and  _11
REMARK    2  A    between atoms: _19  and  _21
REMARK    3  A    between atoms: _22  and  _66
REMARK    4  A    between atoms: _27  and  _30
REMARK    5  A    between atoms: _32  and  _33
REMARK    6  A    between atoms: _38  and  _43
REMARK    7  A    between atoms: _43  and  _46
REMARK    8  A    between atoms: _53  and  _55
REMARK                            x       y       z     vdW  Elec       q    Type
REMARK                         _______ _______ _______ _____ _____    ______ ____
ROOT
ATOM     10  C   UNL     1      33.032  14.453  18.935  0.00  0.00    +0.038 A 
ATOM     11  C   UNL     1      33.976  13.395  18.933  0.00  0.00    +0.047 A 
ATOM     12  C   UNL     1      35.091  13.379  19.867  0.00  0.00    +0.035 A 
ATOM     32  C   UNL     1      35.212  14.457  20.792  0.00  0.00    +0.024 A 
ATOM     33  C   UNL     1      34.262  15.541  20.807  0.00  0.00    +0.007 A 
ATOM     34  C   UNL     1      33.162  15.563  19.886  0.00  0.00    -0.029 A 
ATOM     35  C   UNL     1      32.177  16.755  19.943  0.00  0.00    +0.045 C 
ENDROOT
BRANCH  10   9
ATOM      4  C   UNL     1      28.594  13.174  17.627  0.00  0.00    +0.077 A 
ATOM      5  C   UNL     1      28.359  12.498  18.870  0.00  0.00    +0.048 A 
ATOM      6  C   UNL     1      29.409  12.496  19.816  0.00  0.00    +0.116 A 
ATOM      7  N   UNL     1      30.600  13.127  19.530  0.00  0.00    -0.223 NA
ATOM      8  C   UNL     1      30.794  13.769  18.321  0.00  0.00    +0.220 A 
ATOM      9  N   UNL     1      31.981  14.417  18.015  0.00  0.00    -0.283 N 
ATOM     36  H   UNL     1      32.088  14.873  17.109  0.00  0.00    +0.155 HD
ATOM     37  N   UNL     1      29.808  13.784  17.400  0.00  0.00    -0.214 NA
BRANCH   4   3
ATOM      1  C   UNL     1      25.527  14.266  15.459  0.00  0.00    +0.020 A 
ATOM      2  C   UNL     1      26.478  14.218  16.546  0.00  0.00    +0.013 A 
ATOM      3  C   UNL     1      27.582  13.267  16.528  0.00  0.00    +0.019 A 
ATOM     38  C   UNL     1      27.697  12.372  15.386  0.00  0.00    +0.120 A 
ATOM     39  N   UNL     1      26.766  12.440  14.355  0.00  0.00    -0.263 NA
ATOM     40  C   UNL     1      25.698  13.350  14.362  0.00  0.00    +0.111 A 
ENDBRANCH   4   3
ENDBRANCH  10   9
BRANCH  12  13
ATOM     13  N   UNL     1      36.085  12.336  19.907  0.00  0.00    -0.281 N 
ATOM     14  C   UNL     1      35.882  10.970  20.015  0.00  0.00    +0.248 C 
ATOM     30  O   UNL     1      34.816  10.451  20.310  0.00  0.00    -0.270 OA
ATOM     31  H   UNL     1      37.057  12.641  19.849  0.00  0.00    +0.155 HD
BRANCH  14  15
ATOM     15  C   UNL     1      37.033  10.047  19.774  0.00  0.00    +0.037 A 
ATOM     16  C   UNL     1      36.828   8.609  19.583  0.00  0.00    +0.013 A 
ATOM     17  C   UNL     1      37.957   7.739  19.370  0.00  0.00    +0.005 A 
ATOM     18  C   UNL     1      39.303   8.307  19.345  0.00  0.00    -0.033 A 
ATOM     28  C   UNL     1      39.478   9.737  19.533  0.00  0.00    +0.005 A 
ATOM     29  C   UNL     1      38.374  10.593  19.743  0.00  0.00    +0.013 A 
BRANCH  18  19
ATOM     19  C   UNL     1      40.568   7.451  19.145  0.00  0.00    +0.119 C 
BRANCH  19  20
ATOM     20  N   UNL     1      41.097   6.722  20.336  0.00  0.00    -0.302 NA
ATOM     21  C   UNL     1      42.627   6.725  20.379  0.00  0.00    +0.066 C 
ATOM     22  C   UNL     1      43.163   5.979  21.644  0.00  0.00    -0.064 C 
ATOM     23  N   UNL     1      42.624   4.547  21.654  0.00  0.00    +0.379 N 
ATOM     24  C   UNL     1      43.172   3.825  22.811  0.00  0.00    -0.096 C 
ATOM     25  H   UNL     1      42.993   4.040  20.733  0.00  0.00    -0.082 HD
ATOM     26  C   UNL     1      41.102   4.535  21.609  0.00  0.00    -0.064 C 
ATOM     27  C   UNL     1      40.580   5.305  20.364  0.00  0.00    +0.066 C 
ENDBRANCH  19  20
ENDBRANCH  18  19
ENDBRANCH  14  15
ENDBRANCH  12  13
TORSDOF 6
ENDMDL
MODEL 5
REMARK VINA RESULT:      -8.6     29.802     34.033
REMARK  Name = C:\Users\Docking\Desktop\test protocol\1iep_ligandH.pdb
REMARK  8 active torsions:
REMARK  status: ('A' for Active; 'I' for Inactive)
REMARK    1  A    between atoms: _5  and  _11
REMARK    2  A    between atoms: _19  and  _21
REMARK    3  A    between atoms: _22  and  _66
REMARK    4  A    between atoms: _27  and  _30
REMARK    5  A    between atoms: _32  and  _33
REMARK    6  A    between atoms: _38  and  _43
REMARK    7  A    between atoms: _43  and  _46
REMARK    8  A    between atoms: _53  and  _55
REMARK                            x       y       z     vdW  Elec       q    Type
REMARK                         _______ _______ _______ _____ _____    ______ ____
ROOT
ATOM     10  C   UNL     1       8.213  -7.003  22.191  0.00  0.00    +0.038 A 
ATOM     11  C   UNL     1       8.028  -8.299  21.644  0.00  0.00    +0.047 A 
ATOM     12  C   UNL     1       8.200  -9.491  22.460  0.00  0.00    +0.035 A 
ATOM     32  C   UNL     1       8.558  -9.326  23.830  0.00  0.00    +0.024 A 
ATOM     33  C   UNL     1       8.750  -8.016  24.402  0.00  0.00    +0.007 A 
ATOM     34  C   UNL     1       8.585  -6.837  23.601  0.00  0.00    -0.029 A 
ATOM     35  C   UNL     1       8.811  -5.458  24.265  0.00  0.00    +0.045 C 
ENDROOT
BRANCH  10   9
ATOM      4  C   UNL     1       9.636  -4.094  18.648  0.00  0.00    +0.077 A 
ATOM      5  C   UNL     1      10.850  -4.833  18.449  0.00  0.00    +0.048 A 
ATOM      6  C   UNL     1      11.074  -5.951  19.284  0.00  0.00    +0.116 A 
ATOM      7  N   UNL     1      10.145  -6.295  20.243  0.00  0.00    -0.223 NA
ATOM      8  C   UNL     1       8.986  -5.560  20.409  0.00  0.00    +0.220 A 
ATOM      9  N   UNL     1       8.035  -5.893  21.362  0.00  0.00    -0.283 N 
ATOM     36  H   UNL     1       7.196  -5.321  21.458  0.00  0.00    +0.155 HD
ATOM     37  N   UNL     1       8.750  -4.488  19.625  0.00  0.00    -0.214 NA
BRANCH   4   3
ATOM      1  C   UNL     1       9.817  -0.870  16.440  0.00  0.00    +0.020 A 
ATOM      2  C   UNL     1      10.238  -2.020  17.208  0.00  0.00    +0.013 A 
ATOM      3  C   UNL     1       9.256  -2.891  17.842  0.00  0.00    +0.019 A 
ATOM     38  C   UNL     1       7.847  -2.570  17.677  0.00  0.00    +0.120 A 
ATOM     39  N   UNL     1       7.472  -1.456  16.933  0.00  0.00    -0.263 NA
ATOM     40  C   UNL     1       8.407  -0.609  16.320  0.00  0.00    +0.111 A 
ENDBRANCH   4   3
ENDBRANCH  10   9
BRANCH  12  13
ATOM     13  N   UNL     1       8.034 -10.832  21.959  0.00  0.00    -0.281 N 
ATOM     14  C   UNL     1       7.216 -11.260  20.925  0.00  0.00    +0.248 C 
ATOM     30  O   UNL     1       6.338 -10.582  20.413  0.00  0.00    -0.270 OA
ATOM     31  H   UNL     1       8.586 -11.554  22.422  0.00  0.00    +0.155 HD
BRANCH  14  15
ATOM     15  C   UNL     1       7.389 -12.646  20.394  0.00  0.00    +0.037 A 
ATOM     16  C   UNL     1       8.199 -13.638  21.107  0.00  0.00    +0.013 A 
ATOM     17  C   UNL     1       8.363 -14.963  20.564  0.00  0.00    +0.005 A 
ATOM     18  C   UNL     1       7.715 -15.304  19.301  0.00  0.00    -0.033 A 
ATOM     28  C   UNL     1       6.913 -14.303  18.617  0.00  0.00    +0.005 A 
ATOM     29  C   UNL     1       6.750 -13.003  19.146  0.00  0.00    +0.013 A 
BRANCH  18  19
ATOM     19  C   UNL     1       7.853 -16.687  18.637  0.00  0.00    +0.119 C 
BRANCH  19  20
ATOM     20  N   UNL     1       6.944 -17.771  19.118  0.00  0.00    -0.302 NA
ATOM     21  C   UNL     1       7.314 -19.135  18.528  0.00  0.00    +0.066 C 
ATOM     22  C   UNL     1       6.367 -20.260  19.060  0.00  0.00    -0.064 C 
ATOM     23  N   UNL     1       4.918 -19.902  18.728  0.00  0.00    +0.379 N 
ATOM     24  C   UNL     1       4.030 -20.985  19.175  0.00  0.00    -0.096 C 
ATOM     25  H   UNL     1       4.833 -19.830  17.619  0.00  0.00    -0.082 HD
ATOM     26  C   UNL     1       4.542 -18.545  19.308  0.00  0.00    -0.064 C 
ATOM     27  C   UNL     1       5.507 -17.439  18.797  0.00  0.00    +0.066 C 
ENDBRANCH  19  20
ENDBRANCH  18  19
ENDBRANCH  14  15
ENDBRANCH  12  13
TORSDOF 6
ENDMDL
