MODEL 1
REMARK VINA RESULT:      -7.5      0.000      0.000
REMARK  Name = C:\Users\Docking\Desktop\test protocol\1iep_ligandH.pdb
REMARK  8 active torsions:
REMARK  status: ('A' for Active; 'I' for Inactive)
REMARK    1  A    between atoms: _5  and  _11
REMARK    2  A    between atoms: _19  and  _21
REMARK    3  A    between atoms: _22  and  _66
REMARK    4  A    between atoms: _27  and  _30
REMARK    5  A    between atoms: _32  and  _33
REMARK    6  A    between atoms: _38  and  _43
REMARK    7  A    between atoms: _43  and  _46
REMARK    8  A    between atoms: _53  and  _55
REMARK                            x       y       z     vdW  Elec       q    Type
REMARK                         _______ _______ _______ _____ _____    ______ ____
ROOT
ATOM     10  C   UNL     1      34.299  -1.767  39.835  0.00  0.00    +0.038 A 
ATOM     11  C   UNL     1      33.471  -0.641  39.595  0.00  0.00    +0.047 A 
ATOM     12  C   UNL     1      32.820  -0.446  38.309  0.00  0.00    +0.035 A 
ATOM     32  C   UNL     1      33.034  -1.419  37.290  0.00  0.00    +0.024 A 
ATOM     33  C   UNL     1      33.873  -2.569  37.516  0.00  0.00    +0.007 A 
ATOM     34  C   UNL     1      34.519  -2.766  38.782  0.00  0.00    -0.029 A 
ATOM     35  C   UNL     1      35.414  -4.014  38.967  0.00  0.00    +0.045 C 
ENDROOT
BRANCH  10   9
ATOM      4  C   UNL     1      37.416  -0.382  43.212  0.00  0.00    +0.077 A 
ATOM      5  C   UNL     1      37.911   0.691  42.398  0.00  0.00    +0.048 A 
ATOM      6  C   UNL     1      37.342   0.848  41.115  0.00  0.00    +0.116 A 
ATOM      7  N   UNL     1      36.352  -0.010  40.687  0.00  0.00    -0.223 NA
ATOM      8  C   UNL     1      35.899  -1.036  41.496  0.00  0.00    +0.220 A 
ATOM      9  N   UNL     1      34.898  -1.905  41.089  0.00  0.00    -0.283 N 
ATOM     36  H   UNL     1      34.597  -2.654  41.713  0.00  0.00    +0.155 HD
ATOM     37  N   UNL     1      36.427  -1.207  42.726  0.00  0.00    -0.214 NA
BRANCH   4   3
ATOM      1  C   UNL     1      38.632   0.030  46.907  0.00  0.00    +0.020 A 
ATOM      2  C   UNL     1      38.151   0.366  45.587  0.00  0.00    +0.013 A 
ATOM      3  C   UNL     1      37.915  -0.674  44.593  0.00  0.00    +0.019 A 
ATOM     38  C   UNL     1      38.178  -2.055  44.970  0.00  0.00    +0.120 A 
ATOM     39  N   UNL     1      38.643  -2.348  46.248  0.00  0.00    -0.263 NA
ATOM     40  C   UNL     1      38.875  -1.356  47.212  0.00  0.00    +0.111 A 
ENDBRANCH   4   3
ENDBRANCH  10   9
BRANCH  12  13
ATOM     13  N   UNL     1      31.975   0.682  38.005  0.00  0.00    -0.281 N 
ATOM     14  C   UNL     1      32.360   1.979  37.708  0.00  0.00    +0.248 C 
ATOM     30  O   UNL     1      33.489   2.419  37.869  0.00  0.00    -0.270 OA
ATOM     31  H   UNL     1      30.971   0.502  38.009  0.00  0.00    +0.155 HD
BRANCH  14  15
ATOM     15  C   UNL     1      31.341   2.929  37.167  0.00  0.00    +0.037 A 
ATOM     16  C   UNL     1      31.729   4.237  36.632  0.00  0.00    +0.013 A 
ATOM     17  C   UNL     1      30.723   5.141  36.132  0.00  0.00    +0.005 A 
ATOM     18  C   UNL     1      29.319   4.738  36.163  0.00  0.00    -0.033 A 
ATOM     28  C   UNL     1      28.963   3.433  36.694  0.00  0.00    +0.005 A 
ATOM     29  C   UNL     1      29.945   2.545  37.186  0.00  0.00    +0.013 A 
BRANCH  18  19
ATOM     19  C   UNL     1      28.178   5.647  35.671  0.00  0.00    +0.119 C 
BRANCH  19  20
ATOM     20  N   UNL     1      28.541   7.032  35.246  0.00  0.00    -0.302 NA
ATOM     21  C   UNL     1      27.733   8.094  35.996  0.00  0.00    +0.066 C 
ATOM     22  C   UNL     1      28.142   9.538  35.556  0.00  0.00    -0.064 C 
ATOM     23  N   UNL     1      27.952   9.680  34.044  0.00  0.00    +0.379 N 
ATOM     24  C   UNL     1      28.280  11.053  33.636  0.00  0.00    -0.096 C 
ATOM     25  H   UNL     1      26.872   9.509  33.822  0.00  0.00    -0.082 HD
ATOM     26  C   UNL     1      28.750   8.625  33.290  0.00  0.00    -0.064 C 
ATOM     27  C   UNL     1      28.357   7.196  33.757  0.00  0.00    +0.066 C 
ENDBRANCH  19  20
ENDBRANCH  18  19
ENDBRANCH  14  15
ENDBRANCH  12  13
TORSDOF 6
ENDMDL
MODEL 2
REMARK VINA RESULT:      -7.5     16.628     18.999
REMARK  Name = C:\Users\Docking\Desktop\test protocol\1iep_ligandH.pdb
REMARK  8 active torsions:
REMARK  status: ('A' for Active; 'I' for Inactive)
REMARK    1  A    between atoms: _5  and  _11
REMARK    2  A    between atoms: _19  and  _21
REMARK    3  A    between atoms: _22  and  _66
REMARK    4  A    between atoms: _27  and  _30
REMARK    5  A    between atoms: _32  and  _33
REMARK    6  A    between atoms: _38  and  _43
REMARK    7  A    between atoms: _43  and  _46
REMARK    8  A    between atoms: _53  and  _55
REMARK                            x       y       z     vdW  Elec       q    Type
REMARK                         _______ _______ _______ _____ _____    ______ ____
ROOT
ATOM     10  C   UNL     1      18.073   3.348  49.998  0.00  0.00    +0.038 A 
ATOM     11  C   UNL     1      17.943   3.792  48.658  0.00  0.00    +0.047 A 
ATOM     12  C   UNL     1      18.191   5.180  48.298  0.00  0.00    +0.035 A 
ATOM     32  C   UNL     1      18.573   6.087  49.329  0.00  0.00    +0.024 A 
ATOM     33  C   UNL     1      18.709   5.652  50.696  0.00  0.00    +0.007 A 
ATOM     34  C   UNL     1      18.463   4.286  51.058  0.00  0.00    -0.029 A 
ATOM     35  C   UNL     1      18.618   3.877  52.541  0.00  0.00    +0.045 C 
ENDROOT
BRANCH  10   9
ATOM      4  C   UNL     1      15.090  -0.312  50.858  0.00  0.00    +0.077 A 
ATOM      5  C   UNL     1      13.932   0.528  50.749  0.00  0.00    +0.048 A 
ATOM      6  C   UNL     1      14.148   1.898  50.477  0.00  0.00    +0.116 A 
ATOM      7  N   UNL     1      15.431   2.380  50.328  0.00  0.00    -0.223 NA
ATOM      8  C   UNL     1      16.525   1.543  50.441  0.00  0.00    +0.220 A 
ATOM      9  N   UNL     1      17.823   2.004  50.287  0.00  0.00    -0.283 N 
ATOM     36  H   UNL     1      18.604   1.356  50.386  0.00  0.00    +0.155 HD
ATOM     37  N   UNL     1      16.345   0.231  50.702  0.00  0.00    -0.214 NA
BRANCH   4   3
ATOM      1  C   UNL     1      15.722  -4.170  50.723  0.00  0.00    +0.020 A 
ATOM      2  C   UNL     1      15.822  -2.763  50.413  0.00  0.00    +0.013 A 
ATOM      3  C   UNL     1      15.025  -1.782  51.139  0.00  0.00    +0.019 A 
ATOM     38  C   UNL     1      14.130  -2.261  52.181  0.00  0.00    +0.120 A 
ATOM     39  N   UNL     1      14.053  -3.623  52.457  0.00  0.00    -0.263 NA
ATOM     40  C   UNL     1      14.814  -4.576  51.764  0.00  0.00    +0.111 A 
ENDBRANCH   4   3
ENDBRANCH  10   9
BRANCH  12  13
ATOM     13  N   UNL     1      18.067   5.691  46.955  0.00  0.00    -0.281 N 
ATOM     14  C   UNL     1      18.737   5.270  45.818  0.00  0.00    +0.248 C 
ATOM     30  O   UNL     1      19.707   4.527  45.823  0.00  0.00    -0.270 OA
ATOM     31  H   UNL     1      17.405   6.456  46.828  0.00  0.00    +0.155 HD
BRANCH  14  15
ATOM     15  C   UNL     1      18.270   5.755  44.484  0.00  0.00    +0.037 A 
ATOM     16  C   UNL     1      18.906   5.300  43.245  0.00  0.00    +0.013 A 
ATOM     17  C   UNL     1      18.448   5.797  41.972  0.00  0.00    +0.005 A 
ATOM     18  C   UNL     1      17.345   6.755  41.932  0.00  0.00    -0.033 A 
ATOM     28  C   UNL     1      16.730   7.186  43.176  0.00  0.00    +0.005 A 
ATOM     29  C   UNL     1      17.177   6.702  44.425  0.00  0.00    +0.013 A 
BRANCH  18  19
ATOM     19  C   UNL     1      16.805   7.354  40.620  0.00  0.00    +0.119 C 
BRANCH  19  20
ATOM     20  N   UNL     1      17.353   6.808  39.342  0.00  0.00    -0.302 NA
ATOM     21  C   UNL     1      17.756   7.919  38.368  0.00  0.00    +0.066 C 
ATOM     22  C   UNL     1      18.348   7.330  37.046  0.00  0.00    -0.064 C 
ATOM     23  N   UNL     1      17.322   6.393  36.405  0.00  0.00    +0.379 N 
ATOM     24  C   UNL     1      17.853   5.883  35.132  0.00  0.00    -0.096 C 
ATOM     25  H   UNL     1      16.412   6.995  36.176  0.00  0.00    -0.082 HD
ATOM     26  C   UNL     1      16.914   5.287  37.367  0.00  0.00    -0.064 C 
ATOM     27  C   UNL     1      16.355   5.883  38.689  0.00  0.00    +0.066 C 
ENDBRANCH  19  20
ENDBRANCH  18  19
ENDBRANCH  14  15
ENDBRANCH  12  13
TORSDOF 6
ENDMDL
MODEL 3
REMARK VINA RESULT:      -7.4     23.045     24.961
REMARK  Name = C:\Users\Docking\Desktop\test protocol\1iep_ligandH.pdb
REMARK  8 active torsions:
REMARK  status: ('A' for Active; 'I' for Inactive)
REMARK    1  A    between atoms: _5  and  _11
REMARK    2  A    between atoms: _19  and  _21
REMARK    3  A    between atoms: _22  and  _66
REMARK    4  A    between atoms: _27  and  _30
REMARK    5  A    between atoms: _32  and  _33
REMARK    6  A    between atoms: _38  and  _43
REMARK    7  A    between atoms: _43  and  _46
REMARK    8  A    between atoms: _53  and  _55
REMARK                            x       y       z     vdW  Elec       q    Type
REMARK                         _______ _______ _______ _____ _____    ______ ____
ROOT
ATOM     10  C   UNL     1      36.231  25.678  37.448  0.00  0.00    +0.038 A 
ATOM     11  C   UNL     1      35.279  25.620  38.498  0.00  0.00    +0.047 A 
ATOM     12  C   UNL     1      34.061  26.414  38.455  0.00  0.00    +0.035 A 
ATOM     32  C   UNL     1      33.844  27.256  37.326  0.00  0.00    +0.024 A 
ATOM     33  C   UNL     1      34.801  27.329  36.250  0.00  0.00    +0.007 A 
ATOM     34  C   UNL     1      36.005  26.549  36.288  0.00  0.00    -0.029 A 
ATOM     35  C   UNL     1      36.999  26.672  35.110  0.00  0.00    +0.045 C 
ENDROOT
BRANCH  10   9
ATOM      4  C   UNL     1      40.683  24.869  39.047  0.00  0.00    +0.077 A 
ATOM      5  C   UNL     1      40.729  26.128  39.733  0.00  0.00    +0.048 A 
ATOM      6  C   UNL     1      39.589  26.957  39.644  0.00  0.00    +0.116 A 
ATOM      7  N   UNL     1      38.490  26.548  38.920  0.00  0.00    -0.223 NA
ATOM      8  C   UNL     1      38.479  25.329  38.268  0.00  0.00    +0.220 A 
ATOM      9  N   UNL     1      37.382  24.894  37.540  0.00  0.00    -0.283 N 
ATOM     36  H   UNL     1      37.417  23.991  37.068  0.00  0.00    +0.155 HD
ATOM     37  N   UNL     1      39.557  24.519  38.337  0.00  0.00    -0.214 NA
BRANCH   4   3
ATOM      1  C   UNL     1      42.999  21.850  39.956  0.00  0.00    +0.020 A 
ATOM      2  C   UNL     1      41.891  22.777  39.997  0.00  0.00    +0.013 A 
ATOM      3  C   UNL     1      41.808  23.881  39.049  0.00  0.00    +0.019 A 
ATOM     38  C   UNL     1      42.871  24.020  38.065  0.00  0.00    +0.120 A 
ATOM     39  N   UNL     1      43.926  23.113  38.051  0.00  0.00    -0.263 NA
ATOM     40  C   UNL     1      44.017  22.048  38.959  0.00  0.00    +0.111 A 
ENDBRANCH   4   3
ENDBRANCH  10   9
BRANCH  12  13
ATOM     13  N   UNL     1      33.063  26.402  39.495  0.00  0.00    -0.281 N 
ATOM     14  C   UNL     1      33.173  26.890  40.787  0.00  0.00    +0.248 C 
ATOM     30  O   UNL     1      34.225  27.220  41.314  0.00  0.00    -0.270 OA
ATOM     31  H   UNL     1      32.166  25.983  39.249  0.00  0.00    +0.155 HD
BRANCH  14  15
ATOM     15  C   UNL     1      31.938  27.014  41.620  0.00  0.00    +0.037 A 
ATOM     16  C   UNL     1      31.994  26.923  43.081  0.00  0.00    +0.013 A 
ATOM     17  C   UNL     1      30.786  27.030  43.859  0.00  0.00    +0.005 A 
ATOM     18  C   UNL     1      29.510  27.231  43.176  0.00  0.00    -0.033 A 
ATOM     28  C   UNL     1      29.484  27.323  41.726  0.00  0.00    +0.005 A 
ATOM     29  C   UNL     1      30.666  27.218  40.960  0.00  0.00    +0.013 A 
BRANCH  18  19
ATOM     19  C   UNL     1      28.168  27.335  43.925  0.00  0.00    +0.119 C 
BRANCH  19  20
ATOM     20  N   UNL     1      27.268  26.143  43.885  0.00  0.00    -0.302 NA
ATOM     21  C   UNL     1      26.094  26.342  42.923  0.00  0.00    +0.066 C 
ATOM     22  C   UNL     1      25.176  25.078  42.876  0.00  0.00    -0.064 C 
ATOM     23  N   UNL     1      24.673  24.763  44.287  0.00  0.00    +0.379 N 
ATOM     24  C   UNL     1      23.764  23.610  44.237  0.00  0.00    -0.096 C 
ATOM     25  H   UNL     1      24.086  25.643  44.640  0.00  0.00    -0.082 HD
ATOM     26  C   UNL     1      25.835  24.567  45.250  0.00  0.00    -0.064 C 
ATOM     27  C   UNL     1      26.757  25.817  45.267  0.00  0.00    +0.066 C 
ENDBRANCH  19  20
ENDBRANCH  18  19
ENDBRANCH  14  15
ENDBRANCH  12  13
TORSDOF 6
ENDMDL
MODEL 4
REMARK VINA RESULT:      -7.4     16.575     18.799
REMARK  Name = C:\Users\Docking\Desktop\test protocol\1iep_ligandH.pdb
REMARK  8 active torsions:
REMARK  status: ('A' for Active; 'I' for Inactive)
REMARK    1  A    between atoms: _5  and  _11
REMARK    2  A    between atoms: _19  and  _21
REMARK    3  A    between atoms: _22  and  _66
REMARK    4  A    between atoms: _27  and  _30
REMARK    5  A    between atoms: _32  and  _33
REMARK    6  A    between atoms: _38  and  _43
REMARK    7  A    between atoms: _43  and  _46
REMARK    8  A    between atoms: _53  and  _55
REMARK                            x       y       z     vdW  Elec       q    Type
REMARK                         _______ _______ _______ _____ _____    ______ ____
ROOT
ATOM     10  C   UNL     1      17.531   3.639  50.592  0.00  0.00    +0.038 A 
ATOM     11  C   UNL     1      17.569   3.949  49.208  0.00  0.00    +0.047 A 
ATOM     12  C   UNL     1      18.198   5.169  48.727  0.00  0.00    +0.035 A 
ATOM     32  C   UNL     1      18.782   6.050  49.683  0.00  0.00    +0.024 A 
ATOM     33  C   UNL     1      18.752   5.752  51.093  0.00  0.00    +0.007 A 
ATOM     34  C   UNL     1      18.130   4.551  51.574  0.00  0.00    -0.029 A 
ATOM     35  C   UNL     1      18.121   4.286  53.097  0.00  0.00    +0.045 C 
ENDROOT
BRANCH  10   9
ATOM      4  C   UNL     1      16.615  -1.045  50.086  0.00  0.00    +0.077 A 
ATOM      5  C   UNL     1      17.411  -1.133  48.896  0.00  0.00    +0.048 A 
ATOM      6  C   UNL     1      18.033   0.052  48.443  0.00  0.00    +0.116 A 
ATOM      7  N   UNL     1      17.866   1.231  49.137  0.00  0.00    -0.223 NA
ATOM      8  C   UNL     1      17.090   1.281  50.280  0.00  0.00    +0.220 A 
ATOM      9  N   UNL     1      16.915   2.454  50.998  0.00  0.00    -0.283 N 
ATOM     36  H   UNL     1      16.329   2.451  51.833  0.00  0.00    +0.155 HD
ATOM     37  N   UNL     1      16.484   0.164  50.732  0.00  0.00    -0.214 NA
BRANCH   4   3
ATOM      1  C   UNL     1      15.249  -4.648  50.760  0.00  0.00    +0.020 A 
ATOM      2  C   UNL     1      15.962  -3.557  50.136  0.00  0.00    +0.013 A 
ATOM      3  C   UNL     1      15.896  -2.211  50.691  0.00  0.00    +0.019 A 
ATOM     38  C   UNL     1      15.096  -2.001  51.888  0.00  0.00    +0.120 A 
ATOM     39  N   UNL     1      14.419  -3.071  52.466  0.00  0.00    -0.263 NA
ATOM     40  C   UNL     1      14.473  -4.370  51.940  0.00  0.00    +0.111 A 
ENDBRANCH   4   3
ENDBRANCH  10   9
BRANCH  12  13
ATOM     13  N   UNL     1      18.260   5.539  47.335  0.00  0.00    -0.281 N 
ATOM     14  C   UNL     1      18.984   4.931  46.322  0.00  0.00    +0.248 C 
ATOM     30  O   UNL     1      19.860   4.098  46.504  0.00  0.00    -0.270 OA
ATOM     31  H   UNL     1      17.703   6.349  47.063  0.00  0.00    +0.155 HD
BRANCH  14  15
ATOM     15  C   UNL     1      18.703   5.312  44.905  0.00  0.00    +0.037 A 
ATOM     16  C   UNL     1      17.669   6.295  44.572  0.00  0.00    +0.013 A 
ATOM     17  C   UNL     1      17.407   6.632  43.195  0.00  0.00    +0.005 A 
ATOM     18  C   UNL     1      18.183   5.985  42.140  0.00  0.00    -0.033 A 
ATOM     28  C   UNL     1      19.206   5.017  42.498  0.00  0.00    +0.005 A 
ATOM     29  C   UNL     1      19.465   4.683  43.846  0.00  0.00    +0.013 A 
BRANCH  18  19
ATOM     19  C   UNL     1      17.956   6.268  40.643  0.00  0.00    +0.119 C 
BRANCH  19  20
ATOM     20  N   UNL     1      16.853   7.207  40.284  0.00  0.00    -0.302 NA
ATOM     21  C   UNL     1      15.883   6.593  39.270  0.00  0.00    +0.066 C 
ATOM     22  C   UNL     1      14.722   7.581  38.923  0.00  0.00    -0.064 C 
ATOM     23  N   UNL     1      15.311   8.887  38.387  0.00  0.00    +0.379 N 
ATOM     24  C   UNL     1      14.220   9.796  38.005  0.00  0.00    -0.096 C 
ATOM     25  H   UNL     1      15.887   8.644  37.464  0.00  0.00    -0.082 HD
ATOM     26  C   UNL     1      16.278   9.503  39.387  0.00  0.00    -0.064 C 
ATOM     27  C   UNL     1      17.411   8.502  39.748  0.00  0.00    +0.066 C 
ENDBRANCH  19  20
ENDBRANCH  18  19
ENDBRANCH  14  15
ENDBRANCH  12  13
TORSDOF 6
ENDMDL
MODEL 5
REMARK VINA RESULT:      -7.3      2.024     12.966
REMARK  Name = C:\Users\Docking\Desktop\test protocol\1iep_ligandH.pdb
REMARK  8 active torsions:
REMARK  status: ('A' for Active; 'I' for Inactive)
REMARK    1  A    between atoms: _5  and  _11
REMARK    2  A    between atoms: _19  and  _21
REMARK    3  A    between atoms: _22  and  _66
REMARK    4  A    between atoms: _27  and  _30
REMARK    5  A    between atoms: _32  and  _33
REMARK    6  A    between atoms: _38  and  _43
REMARK    7  A    between atoms: _43  and  _46
REMARK    8  A    between atoms: _53  and  _55
REMARK                            x       y       z     vdW  Elec       q    Type
REMARK                         _______ _______ _______ _____ _____    ______ ____
ROOT
ATOM     10  C   UNL     1      31.919  -0.582  38.335  0.00  0.00    +0.038 A 
ATOM     11  C   UNL     1      32.805  -0.561  39.443  0.00  0.00    +0.047 A 
ATOM     12  C   UNL     1      33.647  -1.705  39.755  0.00  0.00    +0.035 A 
ATOM     32  C   UNL     1      33.565  -2.854  38.915  0.00  0.00    +0.024 A 
ATOM     33  C   UNL     1      32.670  -2.893  37.785  0.00  0.00    +0.007 A 
ATOM     34  C   UNL     1      31.835  -1.768  37.474  0.00  0.00    -0.029 A 
ATOM     35  C   UNL     1      30.889  -1.868  36.254  0.00  0.00    +0.045 C 
ENDROOT
BRANCH  10   9
ATOM      4  C   UNL     1      31.326   3.875  36.658  0.00  0.00    +0.077 A 
ATOM      5  C   UNL     1      32.705   3.979  36.277  0.00  0.00    +0.048 A 
ATOM      6  C   UNL     1      33.535   2.866  36.537  0.00  0.00    +0.116 A 
ATOM      7  N   UNL     1      33.015   1.738  37.133  0.00  0.00    -0.223 NA
ATOM      8  C   UNL     1      31.680   1.671  37.489  0.00  0.00    +0.220 A 
ATOM      9  N   UNL     1      31.133   0.544  38.082  0.00  0.00    -0.283 N 
ATOM     36  H   UNL     1      30.146   0.537  38.337  0.00  0.00    +0.155 HD
ATOM     37  N   UNL     1      30.867   2.721  37.253  0.00  0.00    -0.214 NA
BRANCH   4   3
ATOM      1  C   UNL     1      29.440   7.298  36.829  0.00  0.00    +0.020 A 
ATOM      2  C   UNL     1      30.437   6.279  37.067  0.00  0.00    +0.013 A 
ATOM      3  C   UNL     1      30.322   4.966  36.446  0.00  0.00    +0.019 A 
ATOM     38  C   UNL     1      29.178   4.713  35.582  0.00  0.00    +0.120 A 
ATOM     39  N   UNL     1      28.234   5.713  35.373  0.00  0.00    -0.263 NA
ATOM     40  C   UNL     1      28.332   6.980  35.967  0.00  0.00    +0.111 A 
ENDBRANCH   4   3
ENDBRANCH  10   9
BRANCH  12  13
ATOM     13  N   UNL     1      34.559  -1.745  40.871  0.00  0.00    -0.281 N 
ATOM     14  C   UNL     1      35.934  -1.577  40.854  0.00  0.00    +0.248 C 
ATOM     30  O   UNL     1      36.618  -1.579  39.842  0.00  0.00    -0.270 OA
ATOM     31  H   UNL     1      34.140  -1.918  41.785  0.00  0.00    +0.155 HD
BRANCH  14  15
ATOM     15  C   UNL     1      36.655  -1.394  42.151  0.00  0.00    +0.037 A 
ATOM     16  C   UNL     1      37.796  -2.241  42.511  0.00  0.00    +0.013 A 
ATOM     17  C   UNL     1      38.463  -2.055  43.776  0.00  0.00    +0.005 A 
ATOM     18  C   UNL     1      37.991  -1.016  44.688  0.00  0.00    -0.033 A 
ATOM     28  C   UNL     1      36.861  -0.187  44.303  0.00  0.00    +0.005 A 
ATOM     29  C   UNL     1      36.204  -0.367  43.065  0.00  0.00    +0.013 A 
BRANCH  18  19
ATOM     19  C   UNL     1      38.630  -0.761  46.067  0.00  0.00    +0.119 C 
BRANCH  19  20
ATOM     20  N   UNL     1      39.577  -1.794  46.583  0.00  0.00    -0.302 NA
ATOM     21  C   UNL     1      38.867  -2.848  47.438  0.00  0.00    +0.066 C 
ATOM     22  C   UNL     1      39.868  -3.933  47.952  0.00  0.00    -0.064 C 
ATOM     23  N   UNL     1      40.987  -3.256  48.745  0.00  0.00    +0.379 N 
ATOM     24  C   UNL     1      41.899  -4.278  49.278  0.00  0.00    -0.096 C 
ATOM     25  H   UNL     1      40.519  -2.735  49.612  0.00  0.00    -0.082 HD
ATOM     26  C   UNL     1      41.696  -2.204  47.903  0.00  0.00    -0.064 C 
ATOM     27  C   UNL     1      40.687  -1.147  47.373  0.00  0.00    +0.066 C 
ENDBRANCH  19  20
ENDBRANCH  18  19
ENDBRANCH  14  15
ENDBRANCH  12  13
TORSDOF 6
ENDMDL
