MODEL 1
REMARK VINA RESULT:      -7.9      0.000      0.000
REMARK  Name = C:\Users\Docking\Desktop\test protocol\1iep_ligandH.pdb
REMARK  8 active torsions:
REMARK  status: ('A' for Active; 'I' for Inactive)
REMARK    1  A    between atoms: _5  and  _11
REMARK    2  A    between atoms: _19  and  _21
REMARK    3  A    between atoms: _22  and  _66
REMARK    4  A    between atoms: _27  and  _30
REMARK    5  A    between atoms: _32  and  _33
REMARK    6  A    between atoms: _38  and  _43
REMARK    7  A    between atoms: _43  and  _46
REMARK    8  A    between atoms: _53  and  _55
REMARK                            x       y       z     vdW  Elec       q    Type
REMARK                         _______ _______ _______ _____ _____    ______ ____
ROOT
ATOM     10  C   UNL     1     -28.201 -26.703  38.336  0.00  0.00    +0.038 A 
ATOM     11  C   UNL     1     -27.615 -25.674  37.556  0.00  0.00    +0.047 A 
ATOM     12  C   UNL     1     -26.218 -25.738  37.153  0.00  0.00    +0.035 A 
ATOM     32  C   UNL     1     -25.449 -26.866  37.561  0.00  0.00    +0.024 A 
ATOM     33  C   UNL     1     -26.028 -27.921  38.355  0.00  0.00    +0.007 A 
ATOM     34  C   UNL     1     -27.405 -27.862  38.757  0.00  0.00    -0.029 A 
ATOM     35  C   UNL     1     -27.972 -29.018  39.614  0.00  0.00    +0.045 C 
ENDROOT
BRANCH  10   9
ATOM      4  C   UNL     1     -32.879 -27.348  37.477  0.00  0.00    +0.077 A 
ATOM      5  C   UNL     1     -32.622 -27.935  36.193  0.00  0.00    +0.048 A 
ATOM      6  C   UNL     1     -31.273 -28.046  35.788  0.00  0.00    +0.116 A 
ATOM      7  N   UNL     1     -30.264 -27.601  36.614  0.00  0.00    -0.223 NA
ATOM      8  C   UNL     1     -30.546 -27.038  37.845  0.00  0.00    +0.220 A 
ATOM      9  N   UNL     1     -29.546 -26.590  38.695  0.00  0.00    -0.283 N 
ATOM     36  H   UNL     1     -29.796 -26.174  39.592  0.00  0.00    +0.155 HD
ATOM     37  N   UNL     1     -31.826 -26.919  38.254  0.00  0.00    -0.214 NA
BRANCH   4   3
ATOM      1  C   UNL     1     -35.951 -27.379  39.898  0.00  0.00    +0.020 A 
ATOM      2  C   UNL     1     -34.611 -27.580  39.396  0.00  0.00    +0.013 A 
ATOM      3  C   UNL     1     -34.251 -27.165  38.046  0.00  0.00    +0.019 A 
ATOM     38  C   UNL     1     -35.279 -26.546  37.223  0.00  0.00    +0.120 A 
ATOM     39  N   UNL     1     -36.562 -26.368  37.732  0.00  0.00    -0.263 NA
ATOM     40  C   UNL     1     -36.919 -26.764  39.030  0.00  0.00    +0.111 A 
ENDBRANCH   4   3
ENDBRANCH  10   9
BRANCH  12  13
ATOM     13  N   UNL     1     -25.566 -24.719  36.368  0.00  0.00    -0.281 N 
ATOM     14  C   UNL     1     -25.397 -24.681  34.994  0.00  0.00    +0.248 C 
ATOM     30  O   UNL     1     -25.594 -25.628  34.247  0.00  0.00    -0.270 OA
ATOM     31  H   UNL     1     -25.184 -23.930  36.889  0.00  0.00    +0.155 HD
BRANCH  14  15
ATOM     15  C   UNL     1     -24.926 -23.413  34.359  0.00  0.00    +0.037 A 
ATOM     16  C   UNL     1     -25.875 -22.434  33.822  0.00  0.00    +0.013 A 
ATOM     17  C   UNL     1     -25.394 -21.227  33.199  0.00  0.00    +0.005 A 
ATOM     18  C   UNL     1     -23.955 -20.990  33.112  0.00  0.00    -0.033 A 
ATOM     28  C   UNL     1     -23.036 -21.975  33.657  0.00  0.00    +0.005 A 
ATOM     29  C   UNL     1     -23.504 -23.160  34.268  0.00  0.00    +0.013 A 
BRANCH  18  19
ATOM     19  C   UNL     1     -23.352 -19.739  32.445  0.00  0.00    +0.119 C 
BRANCH  19  20
ATOM     20  N   UNL     1     -22.545 -19.947  31.206  0.00  0.00    -0.302 NA
ATOM     21  C   UNL     1     -21.151 -19.322  31.317  0.00  0.00    +0.066 C 
ATOM     22  C   UNL     1     -20.313 -19.568  30.020  0.00  0.00    -0.064 C 
ATOM     23  N   UNL     1     -21.065 -19.003  28.815  0.00  0.00    +0.379 N 
ATOM     24  C   UNL     1     -20.253 -19.180  27.602  0.00  0.00    -0.096 C 
ATOM     25  H   UNL     1     -21.192 -17.907  28.979  0.00  0.00    -0.082 HD
ATOM     26  C   UNL     1     -22.453 -19.616  28.699  0.00  0.00    -0.064 C 
ATOM     27  C   UNL     1     -23.268 -19.392  30.003  0.00  0.00    +0.066 C 
ENDBRANCH  19  20
ENDBRANCH  18  19
ENDBRANCH  14  15
ENDBRANCH  12  13
TORSDOF 6
ENDMDL
MODEL 2
REMARK VINA RESULT:      -7.8     14.735     16.404
REMARK  Name = C:\Users\Docking\Desktop\test protocol\1iep_ligandH.pdb
REMARK  8 active torsions:
REMARK  status: ('A' for Active; 'I' for Inactive)
REMARK    1  A    between atoms: _5  and  _11
REMARK    2  A    between atoms: _19  and  _21
REMARK    3  A    between atoms: _22  and  _66
REMARK    4  A    between atoms: _27  and  _30
REMARK    5  A    between atoms: _32  and  _33
REMARK    6  A    between atoms: _38  and  _43
REMARK    7  A    between atoms: _43  and  _46
REMARK    8  A    between atoms: _53  and  _55
REMARK                            x       y       z     vdW  Elec       q    Type
REMARK                         _______ _______ _______ _____ _____    ______ ____
ROOT
ATOM     10  C   UNL     1     -35.622 -31.606  21.183  0.00  0.00    +0.038 A 
ATOM     11  C   UNL     1     -34.556 -30.673  21.229  0.00  0.00    +0.047 A 
ATOM     12  C   UNL     1     -33.462 -30.826  22.176  0.00  0.00    +0.035 A 
ATOM     32  C   UNL     1     -33.486 -31.945  23.060  0.00  0.00    +0.024 A 
ATOM     33  C   UNL     1     -34.563 -32.902  23.027  0.00  0.00    +0.007 A 
ATOM     34  C   UNL     1     -35.646 -32.755  22.097  0.00  0.00    -0.029 A 
ATOM     35  C   UNL     1     -36.778 -33.808  22.110  0.00  0.00    +0.045 C 
ENDROOT
BRANCH  10   9
ATOM      4  C   UNL     1     -39.564 -29.341  19.642  0.00  0.00    +0.077 A 
ATOM      5  C   UNL     1     -39.601 -28.494  20.800  0.00  0.00    +0.048 A 
ATOM      6  C   UNL     1     -38.592 -28.679  21.772  0.00  0.00    +0.116 A 
ATOM      7  N   UNL     1     -37.623 -29.641  21.589  0.00  0.00    -0.223 NA
ATOM      8  C   UNL     1     -37.616 -30.442  20.462  0.00  0.00    +0.220 A 
ATOM      9  N   UNL     1     -36.646 -31.410  20.253  0.00  0.00    -0.283 N 
ATOM     36  H   UNL     1     -36.681 -31.986  19.412  0.00  0.00    +0.155 HD
ATOM     37  N   UNL     1     -38.570 -30.286  19.520  0.00  0.00    -0.214 NA
BRANCH   4   3
ATOM      1  C   UNL     1     -41.930 -30.300  16.679  0.00  0.00    +0.020 A 
ATOM      2  C   UNL     1     -40.965 -30.427  17.746  0.00  0.00    +0.013 A 
ATOM      3  C   UNL     1     -40.559 -29.265  18.526  0.00  0.00    +0.019 A 
ATOM     38  C   UNL     1     -41.153 -27.978  18.198  0.00  0.00    +0.120 A 
ATOM     39  N   UNL     1     -42.079 -27.885  17.164  0.00  0.00    -0.263 NA
ATOM     40  C   UNL     1     -42.476 -28.997  16.406  0.00  0.00    +0.111 A 
ENDBRANCH   4   3
ENDBRANCH  10   9
BRANCH  12  13
ATOM     13  N   UNL     1     -32.356 -29.907  22.275  0.00  0.00    -0.281 N 
ATOM     14  C   UNL     1     -32.303 -28.710  22.971  0.00  0.00    +0.248 C 
ATOM     30  O   UNL     1     -33.276 -28.142  23.444  0.00  0.00    -0.270 OA
ATOM     31  H   UNL     1     -31.510 -30.169  21.770  0.00  0.00    +0.155 HD
BRANCH  14  15
ATOM     15  C   UNL     1     -30.980 -28.041  23.158  0.00  0.00    +0.037 A 
ATOM     16  C   UNL     1     -29.781 -28.811  23.501  0.00  0.00    +0.013 A 
ATOM     17  C   UNL     1     -28.520 -28.138  23.691  0.00  0.00    +0.005 A 
ATOM     18  C   UNL     1     -28.452 -26.687  23.538  0.00  0.00    -0.033 A 
ATOM     28  C   UNL     1     -29.655 -25.949  23.192  0.00  0.00    +0.005 A 
ATOM     29  C   UNL     1     -30.893 -26.605  23.005  0.00  0.00    +0.013 A 
BRANCH  18  19
ATOM     19  C   UNL     1     -27.154 -25.884  23.743  0.00  0.00    +0.119 C 
BRANCH  19  20
ATOM     20  N   UNL     1     -27.198 -24.749  24.712  0.00  0.00    -0.302 NA
ATOM     21  C   UNL     1     -26.882 -23.409  24.042  0.00  0.00    +0.066 C 
ATOM     22  C   UNL     1     -26.955 -22.229  25.065  0.00  0.00    -0.064 C 
ATOM     23  N   UNL     1     -25.988 -22.498  26.219  0.00  0.00    +0.379 N 
ATOM     24  C   UNL     1     -26.011 -21.364  27.154  0.00  0.00    -0.096 C 
ATOM     25  H   UNL     1     -24.961 -22.563  25.791  0.00  0.00    -0.082 HD
ATOM     26  C   UNL     1     -26.293 -23.830  26.890  0.00  0.00    -0.064 C 
ATOM     27  C   UNL     1     -26.247 -24.992  25.858  0.00  0.00    +0.066 C 
ENDBRANCH  19  20
ENDBRANCH  18  19
ENDBRANCH  14  15
ENDBRANCH  12  13
TORSDOF 6
ENDMDL
MODEL 3
REMARK VINA RESULT:      -7.8     18.706     21.332
REMARK  Name = C:\Users\Docking\Desktop\test protocol\1iep_ligandH.pdb
REMARK  8 active torsions:
REMARK  status: ('A' for Active; 'I' for Inactive)
REMARK    1  A    between atoms: _5  and  _11
REMARK    2  A    between atoms: _19  and  _21
REMARK    3  A    between atoms: _22  and  _66
REMARK    4  A    between atoms: _27  and  _30
REMARK    5  A    between atoms: _32  and  _33
REMARK    6  A    between atoms: _38  and  _43
REMARK    7  A    between atoms: _43  and  _46
REMARK    8  A    between atoms: _53  and  _55
REMARK                            x       y       z     vdW  Elec       q    Type
REMARK                         _______ _______ _______ _____ _____    ______ ____
ROOT
ATOM     10  C   UNL     1     -42.363 -15.954  29.910  0.00  0.00    +0.038 A 
ATOM     11  C   UNL     1     -42.371 -15.325  28.639  0.00  0.00    +0.047 A 
ATOM     12  C   UNL     1     -43.127 -15.883  27.528  0.00  0.00    +0.035 A 
ATOM     32  C   UNL     1     -43.865 -17.082  27.748  0.00  0.00    +0.024 A 
ATOM     33  C   UNL     1     -43.866 -17.736  29.033  0.00  0.00    +0.007 A 
ATOM     34  C   UNL     1     -43.121 -17.191  30.132  0.00  0.00    -0.029 A 
ATOM     35  C   UNL     1     -43.153 -17.938  31.485  0.00  0.00    +0.045 C 
ENDROOT
BRANCH  10   9
ATOM      4  C   UNL     1     -41.822 -12.783  33.472  0.00  0.00    +0.077 A 
ATOM      5  C   UNL     1     -43.119 -12.214  33.241  0.00  0.00    +0.048 A 
ATOM      6  C   UNL     1     -43.891 -12.762  32.192  0.00  0.00    +0.116 A 
ATOM      7  N   UNL     1     -43.393 -13.801  31.436  0.00  0.00    -0.223 NA
ATOM      8  C   UNL     1     -42.137 -14.325  31.684  0.00  0.00    +0.220 A 
ATOM      9  N   UNL     1     -41.620 -15.375  30.941  0.00  0.00    -0.283 N 
ATOM     36  H   UNL     1     -40.687 -15.729  31.150  0.00  0.00    +0.155 HD
ATOM     37  N   UNL     1     -41.380 -13.819  32.679  0.00  0.00    -0.214 NA
BRANCH   4   3
ATOM      1  C   UNL     1     -40.356 -10.977  36.617  0.00  0.00    +0.020 A 
ATOM      2  C   UNL     1     -41.296 -11.398  35.603  0.00  0.00    +0.013 A 
ATOM      3  C   UNL     1     -40.890 -12.315  34.546  0.00  0.00    +0.019 A 
ATOM     38  C   UNL     1     -39.516 -12.793  34.543  0.00  0.00    +0.120 A 
ATOM     39  N   UNL     1     -38.633 -12.370  35.532  0.00  0.00    -0.263 NA
ATOM     40  C   UNL     1     -39.011 -11.486  36.553  0.00  0.00    +0.111 A 
ENDBRANCH   4   3
ENDBRANCH  10   9
BRANCH  12  13
ATOM     13  N   UNL     1     -43.167 -15.292  26.213  0.00  0.00    -0.281 N 
ATOM     14  C   UNL     1     -44.193 -14.559  25.640  0.00  0.00    +0.248 C 
ATOM     30  O   UNL     1     -45.324 -14.480  26.095  0.00  0.00    -0.270 OA
ATOM     31  H   UNL     1     -42.338 -15.432  25.635  0.00  0.00    +0.155 HD
BRANCH  14  15
ATOM     15  C   UNL     1     -43.927 -13.817  24.369  0.00  0.00    +0.037 A 
ATOM     16  C   UNL     1     -44.548 -14.227  23.107  0.00  0.00    +0.013 A 
ATOM     17  C   UNL     1     -44.262 -13.505  21.893  0.00  0.00    +0.005 A 
ATOM     18  C   UNL     1     -43.351 -12.363  21.936  0.00  0.00    -0.033 A 
ATOM     28  C   UNL     1     -42.753 -11.975  23.203  0.00  0.00    +0.005 A 
ATOM     29  C   UNL     1     -43.031 -12.682  24.395  0.00  0.00    +0.013 A 
BRANCH  18  19
ATOM     19  C   UNL     1     -42.972 -11.548  20.686  0.00  0.00    +0.119 C 
BRANCH  19  20
ATOM     20  N   UNL     1     -42.067 -10.376  20.882  0.00  0.00    -0.302 NA
ATOM     21  C   UNL     1     -42.759  -9.052  20.545  0.00  0.00    +0.066 C 
ATOM     22  C   UNL     1     -41.805  -7.836  20.777  0.00  0.00    -0.064 C 
ATOM     23  N   UNL     1     -40.540  -8.015  19.936  0.00  0.00    +0.379 N 
ATOM     24  C   UNL     1     -39.667  -6.845  20.108  0.00  0.00    -0.096 C 
ATOM     25  H   UNL     1     -40.848  -8.053  18.866  0.00  0.00    -0.082 HD
ATOM     26  C   UNL     1     -39.847  -9.330  20.264  0.00  0.00    -0.064 C 
ATOM     27  C   UNL     1     -40.812 -10.530  20.057  0.00  0.00    +0.066 C 
ENDBRANCH  19  20
ENDBRANCH  18  19
ENDBRANCH  14  15
ENDBRANCH  12  13
TORSDOF 6
ENDMDL
MODEL 4
REMARK VINA RESULT:      -7.8     17.553     21.984
REMARK  Name = C:\Users\Docking\Desktop\test protocol\1iep_ligandH.pdb
REMARK  8 active torsions:
REMARK  status: ('A' for Active; 'I' for Inactive)
REMARK    1  A    between atoms: _5  and  _11
REMARK    2  A    between atoms: _19  and  _21
REMARK    3  A    between atoms: _22  and  _66
REMARK    4  A    between atoms: _27  and  _30
REMARK    5  A    between atoms: _32  and  _33
REMARK    6  A    between atoms: _38  and  _43
REMARK    7  A    between atoms: _43  and  _46
REMARK    8  A    between atoms: _53  and  _55
REMARK                            x       y       z     vdW  Elec       q    Type
REMARK                         _______ _______ _______ _____ _____    ______ ____
ROOT
ATOM     10  C   UNL     1     -32.431  -6.135  33.278  0.00  0.00    +0.038 A 
ATOM     11  C   UNL     1     -33.325  -7.072  33.854  0.00  0.00    +0.047 A 
ATOM     12  C   UNL     1     -34.734  -7.091  33.489  0.00  0.00    +0.035 A 
ATOM     32  C   UNL     1     -35.196  -6.141  32.533  0.00  0.00    +0.024 A 
ATOM     33  C   UNL     1     -34.300  -5.180  31.938  0.00  0.00    +0.007 A 
ATOM     34  C   UNL     1     -32.911  -5.155  32.296  0.00  0.00    -0.029 A 
ATOM     35  C   UNL     1     -31.998  -4.099  31.631  0.00  0.00    +0.045 C 
ENDROOT
BRANCH  10   9
ATOM      4  C   UNL     1     -28.872  -5.017  36.299  0.00  0.00    +0.077 A 
ATOM      5  C   UNL     1     -29.757  -4.294  37.167  0.00  0.00    +0.048 A 
ATOM      6  C   UNL     1     -31.118  -4.227  36.796  0.00  0.00    +0.116 A 
ATOM      7  N   UNL     1     -31.552  -4.842  35.642  0.00  0.00    -0.223 NA
ATOM      8  C   UNL     1     -30.673  -5.530  34.826  0.00  0.00    +0.220 A 
ATOM      9  N   UNL     1     -31.089  -6.162  33.665  0.00  0.00    -0.283 N 
ATOM     36  H   UNL     1     -30.407  -6.653  33.086  0.00  0.00    +0.155 HD
ATOM     37  N   UNL     1     -29.367  -5.606  35.157  0.00  0.00    -0.214 NA
BRANCH   4   3
ATOM      1  C   UNL     1     -25.402  -5.276  38.085  0.00  0.00    +0.020 A 
ATOM      2  C   UNL     1     -26.824  -5.112  37.891  0.00  0.00    +0.013 A 
ATOM      3  C   UNL     1     -27.406  -5.179  36.556  0.00  0.00    +0.019 A 
ATOM     38  C   UNL     1     -26.515  -5.414  35.431  0.00  0.00    +0.120 A 
ATOM     39  N   UNL     1     -25.149  -5.567  35.648  0.00  0.00    -0.263 NA
ATOM     40  C   UNL     1     -24.577  -5.503  36.928  0.00  0.00    +0.111 A 
ENDBRANCH   4   3
ENDBRANCH  10   9
BRANCH  12  13
ATOM     13  N   UNL     1     -35.691  -8.014  34.047  0.00  0.00    -0.281 N 
ATOM     14  C   UNL     1     -36.125  -8.102  35.359  0.00  0.00    +0.248 C 
ATOM     30  O   UNL     1     -35.593  -7.535  36.302  0.00  0.00    -0.270 OA
ATOM     31  H   UNL     1     -36.098  -8.684  33.394  0.00  0.00    +0.155 HD
BRANCH  14  15
ATOM     15  C   UNL     1     -37.312  -8.954  35.672  0.00  0.00    +0.037 A 
ATOM     16  C   UNL     1     -37.164 -10.244  36.350  0.00  0.00    +0.013 A 
ATOM     17  C   UNL     1     -38.324 -11.055  36.624  0.00  0.00    +0.005 A 
ATOM     18  C   UNL     1     -39.644 -10.575  36.221  0.00  0.00    -0.033 A 
ATOM     28  C   UNL     1     -39.763  -9.288  35.555  0.00  0.00    +0.005 A 
ATOM     29  C   UNL     1     -38.628  -8.492  35.284  0.00  0.00    +0.013 A 
BRANCH  18  19
ATOM     19  C   UNL     1     -40.935 -11.382  36.455  0.00  0.00    +0.119 C 
BRANCH  19  20
ATOM     20  N   UNL     1     -41.510 -12.106  35.282  0.00  0.00    -0.302 NA
ATOM     21  C   UNL     1     -40.440 -12.464  34.246  0.00  0.00    +0.066 C 
ATOM     22  C   UNL     1     -41.055 -13.241  33.037  0.00  0.00    -0.064 C 
ATOM     23  N   UNL     1     -42.162 -12.397  32.402  0.00  0.00    +0.379 N 
ATOM     24  C   UNL     1     -42.703 -13.099  31.230  0.00  0.00    -0.096 C 
ATOM     25  H   UNL     1     -41.700 -11.447  32.045  0.00  0.00    -0.082 HD
ATOM     26  C   UNL     1     -43.229 -12.034  33.426  0.00  0.00    -0.064 C 
ATOM     27  C   UNL     1     -42.602 -11.289  34.637  0.00  0.00    +0.066 C 
ENDBRANCH  19  20
ENDBRANCH  18  19
ENDBRANCH  14  15
ENDBRANCH  12  13
TORSDOF 6
ENDMDL
MODEL 5
REMARK VINA RESULT:      -7.6     29.708     34.394
REMARK  Name = C:\Users\Docking\Desktop\test protocol\1iep_ligandH.pdb
REMARK  8 active torsions:
REMARK  status: ('A' for Active; 'I' for Inactive)
REMARK    1  A    between atoms: _5  and  _11
REMARK    2  A    between atoms: _19  and  _21
REMARK    3  A    between atoms: _22  and  _66
REMARK    4  A    between atoms: _27  and  _30
REMARK    5  A    between atoms: _32  and  _33
REMARK    6  A    between atoms: _38  and  _43
REMARK    7  A    between atoms: _43  and  _46
REMARK    8  A    between atoms: _53  and  _55
REMARK                            x       y       z     vdW  Elec       q    Type
REMARK                         _______ _______ _______ _____ _____    ______ ____
ROOT
ATOM     10  C   UNL     1     -33.710 -13.286   7.361  0.00  0.00    +0.038 A 
ATOM     11  C   UNL     1     -33.812 -14.292   6.367  0.00  0.00    +0.047 A 
ATOM     12  C   UNL     1     -35.074 -14.562   5.696  0.00  0.00    +0.035 A 
ATOM     32  C   UNL     1     -36.213 -13.786   6.061  0.00  0.00    +0.024 A 
ATOM     33  C   UNL     1     -36.127 -12.760   7.071  0.00  0.00    +0.007 A 
ATOM     34  C   UNL     1     -34.885 -12.491   7.737  0.00  0.00    -0.029 A 
ATOM     35  C   UNL     1     -34.853 -11.384   8.817  0.00  0.00    +0.045 C 
ENDROOT
BRANCH  10   9
ATOM      4  C   UNL     1     -29.408 -11.168   7.577  0.00  0.00    +0.077 A 
ATOM      5  C   UNL     1     -29.633 -10.453   6.354  0.00  0.00    +0.048 A 
ATOM      6  C   UNL     1     -30.866 -10.663   5.697  0.00  0.00    +0.116 A 
ATOM      7  N   UNL     1     -31.797 -11.527   6.232  0.00  0.00    -0.223 NA
ATOM      8  C   UNL     1     -31.548 -12.202   7.412  0.00  0.00    +0.220 A 
ATOM      9  N   UNL     1     -32.473 -13.069   7.973  0.00  0.00    -0.283 N 
ATOM     36  H   UNL     1     -32.248 -13.554   8.841  0.00  0.00    +0.155 HD
ATOM     37  N   UNL     1     -30.377 -12.019   8.059  0.00  0.00    -0.214 NA
BRANCH   4   3
ATOM      1  C   UNL     1     -26.534  -9.749   9.819  0.00  0.00    +0.020 A 
ATOM      2  C   UNL     1     -27.753  -9.811   9.046  0.00  0.00    +0.013 A 
ATOM      3  C   UNL     1     -28.157 -11.048   8.390  0.00  0.00    +0.019 A 
ATOM     38  C   UNL     1     -27.299 -12.215   8.539  0.00  0.00    +0.120 A 
ATOM     39  N   UNL     1     -26.130 -12.125   9.289  0.00  0.00    -0.263 NA
ATOM     40  C   UNL     1     -25.731 -10.939   9.923  0.00  0.00    +0.111 A 
ENDBRANCH   4   3
ENDBRANCH  10   9
BRANCH  12  13
ATOM     13  N   UNL     1     -35.241 -15.576   4.685  0.00  0.00    -0.281 N 
ATOM     14  C   UNL     1     -34.763 -15.568   3.384  0.00  0.00    +0.248 C 
ATOM     30  O   UNL     1     -34.300 -14.586   2.824  0.00  0.00    -0.270 OA
ATOM     31  H   UNL     1     -35.775 -16.400   4.961  0.00  0.00    +0.155 HD
BRANCH  14  15
ATOM     15  C   UNL     1     -34.823 -16.830   2.585  0.00  0.00    +0.037 A 
ATOM     16  C   UNL     1     -34.245 -16.906   1.241  0.00  0.00    +0.013 A 
ATOM     17  C   UNL     1     -34.331 -18.131   0.485  0.00  0.00    +0.005 A 
ATOM     18  C   UNL     1     -34.998 -19.290   1.074  0.00  0.00    -0.033 A 
ATOM     28  C   UNL     1     -35.558 -19.188   2.411  0.00  0.00    +0.005 A 
ATOM     29  C   UNL     1     -35.476 -17.989   3.154  0.00  0.00    +0.013 A 
BRANCH  18  19
ATOM     19  C   UNL     1     -35.155 -20.630   0.331  0.00  0.00    +0.119 C 
BRANCH  19  20
ATOM     20  N   UNL     1     -34.122 -20.970  -0.692  0.00  0.00    -0.302 NA
ATOM     21  C   UNL     1     -34.652 -20.804  -2.120  0.00  0.00    +0.066 C 
ATOM     22  C   UNL     1     -33.551 -21.142  -3.178  0.00  0.00    -0.064 C 
ATOM     23  N   UNL     1     -33.049 -22.569  -2.949  0.00  0.00    +0.379 N 
ATOM     24  C   UNL     1     -32.056 -22.910  -3.978  0.00  0.00    -0.096 C 
ATOM     25  H   UNL     1     -33.917 -23.257  -3.075  0.00  0.00    -0.082 HD
ATOM     26  C   UNL     1     -32.523 -22.743  -1.531  0.00  0.00    -0.064 C 
ATOM     27  C   UNL     1     -33.615 -22.377  -0.488  0.00  0.00    +0.066 C 
ENDBRANCH  19  20
ENDBRANCH  18  19
ENDBRANCH  14  15
ENDBRANCH  12  13
TORSDOF 6
ENDMDL
