MODEL 1
REMARK VINA RESULT:      -7.9      0.000      0.000
REMARK  Name = C:\Users\Docking\Desktop\test protocol\1iep_ligandH.pdb
REMARK  8 active torsions:
REMARK  status: ('A' for Active; 'I' for Inactive)
REMARK    1  A    between atoms: _5  and  _11
REMARK    2  A    between atoms: _19  and  _21
REMARK    3  A    between atoms: _22  and  _66
REMARK    4  A    between atoms: _27  and  _30
REMARK    5  A    between atoms: _32  and  _33
REMARK    6  A    between atoms: _38  and  _43
REMARK    7  A    between atoms: _43  and  _46
REMARK    8  A    between atoms: _53  and  _55
REMARK                            x       y       z     vdW  Elec       q    Type
REMARK                         _______ _______ _______ _____ _____    ______ ____
ROOT
ATOM     10  C   UNL     1      -6.715  -7.239 -33.092  0.00  0.00    +0.038 A 
ATOM     11  C   UNL     1      -5.957  -6.096 -32.731  0.00  0.00    +0.047 A 
ATOM     12  C   UNL     1      -4.505  -6.150 -32.652  0.00  0.00    +0.035 A 
ATOM     32  C   UNL     1      -3.858  -7.384 -32.951  0.00  0.00    +0.024 A 
ATOM     33  C   UNL     1      -4.612  -8.556 -33.319  0.00  0.00    +0.007 A 
ATOM     34  C   UNL     1      -6.045  -8.510 -33.396  0.00  0.00    -0.029 A 
ATOM     35  C   UNL     1      -6.803  -9.799 -33.789  0.00  0.00    +0.045 C 
ENDROOT
BRANCH  10   9
ATOM      4  C   UNL     1     -11.085  -7.738 -31.172  0.00  0.00    +0.077 A 
ATOM      5  C   UNL     1     -10.553  -8.285 -29.957  0.00  0.00    +0.048 A 
ATOM      6  C   UNL     1      -9.151  -8.428 -29.869  0.00  0.00    +0.116 A 
ATOM      7  N   UNL     1      -8.349  -8.049 -30.924  0.00  0.00    -0.223 NA
ATOM      8  C   UNL     1      -8.894  -7.527 -32.082  0.00  0.00    +0.220 A 
ATOM      9  N   UNL     1      -8.106  -7.131 -33.152  0.00  0.00    -0.283 N 
ATOM     36  H   UNL     1      -8.547  -6.758 -33.992  0.00  0.00    +0.155 HD
ATOM     37  N   UNL     1     -10.231  -7.381 -32.191  0.00  0.00    -0.214 NA
BRANCH   4   3
ATOM      1  C   UNL     1     -14.506  -6.953 -32.898  0.00  0.00    +0.020 A 
ATOM      2  C   UNL     1     -13.087  -7.149 -32.716  0.00  0.00    +0.013 A 
ATOM      3  C   UNL     1     -12.547  -7.523 -31.415  0.00  0.00    +0.019 A 
ATOM     38  C   UNL     1     -13.478  -7.692 -30.310  0.00  0.00    +0.120 A 
ATOM     39  N   UNL     1     -14.840  -7.496 -30.514  0.00  0.00    -0.263 NA
ATOM     40  C   UNL     1     -15.371  -7.134 -31.761  0.00  0.00    +0.111 A 
ENDBRANCH   4   3
ENDBRANCH  10   9
BRANCH  12  13
ATOM     13  N   UNL     1      -3.684  -5.024 -32.283  0.00  0.00    -0.281 N 
ATOM     14  C   UNL     1      -3.189  -4.025 -33.105  0.00  0.00    +0.248 C 
ATOM     30  O   UNL     1      -3.201  -4.065 -34.327  0.00  0.00    -0.270 OA
ATOM     31  H   UNL     1      -3.437  -4.955 -31.296  0.00  0.00    +0.155 HD
BRANCH  14  15
ATOM     15  C   UNL     1      -2.579  -2.811 -32.481  0.00  0.00    +0.037 A 
ATOM     16  C   UNL     1      -1.141  -2.736 -32.211  0.00  0.00    +0.013 A 
ATOM     17  C   UNL     1      -0.581  -1.561 -31.592  0.00  0.00    +0.005 A 
ATOM     18  C   UNL     1      -1.462  -0.450 -31.239  0.00  0.00    -0.033 A 
ATOM     28  C   UNL     1      -2.884  -0.548 -31.522  0.00  0.00    +0.005 A 
ATOM     29  C   UNL     1      -3.436  -1.699 -32.128  0.00  0.00    +0.013 A 
BRANCH  18  19
ATOM     19  C   UNL     1      -0.954   0.834 -30.556  0.00  0.00    +0.119 C 
BRANCH  19  20
ATOM     20  N   UNL     1      -0.024   1.703 -31.338  0.00  0.00    -0.302 NA
ATOM     21  C   UNL     1       1.222   2.080 -30.532  0.00  0.00    +0.066 C 
ATOM     22  C   UNL     1       2.196   2.970 -31.372  0.00  0.00    -0.064 C 
ATOM     23  N   UNL     1       1.457   4.223 -31.846  0.00  0.00    +0.379 N 
ATOM     24  C   UNL     1       2.385   5.089 -32.587  0.00  0.00    -0.096 C 
ATOM     25  H   UNL     1       1.123   4.781 -30.940  0.00  0.00    -0.082 HD
ATOM     26  C   UNL     1       0.214   3.856 -32.645  0.00  0.00    -0.064 C 
ATOM     27  C   UNL     1      -0.732   2.948 -31.812  0.00  0.00    +0.066 C 
ENDBRANCH  19  20
ENDBRANCH  18  19
ENDBRANCH  14  15
ENDBRANCH  12  13
TORSDOF 6
ENDMDL
MODEL 2
REMARK VINA RESULT:      -7.8     10.504     15.103
REMARK  Name = C:\Users\Docking\Desktop\test protocol\1iep_ligandH.pdb
REMARK  8 active torsions:
REMARK  status: ('A' for Active; 'I' for Inactive)
REMARK    1  A    between atoms: _5  and  _11
REMARK    2  A    between atoms: _19  and  _21
REMARK    3  A    between atoms: _22  and  _66
REMARK    4  A    between atoms: _27  and  _30
REMARK    5  A    between atoms: _32  and  _33
REMARK    6  A    between atoms: _38  and  _43
REMARK    7  A    between atoms: _43  and  _46
REMARK    8  A    between atoms: _53  and  _55
REMARK                            x       y       z     vdW  Elec       q    Type
REMARK                         _______ _______ _______ _____ _____    ______ ____
ROOT
ATOM     10  C   UNL     1     -14.081 -18.228 -35.181  0.00  0.00    +0.038 A 
ATOM     11  C   UNL     1     -13.925 -16.939 -34.610  0.00  0.00    +0.047 A 
ATOM     12  C   UNL     1     -12.607 -16.352 -34.427  0.00  0.00    +0.035 A 
ATOM     32  C   UNL     1     -11.469 -17.104 -34.839  0.00  0.00    +0.024 A 
ATOM     33  C   UNL     1     -11.609 -18.417 -35.420  0.00  0.00    +0.007 A 
ATOM     34  C   UNL     1     -12.907 -19.002 -35.600  0.00  0.00    -0.029 A 
ATOM     35  C   UNL     1     -12.997 -20.415 -36.223  0.00  0.00    +0.045 C 
ENDROOT
BRANCH  10   9
ATOM      4  C   UNL     1     -18.174 -18.733 -37.636  0.00  0.00    +0.077 A 
ATOM      5  C   UNL     1     -17.716 -17.877 -38.691  0.00  0.00    +0.048 A 
ATOM      6  C   UNL     1     -16.424 -17.320 -38.561  0.00  0.00    +0.116 A 
ATOM      7  N   UNL     1     -15.656 -17.607 -37.453  0.00  0.00    -0.223 NA
ATOM      8  C   UNL     1     -16.129 -18.435 -36.452  0.00  0.00    +0.220 A 
ATOM      9  N   UNL     1     -15.370 -18.743 -35.333  0.00  0.00    -0.283 N 
ATOM     36  H   UNL     1     -15.758 -19.353 -34.613  0.00  0.00    +0.155 HD
ATOM     37  N   UNL     1     -17.360 -18.978 -36.553  0.00  0.00    -0.214 NA
BRANCH   4   3
ATOM      1  C   UNL     1     -21.082 -21.267 -36.982  0.00  0.00    +0.020 A 
ATOM      2  C   UNL     1     -19.768 -20.666 -36.957  0.00  0.00    +0.013 A 
ATOM      3  C   UNL     1     -19.515 -19.399 -37.631  0.00  0.00    +0.019 A 
ATOM     38  C   UNL     1     -20.622 -18.760 -38.326  0.00  0.00    +0.120 A 
ATOM     39  N   UNL     1     -21.876 -19.363 -38.334  0.00  0.00    -0.263 NA
ATOM     40  C   UNL     1     -22.131 -20.583 -37.691  0.00  0.00    +0.111 A 
ENDBRANCH   4   3
ENDBRANCH  10   9
BRANCH  12  13
ATOM     13  N   UNL     1     -12.386 -15.051 -33.846  0.00  0.00    -0.281 N 
ATOM     14  C   UNL     1     -12.392 -13.821 -34.484  0.00  0.00    +0.248 C 
ATOM     30  O   UNL     1     -12.377 -13.671 -35.696  0.00  0.00    -0.270 OA
ATOM     31  H   UNL     1     -12.203 -15.034 -32.842  0.00  0.00    +0.155 HD
BRANCH  14  15
ATOM     15  C   UNL     1     -12.402 -12.577 -33.654  0.00  0.00    +0.037 A 
ATOM     16  C   UNL     1     -11.154 -11.955 -33.203  0.00  0.00    +0.013 A 
ATOM     17  C   UNL     1     -11.192 -10.766 -32.390  0.00  0.00    +0.005 A 
ATOM     18  C   UNL     1     -12.484 -10.189 -32.024  0.00  0.00    -0.033 A 
ATOM     28  C   UNL     1     -13.706 -10.824 -32.490  0.00  0.00    +0.005 A 
ATOM     29  C   UNL     1     -13.672 -11.991 -33.286  0.00  0.00    +0.013 A 
BRANCH  18  19
ATOM     19  C   UNL     1     -12.620  -8.934 -31.142  0.00  0.00    +0.119 C 
BRANCH  19  20
ATOM     20  N   UNL     1     -12.013  -8.987 -29.779  0.00  0.00    -0.302 NA
ATOM     21  C   UNL     1     -12.506 -10.195 -28.977  0.00  0.00    +0.066 C 
ATOM     22  C   UNL     1     -11.844 -10.247 -27.562  0.00  0.00    -0.064 C 
ATOM     23  N   UNL     1     -12.138  -8.945 -26.815  0.00  0.00    +0.379 N 
ATOM     24  C   UNL     1     -11.566  -9.015 -25.463  0.00  0.00    -0.096 C 
ATOM     25  H   UNL     1     -13.245  -8.858 -26.711  0.00  0.00    -0.082 HD
ATOM     26  C   UNL     1     -11.653  -7.739 -27.607  0.00  0.00    -0.064 C 
ATOM     27  C   UNL     1     -12.295  -7.712 -29.022  0.00  0.00    +0.066 C 
ENDBRANCH  19  20
ENDBRANCH  18  19
ENDBRANCH  14  15
ENDBRANCH  12  13
TORSDOF 6
ENDMDL
MODEL 3
REMARK VINA RESULT:      -7.8     27.364     30.124
REMARK  Name = C:\Users\Docking\Desktop\test protocol\1iep_ligandH.pdb
REMARK  8 active torsions:
REMARK  status: ('A' for Active; 'I' for Inactive)
REMARK    1  A    between atoms: _5  and  _11
REMARK    2  A    between atoms: _19  and  _21
REMARK    3  A    between atoms: _22  and  _66
REMARK    4  A    between atoms: _27  and  _30
REMARK    5  A    between atoms: _32  and  _33
REMARK    6  A    between atoms: _38  and  _43
REMARK    7  A    between atoms: _43  and  _46
REMARK    8  A    between atoms: _53  and  _55
REMARK                            x       y       z     vdW  Elec       q    Type
REMARK                         _______ _______ _______ _____ _____    ______ ____
ROOT
ATOM     10  C   UNL     1     -14.735  22.968 -34.762  0.00  0.00    +0.038 A 
ATOM     11  C   UNL     1     -14.387  23.846 -33.705  0.00  0.00    +0.047 A 
ATOM     12  C   UNL     1     -13.028  24.344 -33.556  0.00  0.00    +0.035 A 
ATOM     32  C   UNL     1     -12.049  23.928 -34.504  0.00  0.00    +0.024 A 
ATOM     33  C   UNL     1     -12.385  23.034 -35.585  0.00  0.00    +0.007 A 
ATOM     34  C   UNL     1     -13.723  22.538 -35.735  0.00  0.00    -0.029 A 
ATOM     35  C   UNL     1     -14.025  21.577 -36.909  0.00  0.00    +0.045 C 
ENDROOT
BRANCH  10   9
ATOM      4  C   UNL     1     -18.446  20.363 -33.188  0.00  0.00    +0.077 A 
ATOM      5  C   UNL     1     -17.683  19.826 -32.098  0.00  0.00    +0.048 A 
ATOM      6  C   UNL     1     -16.337  20.240 -31.982  0.00  0.00    +0.116 A 
ATOM      7  N   UNL     1     -15.804  21.125 -32.894  0.00  0.00    -0.223 NA
ATOM      8  C   UNL     1     -16.567  21.623 -33.934  0.00  0.00    +0.220 A 
ATOM      9  N   UNL     1     -16.055  22.521 -34.858  0.00  0.00    -0.283 N 
ATOM     36  H   UNL     1     -16.648  22.859 -35.615  0.00  0.00    +0.155 HD
ATOM     37  N   UNL     1     -17.855  21.242 -34.067  0.00  0.00    -0.214 NA
BRANCH   4   3
ATOM      1  C   UNL     1     -22.299  20.653 -33.797  0.00  0.00    +0.020 A 
ATOM      2  C   UNL     1     -20.927  21.033 -33.551  0.00  0.00    +0.013 A 
ATOM      3  C   UNL     1     -19.882  20.024 -33.441  0.00  0.00    +0.019 A 
ATOM     38  C   UNL     1     -20.261  18.626 -33.588  0.00  0.00    +0.120 A 
ATOM     39  N   UNL     1     -21.590  18.290 -33.823  0.00  0.00    -0.263 NA
ATOM     40  C   UNL     1     -22.605  19.253 -33.929  0.00  0.00    +0.111 A 
ENDBRANCH   4   3
ENDBRANCH  10   9
BRANCH  12  13
ATOM     13  N   UNL     1     -12.614  25.231 -32.498  0.00  0.00    -0.281 N 
ATOM     14  C   UNL     1     -11.839  24.932 -31.389  0.00  0.00    +0.248 C 
ATOM     30  O   UNL     1     -11.560  23.799 -31.026  0.00  0.00    -0.270 OA
ATOM     31  H   UNL     1     -12.931  26.198 -32.575  0.00  0.00    +0.155 HD
BRANCH  14  15
ATOM     15  C   UNL     1     -11.309  26.053 -30.555  0.00  0.00    +0.037 A 
ATOM     16  C   UNL     1     -10.828  25.823 -29.190  0.00  0.00    +0.013 A 
ATOM     17  C   UNL     1     -10.338  26.925 -28.400  0.00  0.00    +0.005 A 
ATOM     18  C   UNL     1     -10.325  28.268 -28.975  0.00  0.00    -0.033 A 
ATOM     28  C   UNL     1     -10.803  28.467 -30.334  0.00  0.00    +0.005 A 
ATOM     29  C   UNL     1     -11.285  27.389 -31.110  0.00  0.00    +0.013 A 
BRANCH  18  19
ATOM     19  C   UNL     1      -9.839  29.505 -28.198  0.00  0.00    +0.119 C 
BRANCH  19  20
ATOM     20  N   UNL     1     -10.091  29.531 -26.727  0.00  0.00    -0.302 NA
ATOM     21  C   UNL     1     -11.167  30.551 -26.346  0.00  0.00    +0.066 C 
ATOM     22  C   UNL     1     -11.434  30.549 -24.805  0.00  0.00    -0.064 C 
ATOM     23  N   UNL     1     -10.128  30.838 -24.064  0.00  0.00    +0.379 N 
ATOM     24  C   UNL     1     -10.387  30.894 -22.618  0.00  0.00    -0.096 C 
ATOM     25  H   UNL     1      -9.774  31.845 -24.383  0.00  0.00    -0.082 HD
ATOM     26  C   UNL     1      -9.051  29.830 -24.439  0.00  0.00    -0.064 C 
ATOM     27  C   UNL     1      -8.814  29.819 -25.975  0.00  0.00    +0.066 C 
ENDBRANCH  19  20
ENDBRANCH  18  19
ENDBRANCH  14  15
ENDBRANCH  12  13
TORSDOF 6
ENDMDL
MODEL 4
REMARK VINA RESULT:      -7.7     27.216     32.768
REMARK  Name = C:\Users\Docking\Desktop\test protocol\1iep_ligandH.pdb
REMARK  8 active torsions:
REMARK  status: ('A' for Active; 'I' for Inactive)
REMARK    1  A    between atoms: _5  and  _11
REMARK    2  A    between atoms: _19  and  _21
REMARK    3  A    between atoms: _22  and  _66
REMARK    4  A    between atoms: _27  and  _30
REMARK    5  A    between atoms: _32  and  _33
REMARK    6  A    between atoms: _38  and  _43
REMARK    7  A    between atoms: _43  and  _46
REMARK    8  A    between atoms: _53  and  _55
REMARK                            x       y       z     vdW  Elec       q    Type
REMARK                         _______ _______ _______ _____ _____    ______ ____
ROOT
ATOM     10  C   UNL     1       3.369  11.978 -10.970  0.00  0.00    +0.038 A 
ATOM     11  C   UNL     1       2.857  12.704  -9.865  0.00  0.00    +0.047 A 
ATOM     12  C   UNL     1       2.214  12.025  -8.751  0.00  0.00    +0.035 A 
ATOM     32  C   UNL     1       2.112  10.604  -8.794  0.00  0.00    +0.024 A 
ATOM     33  C   UNL     1       2.626   9.850  -9.910  0.00  0.00    +0.007 A 
ATOM     34  C   UNL     1       3.260  10.515 -11.013  0.00  0.00    -0.029 A 
ATOM     35  C   UNL     1       3.787   9.656 -12.186  0.00  0.00    +0.045 C 
ENDROOT
BRANCH  10   9
ATOM      4  C   UNL     1       7.234  13.792 -13.164  0.00  0.00    +0.077 A 
ATOM      5  C   UNL     1       8.113  13.321 -12.133  0.00  0.00    +0.048 A 
ATOM      6  C   UNL     1       7.530  12.623 -11.052  0.00  0.00    +0.116 A 
ATOM      7  N   UNL     1       6.168  12.416 -11.015  0.00  0.00    -0.223 NA
ATOM      8  C   UNL     1       5.348  12.885 -12.025  0.00  0.00    +0.220 A 
ATOM      9  N   UNL     1       3.977  12.681 -12.013  0.00  0.00    -0.283 N 
ATOM     36  H   UNL     1       3.406  13.049 -12.773  0.00  0.00    +0.155 HD
ATOM     37  N   UNL     1       5.881  13.556 -13.068  0.00  0.00    -0.214 NA
BRANCH   4   3
ATOM      1  C   UNL     1       7.329  16.125 -16.302  0.00  0.00    +0.020 A 
ATOM      2  C   UNL     1       6.829  15.422 -15.143  0.00  0.00    +0.013 A 
ATOM      3  C   UNL     1       7.700  14.542 -14.373  0.00  0.00    +0.019 A 
ATOM     38  C   UNL     1       9.081  14.395 -14.806  0.00  0.00    +0.120 A 
ATOM     39  N   UNL     1       9.534  15.083 -15.927  0.00  0.00    -0.263 NA
ATOM     40  C   UNL     1       8.705  15.931 -16.677  0.00  0.00    +0.111 A 
ENDBRANCH   4   3
ENDBRANCH  10   9
BRANCH  12  13
ATOM     13  N   UNL     1       1.667  12.710  -7.606  0.00  0.00    -0.281 N 
ATOM     14  C   UNL     1       0.339  13.000  -7.341  0.00  0.00    +0.248 C 
ATOM     30  O   UNL     1      -0.566  12.901  -8.156  0.00  0.00    -0.270 OA
ATOM     31  H   UNL     1       2.342  13.020  -6.906  0.00  0.00    +0.155 HD
BRANCH  14  15
ATOM     15  C   UNL     1      -0.036  13.483  -5.977  0.00  0.00    +0.037 A 
ATOM     16  C   UNL     1      -1.280  14.223  -5.748  0.00  0.00    +0.013 A 
ATOM     17  C   UNL     1      -1.609  14.693  -4.426  0.00  0.00    +0.005 A 
ATOM     18  C   UNL     1      -0.693  14.421  -3.321  0.00  0.00    -0.033 A 
ATOM     28  C   UNL     1       0.531  13.680  -3.575  0.00  0.00    +0.005 A 
ATOM     29  C   UNL     1       0.858  13.219  -4.870  0.00  0.00    +0.013 A 
BRANCH  18  19
ATOM     19  C   UNL     1      -0.954  14.902  -1.881  0.00  0.00    +0.119 C 
BRANCH  19  20
ATOM     20  N   UNL     1      -0.389  14.078  -0.772  0.00  0.00    -0.302 NA
ATOM     21  C   UNL     1      -1.143  12.757  -0.595  0.00  0.00    +0.066 C 
ATOM     22  C   UNL     1      -0.525  11.897   0.555  0.00  0.00    -0.064 C 
ATOM     23  N   UNL     1      -0.535  12.705   1.854  0.00  0.00    +0.379 N 
ATOM     24  C   UNL     1      -0.007  11.878   2.949  0.00  0.00    -0.096 C 
ATOM     25  H   UNL     1      -1.596  12.946   2.093  0.00  0.00    -0.082 HD
ATOM     26  C   UNL     1       0.211  14.021   1.686  0.00  0.00    -0.064 C 
ATOM     27  C   UNL     1      -0.393  14.854   0.522  0.00  0.00    +0.066 C 
ENDBRANCH  19  20
ENDBRANCH  18  19
ENDBRANCH  14  15
ENDBRANCH  12  13
TORSDOF 6
ENDMDL
MODEL 5
REMARK VINA RESULT:      -7.7     21.678     27.379
REMARK  Name = C:\Users\Docking\Desktop\test protocol\1iep_ligandH.pdb
REMARK  8 active torsions:
REMARK  status: ('A' for Active; 'I' for Inactive)
REMARK    1  A    between atoms: _5  and  _11
REMARK    2  A    between atoms: _19  and  _21
REMARK    3  A    between atoms: _22  and  _66
REMARK    4  A    between atoms: _27  and  _30
REMARK    5  A    between atoms: _32  and  _33
REMARK    6  A    between atoms: _38  and  _43
REMARK    7  A    between atoms: _43  and  _46
REMARK    8  A    between atoms: _53  and  _55
REMARK                            x       y       z     vdW  Elec       q    Type
REMARK                         _______ _______ _______ _____ _____    ______ ____
ROOT
ATOM     10  C   UNL     1      -9.461  19.995 -41.209  0.00  0.00    +0.038 A 
ATOM     11  C   UNL     1     -10.411  19.916 -40.160  0.00  0.00    +0.047 A 
ATOM     12  C   UNL     1     -11.525  20.848 -40.082  0.00  0.00    +0.035 A 
ATOM     32  C   UNL     1     -11.643  21.847 -41.091  0.00  0.00    +0.024 A 
ATOM     33  C   UNL     1     -10.685  21.942 -42.165  0.00  0.00    +0.007 A 
ATOM     34  C   UNL     1      -9.582  21.028 -42.246  0.00  0.00    -0.029 A 
ATOM     35  C   UNL     1      -8.582  21.181 -43.415  0.00  0.00    +0.045 C 
ENDROOT
BRANCH  10   9
ATOM      4  C   UNL     1      -7.322  16.063 -42.940  0.00  0.00    +0.077 A 
ATOM      5  C   UNL     1      -8.400  15.805 -43.851  0.00  0.00    +0.048 A 
ATOM      6  C   UNL     1      -9.489  16.705 -43.838  0.00  0.00    +0.116 A 
ATOM      7  N   UNL     1      -9.490  17.778 -42.974  0.00  0.00    -0.223 NA
ATOM      8  C   UNL     1      -8.435  17.997 -42.107  0.00  0.00    +0.220 A 
ATOM      9  N   UNL     1      -8.411  19.075 -41.236  0.00  0.00    -0.283 N 
ATOM     36  H   UNL     1      -7.617  19.197 -40.607  0.00  0.00    +0.155 HD
ATOM     37  N   UNL     1      -7.383  17.151 -42.100  0.00  0.00    -0.214 NA
BRANCH   4   3
ATOM      1  C   UNL     1      -3.849  14.411 -43.659  0.00  0.00    +0.020 A 
ATOM      2  C   UNL     1      -5.009  15.261 -43.804  0.00  0.00    +0.013 A 
ATOM      3  C   UNL     1      -6.099  15.205 -42.838  0.00  0.00    +0.019 A 
ATOM     38  C   UNL     1      -5.984  14.270 -41.729  0.00  0.00    +0.120 A 
ATOM     39  N   UNL     1      -4.856  13.463 -41.616  0.00  0.00    -0.263 NA
ATOM     40  C   UNL     1      -3.801  13.508 -42.540  0.00  0.00    +0.111 A 
ENDBRANCH   4   3
ENDBRANCH  10   9
BRANCH  12  13
ATOM     13  N   UNL     1     -12.517  20.821 -39.035  0.00  0.00    -0.281 N 
ATOM     14  C   UNL     1     -12.311  20.711 -37.669  0.00  0.00    +0.248 C 
ATOM     30  O   UNL     1     -11.247  20.401 -37.154  0.00  0.00    -0.270 OA
ATOM     31  H   UNL     1     -13.488  20.892 -39.337  0.00  0.00    +0.155 HD
BRANCH  14  15
ATOM     15  C   UNL     1     -13.456  20.966 -36.743  0.00  0.00    +0.037 A 
ATOM     16  C   UNL     1     -14.753  21.426 -37.247  0.00  0.00    +0.013 A 
ATOM     17  C   UNL     1     -15.835  21.681 -36.331  0.00  0.00    +0.005 A 
ATOM     18  C   UNL     1     -15.626  21.476 -34.899  0.00  0.00    -0.033 A 
ATOM     28  C   UNL     1     -14.331  21.015 -34.427  0.00  0.00    +0.005 A 
ATOM     29  C   UNL     1     -13.267  20.764 -35.323  0.00  0.00    +0.013 A 
BRANCH  18  19
ATOM     19  C   UNL     1     -16.718  21.744 -33.847  0.00  0.00    +0.119 C 
BRANCH  19  20
ATOM     20  N   UNL     1     -17.634  20.614 -33.510  0.00  0.00    -0.302 NA
ATOM     21  C   UNL     1     -19.094  20.940 -33.841  0.00  0.00    +0.066 C 
ATOM     22  C   UNL     1     -20.036  19.738 -33.503  0.00  0.00    -0.064 C 
ATOM     23  N   UNL     1     -19.883  19.375 -32.025  0.00  0.00    +0.379 N 
ATOM     24  C   UNL     1     -20.810  18.284 -31.690  0.00  0.00    -0.096 C 
ATOM     25  H   UNL     1     -20.180  20.267 -31.425  0.00  0.00    -0.082 HD
ATOM     26  C   UNL     1     -18.435  19.052 -31.687  0.00  0.00    -0.064 C 
ATOM     27  C   UNL     1     -17.504  20.241 -32.054  0.00  0.00    +0.066 C 
ENDBRANCH  19  20
ENDBRANCH  18  19
ENDBRANCH  14  15
ENDBRANCH  12  13
TORSDOF 6
ENDMDL
