MODEL 1
REMARK VINA RESULT:      -8.7      0.000      0.000
REMARK  Name = C:\Users\Docking\Desktop\test protocol\1iep_ligandH.pdb
REMARK  8 active torsions:
REMARK  status: ('A' for Active; 'I' for Inactive)
REMARK    1  A    between atoms: _5  and  _11
REMARK    2  A    between atoms: _19  and  _21
REMARK    3  A    between atoms: _22  and  _66
REMARK    4  A    between atoms: _27  and  _30
REMARK    5  A    between atoms: _32  and  _33
REMARK    6  A    between atoms: _38  and  _43
REMARK    7  A    between atoms: _43  and  _46
REMARK    8  A    between atoms: _53  and  _55
REMARK                            x       y       z     vdW  Elec       q    Type
REMARK                         _______ _______ _______ _____ _____    ______ ____
ROOT
ATOM     10  C   UNL     1       4.932   1.214 -22.163  0.00  0.00    +0.038 A 
ATOM     11  C   UNL     1       4.545   1.200 -20.799  0.00  0.00    +0.047 A 
ATOM     12  C   UNL     1       5.151   2.105 -19.835  0.00  0.00    +0.035 A 
ATOM     32  C   UNL     1       6.147   3.014 -20.296  0.00  0.00    +0.024 A 
ATOM     33  C   UNL     1       6.553   3.042 -21.680  0.00  0.00    +0.007 A 
ATOM     34  C   UNL     1       5.961   2.149 -22.634  0.00  0.00    -0.029 A 
ATOM     35  C   UNL     1       6.439   2.218 -24.103  0.00  0.00    +0.045 C 
ENDROOT
BRANCH  10   9
ATOM      4  C   UNL     1       4.897  -2.816 -24.770  0.00  0.00    +0.077 A 
ATOM      5  C   UNL     1       6.228  -3.162 -24.360  0.00  0.00    +0.048 A 
ATOM      6  C   UNL     1       6.889  -2.273 -23.484  0.00  0.00    +0.116 A 
ATOM      7  N   UNL     1       6.257  -1.126 -23.055  0.00  0.00    -0.223 NA
ATOM      8  C   UNL     1       4.974  -0.821 -23.470  0.00  0.00    +0.220 A 
ATOM      9  N   UNL     1       4.316   0.323 -23.046  0.00  0.00    -0.283 N 
ATOM     36  H   UNL     1       3.373   0.516 -23.381  0.00  0.00    +0.155 HD
ATOM     37  N   UNL     1       4.322  -1.653 -24.308  0.00  0.00    -0.214 NA
BRANCH   4   3
ATOM      1  C   UNL     1       3.741  -5.026 -27.783  0.00  0.00    +0.020 A 
ATOM      2  C   UNL     1       4.584  -4.221 -26.930  0.00  0.00    +0.013 A 
ATOM      3  C   UNL     1       4.067  -3.656 -25.690  0.00  0.00    +0.019 A 
ATOM     38  C   UNL     1       2.681  -3.928 -25.339  0.00  0.00    +0.120 A 
ATOM     39  N   UNL     1       1.892  -4.705 -26.181  0.00  0.00    -0.263 NA
ATOM     40  C   UNL     1       2.379  -5.252 -27.378  0.00  0.00    +0.111 A 
ENDBRANCH   4   3
ENDBRANCH  10   9
BRANCH  12  13
ATOM     13  N   UNL     1       4.804   2.130 -18.436  0.00  0.00    -0.281 N 
ATOM     14  C   UNL     1       4.263   3.180 -17.711  0.00  0.00    +0.248 C 
ATOM     30  O   UNL     1       4.193   4.332 -18.112  0.00  0.00    -0.270 OA
ATOM     31  H   UNL     1       4.979   1.270 -17.916  0.00  0.00    +0.155 HD
BRANCH  14  15
ATOM     15  C   UNL     1       3.737   2.914 -16.338  0.00  0.00    +0.037 A 
ATOM     16  C   UNL     1       2.605   3.671 -15.799  0.00  0.00    +0.013 A 
ATOM     17  C   UNL     1       2.128   3.406 -14.464  0.00  0.00    +0.005 A 
ATOM     18  C   UNL     1       2.783   2.377 -13.661  0.00  0.00    -0.033 A 
ATOM     28  C   UNL     1       3.902   1.638 -14.222  0.00  0.00    +0.005 A 
ATOM     29  C   UNL     1       4.372   1.895 -15.529  0.00  0.00    +0.013 A 
BRANCH  18  19
ATOM     19  C   UNL     1       2.355   2.042 -12.220  0.00  0.00    +0.119 C 
BRANCH  19  20
ATOM     20  N   UNL     1       2.383   3.153 -11.222  0.00  0.00    -0.302 NA
ATOM     21  C   UNL     1       3.777   3.772 -11.091  0.00  0.00    +0.066 C 
ATOM     22  C   UNL     1       3.783   4.948 -10.060  0.00  0.00    -0.064 C 
ATOM     23  N   UNL     1       3.288   4.437  -8.706  0.00  0.00    +0.379 N 
ATOM     24  C   UNL     1       3.347   5.526  -7.720  0.00  0.00    -0.096 C 
ATOM     25  H   UNL     1       3.987   3.637  -8.370  0.00  0.00    -0.082 HD
ATOM     26  C   UNL     1       1.903   3.817  -8.828  0.00  0.00    -0.064 C 
ATOM     27  C   UNL     1       1.901   2.670  -9.876  0.00  0.00    +0.066 C 
ENDBRANCH  19  20
ENDBRANCH  18  19
ENDBRANCH  14  15
ENDBRANCH  12  13
TORSDOF 6
ENDMDL
MODEL 2
REMARK VINA RESULT:      -8.7      1.843      2.705
REMARK  Name = C:\Users\Docking\Desktop\test protocol\1iep_ligandH.pdb
REMARK  8 active torsions:
REMARK  status: ('A' for Active; 'I' for Inactive)
REMARK    1  A    between atoms: _5  and  _11
REMARK    2  A    between atoms: _19  and  _21
REMARK    3  A    between atoms: _22  and  _66
REMARK    4  A    between atoms: _27  and  _30
REMARK    5  A    between atoms: _32  and  _33
REMARK    6  A    between atoms: _38  and  _43
REMARK    7  A    between atoms: _43  and  _46
REMARK    8  A    between atoms: _53  and  _55
REMARK                            x       y       z     vdW  Elec       q    Type
REMARK                         _______ _______ _______ _____ _____    ______ ____
ROOT
ATOM     10  C   UNL     1       4.964   1.284 -22.162  0.00  0.00    +0.038 A 
ATOM     11  C   UNL     1       4.640   1.230 -20.782  0.00  0.00    +0.047 A 
ATOM     12  C   UNL     1       5.267   2.129 -19.826  0.00  0.00    +0.035 A 
ATOM     32  C   UNL     1       6.218   3.074 -20.311  0.00  0.00    +0.024 A 
ATOM     33  C   UNL     1       6.560   3.142 -21.709  0.00  0.00    +0.007 A 
ATOM     34  C   UNL     1       5.947   2.255 -22.657  0.00  0.00    -0.029 A 
ATOM     35  C   UNL     1       6.357   2.369 -24.144  0.00  0.00    +0.045 C 
ENDROOT
BRANCH  10   9
ATOM      4  C   UNL     1       4.882  -2.732 -24.789  0.00  0.00    +0.077 A 
ATOM      5  C   UNL     1       6.222  -3.078 -24.410  0.00  0.00    +0.048 A 
ATOM      6  C   UNL     1       6.900  -2.192 -23.543  0.00  0.00    +0.116 A 
ATOM      7  N   UNL     1       6.275  -1.049 -23.094  0.00  0.00    -0.223 NA
ATOM      8  C   UNL     1       4.983  -0.744 -23.481  0.00  0.00    +0.220 A 
ATOM      9  N   UNL     1       4.332   0.396 -23.035  0.00  0.00    -0.283 N 
ATOM     36  H   UNL     1       3.381   0.589 -23.349  0.00  0.00    +0.155 HD
ATOM     37  N   UNL     1       4.314  -1.573 -24.309  0.00  0.00    -0.214 NA
BRANCH   4   3
ATOM      1  C   UNL     1       3.680  -4.966 -27.767  0.00  0.00    +0.020 A 
ATOM      2  C   UNL     1       4.540  -4.165 -26.926  0.00  0.00    +0.013 A 
ATOM      3  C   UNL     1       4.035  -3.569 -25.696  0.00  0.00    +0.019 A 
ATOM     38  C   UNL     1       2.643  -3.804 -25.342  0.00  0.00    +0.120 A 
ATOM     39  N   UNL     1       1.838  -4.578 -26.172  0.00  0.00    -0.263 NA
ATOM     40  C   UNL     1       2.313  -5.156 -27.359  0.00  0.00    +0.111 A 
ENDBRANCH   4   3
ENDBRANCH  10   9
BRANCH  12  13
ATOM     13  N   UNL     1       4.984   2.115 -18.412  0.00  0.00    -0.281 N 
ATOM     14  C   UNL     1       4.287   3.058 -17.674  0.00  0.00    +0.248 C 
ATOM     30  O   UNL     1       3.983   4.169 -18.083  0.00  0.00    -0.270 OA
ATOM     31  H   UNL     1       5.340   1.313 -17.893  0.00  0.00    +0.155 HD
BRANCH  14  15
ATOM     15  C   UNL     1       3.881   2.723 -16.275  0.00  0.00    +0.037 A 
ATOM     16  C   UNL     1       2.665   3.286 -15.681  0.00  0.00    +0.013 A 
ATOM     17  C   UNL     1       2.306   2.960 -14.323  0.00  0.00    +0.005 A 
ATOM     18  C   UNL     1       3.164   2.065 -13.551  0.00  0.00    -0.033 A 
ATOM     28  C   UNL     1       4.362   1.517 -14.166  0.00  0.00    +0.005 A 
ATOM     29  C   UNL     1       4.717   1.835 -15.496  0.00  0.00    +0.013 A 
BRANCH  18  19
ATOM     19  C   UNL     1       2.870   1.680 -12.089  0.00  0.00    +0.119 C 
BRANCH  19  20
ATOM     20  N   UNL     1       2.330   0.310 -11.838  0.00  0.00    -0.302 NA
ATOM     21  C   UNL     1       1.362   0.283 -10.652  0.00  0.00    +0.066 C 
ATOM     22  C   UNL     1       0.790  -1.153 -10.418  0.00  0.00    -0.064 C 
ATOM     23  N   UNL     1       1.946  -2.130 -10.196  0.00  0.00    +0.379 N 
ATOM     24  C   UNL     1       1.409  -3.470  -9.918  0.00  0.00    -0.096 C 
ATOM     25  H   UNL     1       2.503  -1.795  -9.291  0.00  0.00    -0.082 HD
ATOM     26  C   UNL     1       2.915  -2.107 -11.370  0.00  0.00    -0.064 C 
ATOM     27  C   UNL     1       3.455  -0.670 -11.613  0.00  0.00    +0.066 C 
ENDBRANCH  19  20
ENDBRANCH  18  19
ENDBRANCH  14  15
ENDBRANCH  12  13
TORSDOF 6
ENDMDL
MODEL 3
REMARK VINA RESULT:      -8.1      3.944     14.167
REMARK  Name = C:\Users\Docking\Desktop\test protocol\1iep_ligandH.pdb
REMARK  8 active torsions:
REMARK  status: ('A' for Active; 'I' for Inactive)
REMARK    1  A    between atoms: _5  and  _11
REMARK    2  A    between atoms: _19  and  _21
REMARK    3  A    between atoms: _22  and  _66
REMARK    4  A    between atoms: _27  and  _30
REMARK    5  A    between atoms: _32  and  _33
REMARK    6  A    between atoms: _38  and  _43
REMARK    7  A    between atoms: _43  and  _46
REMARK    8  A    between atoms: _53  and  _55
REMARK                            x       y       z     vdW  Elec       q    Type
REMARK                         _______ _______ _______ _____ _____    ______ ____
ROOT
ATOM     10  C   UNL     1       5.863  -1.171 -21.905  0.00  0.00    +0.038 A 
ATOM     11  C   UNL     1       4.727  -1.663 -22.596  0.00  0.00    +0.047 A 
ATOM     12  C   UNL     1       4.868  -2.477 -23.794  0.00  0.00    +0.035 A 
ATOM     32  C   UNL     1       6.183  -2.771 -24.259  0.00  0.00    +0.024 A 
ATOM     33  C   UNL     1       7.349  -2.278 -23.570  0.00  0.00    +0.007 A 
ATOM     34  C   UNL     1       7.216  -1.473 -22.389  0.00  0.00    -0.029 A 
ATOM     35  C   UNL     1       8.501  -0.966 -21.695  0.00  0.00    +0.045 C 
ENDROOT
BRANCH  10   9
ATOM      4  C   UNL     1       5.183   3.046 -19.716  0.00  0.00    +0.077 A 
ATOM      5  C   UNL     1       5.247   3.767 -20.955  0.00  0.00    +0.048 A 
ATOM      6  C   UNL     1       5.463   3.016 -22.132  0.00  0.00    +0.116 A 
ATOM      7  N   UNL     1       5.603   1.647 -22.063  0.00  0.00    -0.223 NA
ATOM      8  C   UNL     1       5.539   0.983 -20.852  0.00  0.00    +0.220 A 
ATOM      9  N   UNL     1       5.669  -0.394 -20.761  0.00  0.00    -0.283 N 
ATOM     36  H   UNL     1       5.623  -0.845 -19.847  0.00  0.00    +0.155 HD
ATOM     37  N   UNL     1       5.335   1.678 -19.714  0.00  0.00    -0.214 NA
BRANCH   4   3
ATOM      1  C   UNL     1       4.151   5.599 -16.938  0.00  0.00    +0.020 A 
ATOM      2  C   UNL     1       4.347   5.014 -18.245  0.00  0.00    +0.013 A 
ATOM      3  C   UNL     1       4.957   3.699 -18.388  0.00  0.00    +0.019 A 
ATOM     38  C   UNL     1       5.361   2.996 -17.179  0.00  0.00    +0.120 A 
ATOM     39  N   UNL     1       5.161   3.584 -15.935  0.00  0.00    -0.263 NA
ATOM     40  C   UNL     1       4.575   4.851 -15.785  0.00  0.00    +0.111 A 
ENDBRANCH   4   3
ENDBRANCH  10   9
BRANCH  12  13
ATOM     13  N   UNL     1       3.751  -2.998 -24.541  0.00  0.00    -0.281 N 
ATOM     14  C   UNL     1       3.781  -3.742 -25.710  0.00  0.00    +0.248 C 
ATOM     30  O   UNL     1       4.772  -3.891 -26.409  0.00  0.00    -0.270 OA
ATOM     31  H   UNL     1       2.826  -2.794 -24.163  0.00  0.00    +0.155 HD
BRANCH  14  15
ATOM     15  C   UNL     1       2.525  -4.404 -26.176  0.00  0.00    +0.037 A 
ATOM     16  C   UNL     1       2.120  -4.360 -27.584  0.00  0.00    +0.013 A 
ATOM     17  C   UNL     1       0.895  -4.992 -28.005  0.00  0.00    +0.005 A 
ATOM     18  C   UNL     1       0.065  -5.675 -27.015  0.00  0.00    -0.033 A 
ATOM     28  C   UNL     1       0.493  -5.708 -25.626  0.00  0.00    +0.005 A 
ATOM     29  C   UNL     1       1.693  -5.089 -25.210  0.00  0.00    +0.013 A 
BRANCH  18  19
ATOM     19  C   UNL     1      -1.268  -6.359 -27.371  0.00  0.00    +0.119 C 
BRANCH  19  20
ATOM     20  N   UNL     1      -1.314  -7.154 -28.634  0.00  0.00    -0.302 NA
ATOM     21  C   UNL     1      -2.650  -7.880 -28.808  0.00  0.00    +0.066 C 
ATOM     22  C   UNL     1      -2.689  -8.688 -30.146  0.00  0.00    -0.064 C 
ATOM     23  N   UNL     1      -1.526  -9.681 -30.173  0.00  0.00    +0.379 N 
ATOM     24  C   UNL     1      -1.593 -10.482 -31.404  0.00  0.00    -0.096 C 
ATOM     25  H   UNL     1      -1.653 -10.375 -29.310  0.00  0.00    -0.082 HD
ATOM     26  C   UNL     1      -0.193  -8.967 -29.998  0.00  0.00    -0.064 C 
ATOM     27  C   UNL     1      -0.176  -8.143 -28.680  0.00  0.00    +0.066 C 
ENDBRANCH  19  20
ENDBRANCH  18  19
ENDBRANCH  14  15
ENDBRANCH  12  13
TORSDOF 6
ENDMDL
MODEL 4
REMARK VINA RESULT:      -8.1      4.023     12.786
REMARK  Name = C:\Users\Docking\Desktop\test protocol\1iep_ligandH.pdb
REMARK  8 active torsions:
REMARK  status: ('A' for Active; 'I' for Inactive)
REMARK    1  A    between atoms: _5  and  _11
REMARK    2  A    between atoms: _19  and  _21
REMARK    3  A    between atoms: _22  and  _66
REMARK    4  A    between atoms: _27  and  _30
REMARK    5  A    between atoms: _32  and  _33
REMARK    6  A    between atoms: _38  and  _43
REMARK    7  A    between atoms: _43  and  _46
REMARK    8  A    between atoms: _53  and  _55
REMARK                            x       y       z     vdW  Elec       q    Type
REMARK                         _______ _______ _______ _____ _____    ______ ____
ROOT
ATOM     10  C   UNL     1       2.493   1.303 -12.192  0.00  0.00    +0.038 A 
ATOM     11  C   UNL     1       3.180   1.253 -13.432  0.00  0.00    +0.047 A 
ATOM     12  C   UNL     1       2.934   2.243 -14.469  0.00  0.00    +0.035 A 
ATOM     32  C   UNL     1       1.983   3.272 -14.209  0.00  0.00    +0.024 A 
ATOM     33  C   UNL     1       1.274   3.337 -12.955  0.00  0.00    +0.007 A 
ATOM     34  C   UNL     1       1.511   2.362 -11.929  0.00  0.00    -0.029 A 
ATOM     35  C   UNL     1       0.718   2.478 -10.606  0.00  0.00    +0.045 C 
ENDROOT
BRANCH  10   9
ATOM      4  C   UNL     1       1.669  -2.947 -10.119  0.00  0.00    +0.077 A 
ATOM      5  C   UNL     1       0.581  -3.236 -11.008  0.00  0.00    +0.048 A 
ATOM      6  C   UNL     1       0.261  -2.262 -11.980  0.00  0.00    +0.116 A 
ATOM      7  N   UNL     1       0.982  -1.089 -12.049  0.00  0.00    -0.223 NA
ATOM      8  C   UNL     1       2.024  -0.841 -11.175  0.00  0.00    +0.220 A 
ATOM      9  N   UNL     1       2.768   0.327 -11.231  0.00  0.00    -0.283 N 
ATOM     36  H   UNL     1       3.525   0.476 -10.564  0.00  0.00    +0.155 HD
ATOM     37  N   UNL     1       2.349  -1.755 -10.237  0.00  0.00    -0.214 NA
BRANCH   4   3
ATOM      1  C   UNL     1       1.807  -5.117  -6.868  0.00  0.00    +0.020 A 
ATOM      2  C   UNL     1       1.315  -4.211  -7.880  0.00  0.00    +0.013 A 
ATOM      3  C   UNL     1       2.130  -3.878  -9.041  0.00  0.00    +0.019 A 
ATOM     38  C   UNL     1       3.449  -4.484  -9.149  0.00  0.00    +0.120 A 
ATOM     39  N   UNL     1       3.897  -5.351  -8.158  0.00  0.00    -0.263 NA
ATOM     40  C   UNL     1       3.122  -5.678  -7.035  0.00  0.00    +0.111 A 
ENDBRANCH   4   3
ENDBRANCH  10   9
BRANCH  12  13
ATOM     13  N   UNL     1       3.596   2.238 -15.750  0.00  0.00    -0.281 N 
ATOM     14  C   UNL     1       4.954   2.145 -16.007  0.00  0.00    +0.248 C 
ATOM     30  O   UNL     1       5.827   2.268 -15.161  0.00  0.00    -0.270 OA
ATOM     31  H   UNL     1       2.989   2.311 -16.567  0.00  0.00    +0.155 HD
BRANCH  14  15
ATOM     15  C   UNL     1       5.408   1.894 -17.409  0.00  0.00    +0.037 A 
ATOM     16  C   UNL     1       6.563   1.038 -17.691  0.00  0.00    +0.013 A 
ATOM     17  C   UNL     1       6.991   0.826 -19.052  0.00  0.00    +0.005 A 
ATOM     18  C   UNL     1       6.261   1.472 -20.140  0.00  0.00    -0.033 A 
ATOM     28  C   UNL     1       5.116   2.312 -19.832  0.00  0.00    +0.005 A 
ATOM     29  C   UNL     1       4.695   2.523 -18.500  0.00  0.00    +0.013 A 
BRANCH  18  19
ATOM     19  C   UNL     1       6.660   1.319 -21.620  0.00  0.00    +0.119 C 
BRANCH  19  20
ATOM     20  N   UNL     1       6.564  -0.046 -22.217  0.00  0.00    -0.302 NA
ATOM     21  C   UNL     1       7.155  -0.099 -23.628  0.00  0.00    +0.066 C 
ATOM     22  C   UNL     1       7.066  -1.540 -24.229  0.00  0.00    -0.064 C 
ATOM     23  N   UNL     1       5.606  -1.998 -24.235  0.00  0.00    +0.379 N 
ATOM     24  C   UNL     1       5.512  -3.329 -24.852  0.00  0.00    -0.096 C 
ATOM     25  H   UNL     1       5.032  -1.287 -24.874  0.00  0.00    -0.082 HD
ATOM     26  C   UNL     1       5.010  -1.946 -22.836  0.00  0.00    -0.064 C 
ATOM     27  C   UNL     1       5.130  -0.516 -22.237  0.00  0.00    +0.066 C 
ENDBRANCH  19  20
ENDBRANCH  18  19
ENDBRANCH  14  15
ENDBRANCH  12  13
TORSDOF 6
ENDMDL
MODEL 5
REMARK VINA RESULT:      -8.1      4.035     12.516
REMARK  Name = C:\Users\Docking\Desktop\test protocol\1iep_ligandH.pdb
REMARK  8 active torsions:
REMARK  status: ('A' for Active; 'I' for Inactive)
REMARK    1  A    between atoms: _5  and  _11
REMARK    2  A    between atoms: _19  and  _21
REMARK    3  A    between atoms: _22  and  _66
REMARK    4  A    between atoms: _27  and  _30
REMARK    5  A    between atoms: _32  and  _33
REMARK    6  A    between atoms: _38  and  _43
REMARK    7  A    between atoms: _43  and  _46
REMARK    8  A    between atoms: _53  and  _55
REMARK                            x       y       z     vdW  Elec       q    Type
REMARK                         _______ _______ _______ _____ _____    ______ ____
ROOT
ATOM     10  C   UNL     1       2.807   1.183 -12.443  0.00  0.00    +0.038 A 
ATOM     11  C   UNL     1       3.326   1.239 -13.762  0.00  0.00    +0.047 A 
ATOM     12  C   UNL     1       2.916   2.283 -14.689  0.00  0.00    +0.035 A 
ATOM     32  C   UNL     1       1.978   3.256 -14.237  0.00  0.00    +0.024 A 
ATOM     33  C   UNL     1       1.440   3.214 -12.900  0.00  0.00    +0.007 A 
ATOM     34  C   UNL     1       1.838   2.185 -11.983  0.00  0.00    -0.029 A 
ATOM     35  C   UNL     1       1.224   2.185 -10.564  0.00  0.00    +0.045 C 
ENDROOT
BRANCH  10   9
ATOM      4  C   UNL     1       2.298  -3.156 -10.456  0.00  0.00    +0.077 A 
ATOM      5  C   UNL     1       1.061  -3.391 -11.143  0.00  0.00    +0.048 A 
ATOM      6  C   UNL     1       0.586  -2.367 -11.993  0.00  0.00    +0.116 A 
ATOM      7  N   UNL     1       1.304  -1.200 -12.138  0.00  0.00    -0.223 NA
ATOM      8  C   UNL     1       2.493  -1.004 -11.459  0.00  0.00    +0.220 A 
ATOM      9  N   UNL     1       3.235   0.159 -11.596  0.00  0.00    -0.283 N 
ATOM     36  H   UNL     1       4.103   0.267 -11.072  0.00  0.00    +0.155 HD
ATOM     37  N   UNL     1       2.966  -1.966 -10.640  0.00  0.00    -0.214 NA
BRANCH   4   3
ATOM      1  C   UNL     1       2.832  -5.833  -7.654  0.00  0.00    +0.020 A 
ATOM      2  C   UNL     1       2.173  -4.890  -8.528  0.00  0.00    +0.013 A 
ATOM      3  C   UNL     1       2.930  -4.144  -9.525  0.00  0.00    +0.019 A 
ATOM     38  C   UNL     1       4.364  -4.376  -9.612  0.00  0.00    +0.120 A 
ATOM     39  N   UNL     1       4.972  -5.289  -8.756  0.00  0.00    -0.263 NA
ATOM     40  C   UNL     1       4.254  -6.012  -7.792  0.00  0.00    +0.111 A 
ENDBRANCH   4   3
ENDBRANCH  10   9
BRANCH  12  13
ATOM     13  N   UNL     1       3.403   2.385 -16.042  0.00  0.00    -0.281 N 
ATOM     14  C   UNL     1       4.473   3.131 -16.508  0.00  0.00    +0.248 C 
ATOM     30  O   UNL     1       5.047   3.995 -15.862  0.00  0.00    -0.270 OA
ATOM     31  H   UNL     1       2.896   1.842 -16.742  0.00  0.00    +0.155 HD
BRANCH  14  15
ATOM     15  C   UNL     1       4.969   2.892 -17.898  0.00  0.00    +0.037 A 
ATOM     16  C   UNL     1       4.951   3.957 -18.904  0.00  0.00    +0.013 A 
ATOM     17  C   UNL     1       5.419   3.695 -20.242  0.00  0.00    +0.005 A 
ATOM     18  C   UNL     1       5.911   2.361 -20.581  0.00  0.00    -0.033 A 
ATOM     28  C   UNL     1       5.923   1.325 -19.561  0.00  0.00    +0.005 A 
ATOM     29  C   UNL     1       5.463   1.578 -18.249  0.00  0.00    +0.013 A 
BRANCH  18  19
ATOM     19  C   UNL     1       6.410   1.986 -21.989  0.00  0.00    +0.119 C 
BRANCH  19  20
ATOM     20  N   UNL     1       6.405   0.538 -22.353  0.00  0.00    -0.302 NA
ATOM     21  C   UNL     1       7.630   0.151 -23.186  0.00  0.00    +0.066 C 
ATOM     22  C   UNL     1       7.620  -1.372 -23.539  0.00  0.00    -0.064 C 
ATOM     23  N   UNL     1       6.329  -1.712 -24.285  0.00  0.00    +0.379 N 
ATOM     24  C   UNL     1       6.343  -3.131 -24.669  0.00  0.00    -0.096 C 
ATOM     25  H   UNL     1       6.310  -1.108 -25.221  0.00  0.00    -0.082 HD
ATOM     26  C   UNL     1       5.106  -1.328 -23.464  0.00  0.00    -0.064 C 
ATOM     27  C   UNL     1       5.140   0.181 -23.094  0.00  0.00    +0.066 C 
ENDBRANCH  19  20
ENDBRANCH  18  19
ENDBRANCH  14  15
ENDBRANCH  12  13
TORSDOF 6
ENDMDL
