MODEL 1
REMARK VINA RESULT:      -8.8      0.000      0.000
REMARK  Name = C:\Users\Docking\Desktop\test protocol\1iep_ligandH.pdb
REMARK  8 active torsions:
REMARK  status: ('A' for Active; 'I' for Inactive)
REMARK    1  A    between atoms: _5  and  _11
REMARK    2  A    between atoms: _19  and  _21
REMARK    3  A    between atoms: _22  and  _66
REMARK    4  A    between atoms: _27  and  _30
REMARK    5  A    between atoms: _32  and  _33
REMARK    6  A    between atoms: _38  and  _43
REMARK    7  A    between atoms: _43  and  _46
REMARK    8  A    between atoms: _53  and  _55
REMARK                            x       y       z     vdW  Elec       q    Type
REMARK                         _______ _______ _______ _____ _____    ______ ____
ROOT
ATOM     10  C   UNL     1      18.959   9.881 -10.836  0.00  0.00    +0.038 A 
ATOM     11  C   UNL     1      17.629   9.615 -10.422  0.00  0.00    +0.047 A 
ATOM     12  C   UNL     1      16.730  10.692 -10.036  0.00  0.00    +0.035 A 
ATOM     32  C   UNL     1      17.219  12.030 -10.088  0.00  0.00    +0.024 A 
ATOM     33  C   UNL     1      18.569  12.319 -10.505  0.00  0.00    +0.007 A 
ATOM     34  C   UNL     1      19.460  11.260 -10.884  0.00  0.00    -0.029 A 
ATOM     35  C   UNL     1      20.898  11.628 -11.318  0.00  0.00    +0.045 C 
ENDROOT
BRANCH  10   9
ATOM      4  C   UNL     1      21.045   5.657  -9.920  0.00  0.00    +0.077 A 
ATOM      5  C   UNL     1      20.476   5.594  -8.605  0.00  0.00    +0.048 A 
ATOM      6  C   UNL     1      19.658   6.673  -8.199  0.00  0.00    +0.116 A 
ATOM      7  N   UNL     1      19.432   7.730  -9.054  0.00  0.00    -0.223 NA
ATOM      8  C   UNL     1      19.998   7.760 -10.316  0.00  0.00    +0.220 A 
ATOM      9  N   UNL     1      19.778   8.809 -11.195  0.00  0.00    -0.283 N 
ATOM     36  H   UNL     1      20.219   8.797 -12.115  0.00  0.00    +0.155 HD
ATOM     37  N   UNL     1      20.784   6.742 -10.726  0.00  0.00    -0.214 NA
BRANCH   4   3
ATOM      1  C   UNL     1      22.802   3.206 -12.412  0.00  0.00    +0.020 A 
ATOM      2  C   UNL     1      21.929   4.242 -11.908  0.00  0.00    +0.013 A 
ATOM      3  C   UNL     1      21.928   4.592 -10.494  0.00  0.00    +0.019 A 
ATOM     38  C   UNL     1      22.829   3.871  -9.608  0.00  0.00    +0.120 A 
ATOM     39  N   UNL     1      23.657   2.877 -10.121  0.00  0.00    -0.263 NA
ATOM     40  C   UNL     1      23.666   2.530 -11.480  0.00  0.00    +0.111 A 
ENDBRANCH   4   3
ENDBRANCH  10   9
BRANCH  12  13
ATOM     13  N   UNL     1      15.372  10.482  -9.600  0.00  0.00    -0.281 N 
ATOM     14  C   UNL     1      14.823  10.765  -8.360  0.00  0.00    +0.248 C 
ATOM     30  O   UNL     1      15.473  11.046  -7.364  0.00  0.00    -0.270 OA
ATOM     31  H   UNL     1      14.739  10.075 -10.288  0.00  0.00    +0.155 HD
BRANCH  14  15
ATOM     15  C   UNL     1      13.338  10.714  -8.199  0.00  0.00    +0.037 A 
ATOM     16  C   UNL     1      12.706   9.773  -7.272  0.00  0.00    +0.013 A 
ATOM     17  C   UNL     1      11.270   9.733  -7.149  0.00  0.00    +0.005 A 
ATOM     18  C   UNL     1      10.457  10.639  -7.955  0.00  0.00    -0.033 A 
ATOM     28  C   UNL     1      11.110  11.567  -8.864  0.00  0.00    +0.005 A 
ATOM     29  C   UNL     1      12.517  11.608  -8.988  0.00  0.00    +0.013 A 
BRANCH  18  19
ATOM     19  C   UNL     1       8.917  10.651  -7.904  0.00  0.00    +0.119 C 
BRANCH  19  20
ATOM     20  N   UNL     1       8.191   9.986  -9.027  0.00  0.00    -0.302 NA
ATOM     21  C   UNL     1       9.021   8.870  -9.668  0.00  0.00    +0.066 C 
ATOM     22  C   UNL     1       8.237   8.170 -10.825  0.00  0.00    -0.064 C 
ATOM     23  N   UNL     1       7.836   9.214 -11.869  0.00  0.00    +0.379 N 
ATOM     24  C   UNL     1       7.149   8.550 -12.987  0.00  0.00    -0.096 C 
ATOM     25  H   UNL     1       8.771   9.669 -12.269  0.00  0.00    -0.082 HD
ATOM     26  C   UNL     1       7.012  10.329 -11.240  0.00  0.00    -0.064 C 
ATOM     27  C   UNL     1       7.788  10.998 -10.072  0.00  0.00    +0.066 C 
ENDBRANCH  19  20
ENDBRANCH  18  19
ENDBRANCH  14  15
ENDBRANCH  12  13
TORSDOF 6
ENDMDL
MODEL 2
REMARK VINA RESULT:      -8.6     14.116     19.536
REMARK  Name = C:\Users\Docking\Desktop\test protocol\1iep_ligandH.pdb
REMARK  8 active torsions:
REMARK  status: ('A' for Active; 'I' for Inactive)
REMARK    1  A    between atoms: _5  and  _11
REMARK    2  A    between atoms: _19  and  _21
REMARK    3  A    between atoms: _22  and  _66
REMARK    4  A    between atoms: _27  and  _30
REMARK    5  A    between atoms: _32  and  _33
REMARK    6  A    between atoms: _38  and  _43
REMARK    7  A    between atoms: _43  and  _46
REMARK    8  A    between atoms: _53  and  _55
REMARK                            x       y       z     vdW  Elec       q    Type
REMARK                         _______ _______ _______ _____ _____    ______ ____
ROOT
ATOM     10  C   UNL     1      20.754   8.699 -22.995  0.00  0.00    +0.038 A 
ATOM     11  C   UNL     1      20.777   7.311 -23.283  0.00  0.00    +0.047 A 
ATOM     12  C   UNL     1      21.894   6.709 -23.996  0.00  0.00    +0.035 A 
ATOM     32  C   UNL     1      22.971   7.552 -24.398  0.00  0.00    +0.024 A 
ATOM     33  C   UNL     1      22.963   8.965 -24.114  0.00  0.00    +0.007 A 
ATOM     34  C   UNL     1      21.863   9.565 -23.413  0.00  0.00    -0.029 A 
ATOM     35  C   UNL     1      21.905  11.086 -23.142  0.00  0.00    +0.045 C 
ENDROOT
BRANCH  10   9
ATOM      4  C   UNL     1      16.279  10.432 -22.857  0.00  0.00    +0.077 A 
ATOM      5  C   UNL     1      16.124  10.306 -24.277  0.00  0.00    +0.048 A 
ATOM      6  C   UNL     1      17.221   9.798 -25.008  0.00  0.00    +0.116 A 
ATOM      7  N   UNL     1      18.383   9.445 -24.356  0.00  0.00    -0.223 NA
ATOM      8  C   UNL     1      18.501   9.580 -22.985  0.00  0.00    +0.220 A 
ATOM      9  N   UNL     1      19.657   9.224 -22.308  0.00  0.00    -0.283 N 
ATOM     36  H   UNL     1      19.707   9.346 -21.296  0.00  0.00    +0.155 HD
ATOM     37  N   UNL     1      17.467  10.064 -22.265  0.00  0.00    -0.214 NA
BRANCH   4   3
ATOM      1  C   UNL     1      13.381  10.632 -20.237  0.00  0.00    +0.020 A 
ATOM      2  C   UNL     1      14.402  10.081 -21.098  0.00  0.00    +0.013 A 
ATOM      3  C   UNL     1      15.209  10.949 -21.947  0.00  0.00    +0.019 A 
ATOM     38  C   UNL     1      14.955  12.381 -21.900  0.00  0.00    +0.120 A 
ATOM     39  N   UNL     1      13.964  12.883 -21.063  0.00  0.00    -0.263 NA
ATOM     40  C   UNL     1      13.180  12.057 -20.243  0.00  0.00    +0.111 A 
ENDBRANCH   4   3
ENDBRANCH  10   9
BRANCH  12  13
ATOM     13  N   UNL     1      21.969   5.307 -24.324  0.00  0.00    -0.281 N 
ATOM     14  C   UNL     1      21.148   4.587 -25.175  0.00  0.00    +0.248 C 
ATOM     30  O   UNL     1      20.086   4.995 -25.622  0.00  0.00    -0.270 OA
ATOM     31  H   UNL     1      22.719   4.783 -23.874  0.00  0.00    +0.155 HD
BRANCH  14  15
ATOM     15  C   UNL     1      21.558   3.207 -25.578  0.00  0.00    +0.037 A 
ATOM     16  C   UNL     1      20.624   2.304 -26.255  0.00  0.00    +0.013 A 
ATOM     17  C   UNL     1      21.040   0.972 -26.617  0.00  0.00    +0.005 A 
ATOM     18  C   UNL     1      22.399   0.536 -26.303  0.00  0.00    -0.033 A 
ATOM     28  C   UNL     1      23.306   1.454 -25.635  0.00  0.00    +0.005 A 
ATOM     29  C   UNL     1      22.902   2.760 -25.278  0.00  0.00    +0.013 A 
BRANCH  18  19
ATOM     19  C   UNL     1      22.922  -0.875 -26.633  0.00  0.00    +0.119 C 
BRANCH  19  20
ATOM     20  N   UNL     1      23.550  -1.075 -27.973  0.00  0.00    -0.302 NA
ATOM     21  C   UNL     1      24.912  -0.384 -28.078  0.00  0.00    +0.066 C 
ATOM     22  C   UNL     1      25.565  -0.622 -29.478  0.00  0.00    -0.064 C 
ATOM     23  N   UNL     1      24.619  -0.123 -30.571  0.00  0.00    +0.379 N 
ATOM     24  C   UNL     1      25.254  -0.293 -31.886  0.00  0.00    -0.096 C 
ATOM     25  H   UNL     1      24.462   0.969 -30.409  0.00  0.00    -0.082 HD
ATOM     26  C   UNL     1      23.261  -0.804 -30.472  0.00  0.00    -0.064 C 
ATOM     27  C   UNL     1      22.634  -0.585 -29.067  0.00  0.00    +0.066 C 
ENDBRANCH  19  20
ENDBRANCH  18  19
ENDBRANCH  14  15
ENDBRANCH  12  13
TORSDOF 6
ENDMDL
MODEL 3
REMARK VINA RESULT:      -8.6     13.854     19.315
REMARK  Name = C:\Users\Docking\Desktop\test protocol\1iep_ligandH.pdb
REMARK  8 active torsions:
REMARK  status: ('A' for Active; 'I' for Inactive)
REMARK    1  A    between atoms: _5  and  _11
REMARK    2  A    between atoms: _19  and  _21
REMARK    3  A    between atoms: _22  and  _66
REMARK    4  A    between atoms: _27  and  _30
REMARK    5  A    between atoms: _32  and  _33
REMARK    6  A    between atoms: _38  and  _43
REMARK    7  A    between atoms: _43  and  _46
REMARK    8  A    between atoms: _53  and  _55
REMARK                            x       y       z     vdW  Elec       q    Type
REMARK                         _______ _______ _______ _____ _____    ______ ____
ROOT
ATOM     10  C   UNL     1      20.656   9.130 -22.850  0.00  0.00    +0.038 A 
ATOM     11  C   UNL     1      20.809   7.734 -23.049  0.00  0.00    +0.047 A 
ATOM     12  C   UNL     1      21.962   7.196 -23.755  0.00  0.00    +0.035 A 
ATOM     32  C   UNL     1      22.942   8.109 -24.242  0.00  0.00    +0.024 A 
ATOM     33  C   UNL     1      22.801   9.531 -24.050  0.00  0.00    +0.007 A 
ATOM     34  C   UNL     1      21.665  10.067 -23.357  0.00  0.00    -0.029 A 
ATOM     35  C   UNL     1      21.563  11.601 -23.185  0.00  0.00    +0.045 C 
ENDROOT
BRANCH  10   9
ATOM      4  C   UNL     1      16.107  10.657 -22.730  0.00  0.00    +0.077 A 
ATOM      5  C   UNL     1      15.972  10.552 -24.154  0.00  0.00    +0.048 A 
ATOM      6  C   UNL     1      17.099  10.108 -24.882  0.00  0.00    +0.116 A 
ATOM      7  N   UNL     1      18.268   9.794 -24.224  0.00  0.00    -0.223 NA
ATOM      8  C   UNL     1      18.366   9.908 -22.849  0.00  0.00    +0.220 A 
ATOM      9  N   UNL     1      19.529   9.591 -22.166  0.00  0.00    -0.283 N 
ATOM     36  H   UNL     1      19.563   9.695 -21.152  0.00  0.00    +0.155 HD
ATOM     37  N   UNL     1      17.304  10.331 -22.131  0.00  0.00    -0.214 NA
BRANCH   4   3
ATOM      1  C   UNL     1      13.207  10.682 -20.105  0.00  0.00    +0.020 A 
ATOM      2  C   UNL     1      14.262  10.195 -20.963  0.00  0.00    +0.013 A 
ATOM      3  C   UNL     1      15.005  11.108 -21.823  0.00  0.00    +0.019 A 
ATOM     38  C   UNL     1      14.652  12.519 -21.789  0.00  0.00    +0.120 A 
ATOM     39  N   UNL     1      13.630  12.959 -20.954  0.00  0.00    -0.263 NA
ATOM     40  C   UNL     1      12.908  12.089 -20.124  0.00  0.00    +0.111 A 
ENDBRANCH   4   3
ENDBRANCH  10   9
BRANCH  12  13
ATOM     13  N   UNL     1      22.167   5.789 -23.994  0.00  0.00    -0.281 N 
ATOM     14  C   UNL     1      21.663   5.019 -25.029  0.00  0.00    +0.248 C 
ATOM     30  O   UNL     1      20.780   5.380 -25.792  0.00  0.00    -0.270 OA
ATOM     31  H   UNL     1      22.755   5.302 -23.318  0.00  0.00    +0.155 HD
BRANCH  14  15
ATOM     15  C   UNL     1      22.208   3.643 -25.237  0.00  0.00    +0.037 A 
ATOM     16  C   UNL     1      23.605   3.430 -25.627  0.00  0.00    +0.013 A 
ATOM     17  C   UNL     1      24.101   2.093 -25.838  0.00  0.00    +0.005 A 
ATOM     18  C   UNL     1      23.199   0.958 -25.658  0.00  0.00    -0.033 A 
ATOM     28  C   UNL     1      21.820   1.197 -25.265  0.00  0.00    +0.005 A 
ATOM     29  C   UNL     1      21.330   2.506 -25.059  0.00  0.00    +0.013 A 
BRANCH  18  19
ATOM     19  C   UNL     1      23.637  -0.502 -25.882  0.00  0.00    +0.119 C 
BRANCH  19  20
ATOM     20  N   UNL     1      23.637  -1.007 -27.287  0.00  0.00    -0.302 NA
ATOM     21  C   UNL     1      24.946  -0.686 -28.013  0.00  0.00    +0.066 C 
ATOM     22  C   UNL     1      24.938  -1.242 -29.474  0.00  0.00    -0.064 C 
ATOM     23  N   UNL     1      23.742  -0.661 -30.231  0.00  0.00    +0.379 N 
ATOM     24  C   UNL     1      23.764  -1.136 -31.622  0.00  0.00    -0.096 C 
ATOM     25  H   UNL     1      23.860   0.447 -30.250  0.00  0.00    -0.082 HD
ATOM     26  C   UNL     1      22.436  -0.974 -29.514  0.00  0.00    -0.064 C 
ATOM     27  C   UNL     1      22.467  -0.443 -28.054  0.00  0.00    +0.066 C 
ENDBRANCH  19  20
ENDBRANCH  18  19
ENDBRANCH  14  15
ENDBRANCH  12  13
TORSDOF 6
ENDMDL
MODEL 4
REMARK VINA RESULT:      -8.3     13.680     16.715
REMARK  Name = C:\Users\Docking\Desktop\test protocol\1iep_ligandH.pdb
REMARK  8 active torsions:
REMARK  status: ('A' for Active; 'I' for Inactive)
REMARK    1  A    between atoms: _5  and  _11
REMARK    2  A    between atoms: _19  and  _21
REMARK    3  A    between atoms: _22  and  _66
REMARK    4  A    between atoms: _27  and  _30
REMARK    5  A    between atoms: _32  and  _33
REMARK    6  A    between atoms: _38  and  _43
REMARK    7  A    between atoms: _43  and  _46
REMARK    8  A    between atoms: _53  and  _55
REMARK                            x       y       z     vdW  Elec       q    Type
REMARK                         _______ _______ _______ _____ _____    ______ ____
ROOT
ATOM     10  C   UNL     1       4.285   4.071  -7.062  0.00  0.00    +0.038 A 
ATOM     11  C   UNL     1       3.806   3.494  -8.266  0.00  0.00    +0.047 A 
ATOM     12  C   UNL     1       3.549   4.312  -9.441  0.00  0.00    +0.035 A 
ATOM     32  C   UNL     1       3.794   5.713  -9.356  0.00  0.00    +0.024 A 
ATOM     33  C   UNL     1       4.280   6.316  -8.140  0.00  0.00    +0.007 A 
ATOM     34  C   UNL     1       4.533   5.515  -6.976  0.00  0.00    -0.029 A 
ATOM     35  C   UNL     1       5.048   6.216  -5.698  0.00  0.00    +0.045 C 
ENDROOT
BRANCH  10   9
ATOM      4  C   UNL     1       2.905   2.004  -2.955  0.00  0.00    +0.077 A 
ATOM      5  C   UNL     1       1.629   2.658  -2.986  0.00  0.00    +0.048 A 
ATOM      6  C   UNL     1       1.369   3.524  -4.072  0.00  0.00    +0.116 A 
ATOM      7  N   UNL     1       2.323   3.714  -5.049  0.00  0.00    -0.223 NA
ATOM      8  C   UNL     1       3.544   3.069  -4.988  0.00  0.00    +0.220 A 
ATOM      9  N   UNL     1       4.515   3.239  -5.964  0.00  0.00    -0.283 N 
ATOM     36  H   UNL     1       5.406   2.751  -5.878  0.00  0.00    +0.155 HD
ATOM     37  N   UNL     1       3.817   2.238  -3.960  0.00  0.00    -0.214 NA
BRANCH   4   3
ATOM      1  C   UNL     1       5.032  -0.391  -0.711  0.00  0.00    +0.020 A 
ATOM      2  C   UNL     1       4.677   0.519  -1.775  0.00  0.00    +0.013 A 
ATOM      3  C   UNL     1       3.326   1.058  -1.874  0.00  0.00    +0.019 A 
ATOM     38  C   UNL     1       2.351   0.652  -0.873  0.00  0.00    +0.120 A 
ATOM     39  N   UNL     1       2.722  -0.228   0.139  0.00  0.00    -0.263 NA
ATOM     40  C   UNL     1       4.018  -0.754   0.244  0.00  0.00    +0.111 A 
ENDBRANCH   4   3
ENDBRANCH  10   9
BRANCH  12  13
ATOM     13  N   UNL     1       3.054   3.783 -10.688  0.00  0.00    -0.281 N 
ATOM     14  C   UNL     1       1.736   3.633 -11.086  0.00  0.00    +0.248 C 
ATOM     30  O   UNL     1       0.773   3.732 -10.340  0.00  0.00    -0.270 OA
ATOM     31  H   UNL     1       3.762   3.484 -11.359  0.00  0.00    +0.155 HD
BRANCH  14  15
ATOM     15  C   UNL     1       1.446   3.311 -12.517  0.00  0.00    +0.037 A 
ATOM     16  C   UNL     1       2.526   3.126 -13.488  0.00  0.00    +0.013 A 
ATOM     17  C   UNL     1       2.218   2.833 -14.866  0.00  0.00    +0.005 A 
ATOM     18  C   UNL     1       0.822   2.722 -15.279  0.00  0.00    -0.033 A 
ATOM     28  C   UNL     1      -0.231   2.905 -14.293  0.00  0.00    +0.005 A 
ATOM     29  C   UNL     1       0.067   3.193 -12.943  0.00  0.00    +0.013 A 
BRANCH  18  19
ATOM     19  C   UNL     1       0.400   2.433 -16.732  0.00  0.00    +0.119 C 
BRANCH  19  20
ATOM     20  N   UNL     1      -0.020   3.597 -17.567  0.00  0.00    -0.302 NA
ATOM     21  C   UNL     1       0.067   3.292 -19.065  0.00  0.00    +0.066 C 
ATOM     22  C   UNL     1      -0.398   4.514 -19.923  0.00  0.00    -0.064 C 
ATOM     23  N   UNL     1       0.452   5.735 -19.568  0.00  0.00    +0.379 N 
ATOM     24  C   UNL     1       0.057   6.870 -20.414  0.00  0.00    -0.096 C 
ATOM     25  H   UNL     1       1.513   5.489 -19.806  0.00  0.00    -0.082 HD
ATOM     26  C   UNL     1       0.373   6.044 -18.080  0.00  0.00    -0.064 C 
ATOM     27  C   UNL     1       0.809   4.814 -17.236  0.00  0.00    +0.066 C 
ENDBRANCH  19  20
ENDBRANCH  18  19
ENDBRANCH  14  15
ENDBRANCH  12  13
TORSDOF 6
ENDMDL
MODEL 5
REMARK VINA RESULT:      -8.2      2.109     12.230
REMARK  Name = C:\Users\Docking\Desktop\test protocol\1iep_ligandH.pdb
REMARK  8 active torsions:
REMARK  status: ('A' for Active; 'I' for Inactive)
REMARK    1  A    between atoms: _5  and  _11
REMARK    2  A    between atoms: _19  and  _21
REMARK    3  A    between atoms: _22  and  _66
REMARK    4  A    between atoms: _27  and  _30
REMARK    5  A    between atoms: _32  and  _33
REMARK    6  A    between atoms: _38  and  _43
REMARK    7  A    between atoms: _43  and  _46
REMARK    8  A    between atoms: _53  and  _55
REMARK                            x       y       z     vdW  Elec       q    Type
REMARK                         _______ _______ _______ _____ _____    ______ ____
ROOT
ATOM     10  C   UNL     1      15.697  11.896  -9.378  0.00  0.00    +0.038 A 
ATOM     11  C   UNL     1      16.519  10.798  -9.742  0.00  0.00    +0.047 A 
ATOM     12  C   UNL     1      17.938  10.783  -9.422  0.00  0.00    +0.035 A 
ATOM     32  C   UNL     1      18.487  11.901  -8.729  0.00  0.00    +0.024 A 
ATOM     33  C   UNL     1      17.666  13.025  -8.353  0.00  0.00    +0.007 A 
ATOM     34  C   UNL     1      16.267  13.047  -8.667  0.00  0.00    -0.029 A 
ATOM     35  C   UNL     1      15.436  14.281  -8.245  0.00  0.00    +0.045 C 
ENDROOT
BRANCH  10   9
ATOM      4  C   UNL     1      11.158  10.610  -8.494  0.00  0.00    +0.077 A 
ATOM      5  C   UNL     1      11.523   9.933  -7.283  0.00  0.00    +0.048 A 
ATOM      6  C   UNL     1      12.890   9.933  -6.927  0.00  0.00    +0.116 A 
ATOM      7  N   UNL     1      13.815  10.566  -7.729  0.00  0.00    -0.223 NA
ATOM      8  C   UNL     1      13.429  11.208  -8.892  0.00  0.00    +0.220 A 
ATOM      9  N   UNL     1      14.341  11.858  -9.710  0.00  0.00    -0.283 N 
ATOM     36  H   UNL     1      14.018  12.314 -10.563  0.00  0.00    +0.155 HD
ATOM     37  N   UNL     1      12.130  11.221  -9.255  0.00  0.00    -0.214 NA
BRANCH   4   3
ATOM      1  C   UNL     1       7.606   9.671  -9.837  0.00  0.00    +0.020 A 
ATOM      2  C   UNL     1       8.959   9.529  -9.350  0.00  0.00    +0.013 A 
ATOM      3  C   UNL     1       9.753  10.701  -9.003  0.00  0.00    +0.019 A 
ATOM     38  C   UNL     1       9.143  12.013  -9.160  0.00  0.00    +0.120 A 
ATOM     39  N   UNL     1       7.838  12.119  -9.632  0.00  0.00    -0.263 NA
ATOM     40  C   UNL     1       7.066  10.999  -9.971  0.00  0.00    +0.111 A 
ENDBRANCH   4   3
ENDBRANCH  10   9
BRANCH  12  13
ATOM     13  N   UNL     1      18.824   9.700  -9.773  0.00  0.00    -0.281 N 
ATOM     14  C   UNL     1      19.189   8.613  -8.997  0.00  0.00    +0.248 C 
ATOM     30  O   UNL     1      18.976   8.518  -7.797  0.00  0.00    -0.270 OA
ATOM     31  H   UNL     1      19.230   9.740 -10.708  0.00  0.00    +0.155 HD
BRANCH  14  15
ATOM     15  C   UNL     1      19.909   7.473  -9.643  0.00  0.00    +0.037 A 
ATOM     16  C   UNL     1      19.598   6.084  -9.295  0.00  0.00    +0.013 A 
ATOM     17  C   UNL     1      20.319   5.004  -9.921  0.00  0.00    +0.005 A 
ATOM     18  C   UNL     1      21.357   5.309 -10.902  0.00  0.00    -0.033 A 
ATOM     28  C   UNL     1      21.641   6.696 -11.232  0.00  0.00    +0.005 A 
ATOM     29  C   UNL     1      20.937   7.758 -10.620  0.00  0.00    +0.013 A 
BRANCH  18  19
ATOM     19  C   UNL     1      22.191   4.221 -11.604  0.00  0.00    +0.119 C 
BRANCH  19  20
ATOM     20  N   UNL     1      23.642   4.502 -11.816  0.00  0.00    -0.302 NA
ATOM     21  C   UNL     1      23.984   4.672 -13.299  0.00  0.00    +0.066 C 
ATOM     22  C   UNL     1      25.502   4.988 -13.501  0.00  0.00    -0.064 C 
ATOM     23  N   UNL     1      26.340   3.871 -12.877  0.00  0.00    +0.379 N 
ATOM     24  C   UNL     1      27.766   4.135 -13.116  0.00  0.00    -0.096 C 
ATOM     25  H   UNL     1      26.079   2.921 -13.400  0.00  0.00    -0.082 HD
ATOM     26  C   UNL     1      26.004   3.693 -11.403  0.00  0.00    -0.064 C 
ATOM     27  C   UNL     1      24.488   3.409 -11.211  0.00  0.00    +0.066 C 
ENDBRANCH  19  20
ENDBRANCH  18  19
ENDBRANCH  14  15
ENDBRANCH  12  13
TORSDOF 6
ENDMDL
