MODEL 1
REMARK VINA RESULT:      -8.5      0.000      0.000
REMARK  Name = C:\Users\Docking\Desktop\test protocol\1iep_ligandH.pdb
REMARK  8 active torsions:
REMARK  status: ('A' for Active; 'I' for Inactive)
REMARK    1  A    between atoms: _5  and  _11
REMARK    2  A    between atoms: _19  and  _21
REMARK    3  A    between atoms: _22  and  _66
REMARK    4  A    between atoms: _27  and  _30
REMARK    5  A    between atoms: _32  and  _33
REMARK    6  A    between atoms: _38  and  _43
REMARK    7  A    between atoms: _43  and  _46
REMARK    8  A    between atoms: _53  and  _55
REMARK                            x       y       z     vdW  Elec       q    Type
REMARK                         _______ _______ _______ _____ _____    ______ ____
ROOT
ATOM     10  C   UNL     1     -20.924  19.759 -16.100  0.00  0.00    +0.038 A 
ATOM     11  C   UNL     1     -20.241  20.303 -14.982  0.00  0.00    +0.047 A 
ATOM     12  C   UNL     1     -20.969  20.884 -13.865  0.00  0.00    +0.035 A 
ATOM     32  C   UNL     1     -22.393  20.893 -13.918  0.00  0.00    +0.024 A 
ATOM     33  C   UNL     1     -23.104  20.345 -15.047  0.00  0.00    +0.007 A 
ATOM     34  C   UNL     1     -22.391  19.772 -16.153  0.00  0.00    -0.029 A 
ATOM     35  C   UNL     1     -23.204  19.206 -17.340  0.00  0.00    +0.045 C 
ENDROOT
BRANCH  10   9
ATOM      4  C   UNL     1     -18.289  20.181 -20.089  0.00  0.00    +0.077 A 
ATOM      5  C   UNL     1     -18.440  21.607 -20.109  0.00  0.00    +0.048 A 
ATOM      6  C   UNL     1     -19.209  22.193 -19.079  0.00  0.00    +0.116 A 
ATOM      7  N   UNL     1     -19.780  21.401 -18.106  0.00  0.00    -0.223 NA
ATOM      8  C   UNL     1     -19.616  20.028 -18.117  0.00  0.00    +0.220 A 
ATOM      9  N   UNL     1     -20.175  19.213 -17.145  0.00  0.00    -0.283 N 
ATOM     36  H   UNL     1     -20.037  18.204 -17.192  0.00  0.00    +0.155 HD
ATOM     37  N   UNL     1     -18.887  19.445 -19.091  0.00  0.00    -0.214 NA
BRANCH   4   3
ATOM      1  C   UNL     1     -15.973  19.277 -23.109  0.00  0.00    +0.020 A 
ATOM      2  C   UNL     1     -16.714  20.062 -22.150  0.00  0.00    +0.013 A 
ATOM      3  C   UNL     1     -17.503  19.416 -21.108  0.00  0.00    +0.019 A 
ATOM     38  C   UNL     1     -17.519  17.961 -21.064  0.00  0.00    +0.120 A 
ATOM     39  N   UNL     1     -16.796  17.231 -22.002  0.00  0.00    -0.263 NA
ATOM     40  C   UNL     1     -16.035  17.842 -23.010  0.00  0.00    +0.111 A 
ENDBRANCH   4   3
ENDBRANCH  10   9
BRANCH  12  13
ATOM     13  N   UNL     1     -20.329  21.459 -12.708  0.00  0.00    -0.281 N 
ATOM     14  C   UNL     1     -20.852  22.382 -11.816  0.00  0.00    +0.248 C 
ATOM     30  O   UNL     1     -21.878  23.018 -12.002  0.00  0.00    -0.270 OA
ATOM     31  H   UNL     1     -19.376  21.147 -12.523  0.00  0.00    +0.155 HD
BRANCH  14  15
ATOM     15  C   UNL     1     -20.120  22.647 -10.540  0.00  0.00    +0.037 A 
ATOM     16  C   UNL     1     -20.090  23.986  -9.946  0.00  0.00    +0.013 A 
ATOM     17  C   UNL     1     -19.363  24.219  -8.723  0.00  0.00    +0.005 A 
ATOM     18  C   UNL     1     -18.660  23.108  -8.086  0.00  0.00    -0.033 A 
ATOM     28  C   UNL     1     -18.710  21.789  -8.695  0.00  0.00    +0.005 A 
ATOM     29  C   UNL     1     -19.421  21.557  -9.894  0.00  0.00    +0.013 A 
BRANCH  18  19
ATOM     19  C   UNL     1     -17.841  23.269  -6.792  0.00  0.00    +0.119 C 
BRANCH  19  20
ATOM     20  N   UNL     1     -18.588  23.630  -5.550  0.00  0.00    -0.302 NA
ATOM     21  C   UNL     1     -20.092  23.771  -5.805  0.00  0.00    +0.066 C 
ATOM     22  C   UNL     1     -20.861  24.127  -4.492  0.00  0.00    -0.064 C 
ATOM     23  N   UNL     1     -20.289  25.418  -3.903  0.00  0.00    +0.379 N 
ATOM     24  C   UNL     1     -21.048  25.787  -2.700  0.00  0.00    -0.096 C 
ATOM     25  H   UNL     1     -20.435  26.226  -4.657  0.00  0.00    -0.082 HD
ATOM     26  C   UNL     1     -18.794  25.288  -3.649  0.00  0.00    -0.064 C 
ATOM     27  C   UNL     1     -18.042  24.905  -4.955  0.00  0.00    +0.066 C 
ENDBRANCH  19  20
ENDBRANCH  18  19
ENDBRANCH  14  15
ENDBRANCH  12  13
TORSDOF 6
ENDMDL
MODEL 2
REMARK VINA RESULT:      -8.4      7.250     12.353
REMARK  Name = C:\Users\Docking\Desktop\test protocol\1iep_ligandH.pdb
REMARK  8 active torsions:
REMARK  status: ('A' for Active; 'I' for Inactive)
REMARK    1  A    between atoms: _5  and  _11
REMARK    2  A    between atoms: _19  and  _21
REMARK    3  A    between atoms: _22  and  _66
REMARK    4  A    between atoms: _27  and  _30
REMARK    5  A    between atoms: _32  and  _33
REMARK    6  A    between atoms: _38  and  _43
REMARK    7  A    between atoms: _43  and  _46
REMARK    8  A    between atoms: _53  and  _55
REMARK                            x       y       z     vdW  Elec       q    Type
REMARK                         _______ _______ _______ _____ _____    ______ ____
ROOT
ATOM     10  C   UNL     1     -14.669  12.118 -20.605  0.00  0.00    +0.038 A 
ATOM     11  C   UNL     1     -15.342  13.333 -20.317  0.00  0.00    +0.047 A 
ATOM     12  C   UNL     1     -14.861  14.601 -20.842  0.00  0.00    +0.035 A 
ATOM     32  C   UNL     1     -13.694  14.596 -21.660  0.00  0.00    +0.024 A 
ATOM     33  C   UNL     1     -12.998  13.370 -21.962  0.00  0.00    +0.007 A 
ATOM     34  C   UNL     1     -13.465  12.116 -21.445  0.00  0.00    -0.029 A 
ATOM     35  C   UNL     1     -12.675  10.833 -21.796  0.00  0.00    +0.045 C 
ENDROOT
BRANCH  10   9
ATOM      4  C   UNL     1     -15.127   8.928 -17.048  0.00  0.00    +0.077 A 
ATOM      5  C   UNL     1     -14.266   9.680 -16.183  0.00  0.00    +0.048 A 
ATOM      6  C   UNL     1     -13.720  10.879 -16.694  0.00  0.00    +0.116 A 
ATOM      7  N   UNL     1     -14.020  11.286 -17.976  0.00  0.00    -0.223 NA
ATOM      8  C   UNL     1     -14.853  10.535 -18.785  0.00  0.00    +0.220 A 
ATOM      9  N   UNL     1     -15.174  10.928 -20.075  0.00  0.00    -0.283 N 
ATOM     36  H   UNL     1     -15.786  10.343 -20.643  0.00  0.00    +0.155 HD
ATOM     37  N   UNL     1     -15.386   9.385 -18.321  0.00  0.00    -0.214 NA
BRANCH   4   3
ATOM      1  C   UNL     1     -15.715   5.250 -15.852  0.00  0.00    +0.020 A 
ATOM      2  C   UNL     1     -15.033   6.468 -16.224  0.00  0.00    +0.013 A 
ATOM      3  C   UNL     1     -15.783   7.642 -16.652  0.00  0.00    +0.019 A 
ATOM     38  C   UNL     1     -17.235   7.550 -16.691  0.00  0.00    +0.120 A 
ATOM     39  N   UNL     1     -17.865   6.363 -16.327  0.00  0.00    -0.263 NA
ATOM     40  C   UNL     1     -17.153   5.227 -15.916  0.00  0.00    +0.111 A 
ENDBRANCH   4   3
ENDBRANCH  10   9
BRANCH  12  13
ATOM     13  N   UNL     1     -15.498  15.868 -20.577  0.00  0.00    -0.281 N 
ATOM     14  C   UNL     1     -16.575  16.435 -21.238  0.00  0.00    +0.248 C 
ATOM     30  O   UNL     1     -17.023  16.032 -22.301  0.00  0.00    -0.270 OA
ATOM     31  H   UNL     1     -15.106  16.413 -19.808  0.00  0.00    +0.155 HD
BRANCH  14  15
ATOM     15  C   UNL     1     -17.243  17.630 -20.638  0.00  0.00    +0.037 A 
ATOM     16  C   UNL     1     -17.129  18.954 -21.255  0.00  0.00    +0.013 A 
ATOM     17  C   UNL     1     -17.769  20.093 -20.646  0.00  0.00    +0.005 A 
ATOM     18  C   UNL     1     -18.531  19.912 -19.412  0.00  0.00    -0.033 A 
ATOM     28  C   UNL     1     -18.632  18.586 -18.824  0.00  0.00    +0.005 A 
ATOM     29  C   UNL     1     -18.005  17.468 -19.418  0.00  0.00    +0.013 A 
BRANCH  18  19
ATOM     19  C   UNL     1     -19.229  21.075 -18.682  0.00  0.00    +0.119 C 
BRANCH  19  20
ATOM     20  N   UNL     1     -20.282  20.722 -17.684  0.00  0.00    -0.302 NA
ATOM     21  C   UNL     1     -21.335  21.824 -17.546  0.00  0.00    +0.066 C 
ATOM     22  C   UNL     1     -22.441  21.429 -16.514  0.00  0.00    -0.064 C 
ATOM     23  N   UNL     1     -21.790  21.129 -15.163  0.00  0.00    +0.379 N 
ATOM     24  C   UNL     1     -22.833  20.813 -14.176  0.00  0.00    -0.096 C 
ATOM     25  H   UNL     1     -21.273  22.056 -14.824  0.00  0.00    -0.082 HD
ATOM     26  C   UNL     1     -20.740  20.035 -15.292  0.00  0.00    -0.064 C 
ATOM     27  C   UNL     1     -19.661  20.426 -16.341  0.00  0.00    +0.066 C 
ENDBRANCH  19  20
ENDBRANCH  18  19
ENDBRANCH  14  15
ENDBRANCH  12  13
TORSDOF 6
ENDMDL
MODEL 3
REMARK VINA RESULT:      -8.4      6.150      9.578
REMARK  Name = C:\Users\Docking\Desktop\test protocol\1iep_ligandH.pdb
REMARK  8 active torsions:
REMARK  status: ('A' for Active; 'I' for Inactive)
REMARK    1  A    between atoms: _5  and  _11
REMARK    2  A    between atoms: _19  and  _21
REMARK    3  A    between atoms: _22  and  _66
REMARK    4  A    between atoms: _27  and  _30
REMARK    5  A    between atoms: _32  and  _33
REMARK    6  A    between atoms: _38  and  _43
REMARK    7  A    between atoms: _43  and  _46
REMARK    8  A    between atoms: _53  and  _55
REMARK                            x       y       z     vdW  Elec       q    Type
REMARK                         _______ _______ _______ _____ _____    ______ ____
ROOT
ATOM     10  C   UNL     1     -20.778  23.118 -10.364  0.00  0.00    +0.038 A 
ATOM     11  C   UNL     1     -20.479  23.548  -9.046  0.00  0.00    +0.047 A 
ATOM     12  C   UNL     1     -19.544  22.812  -8.209  0.00  0.00    +0.035 A 
ATOM     32  C   UNL     1     -18.930  21.644  -8.747  0.00  0.00    +0.024 A 
ATOM     33  C   UNL     1     -19.224  21.192 -10.084  0.00  0.00    +0.007 A 
ATOM     34  C   UNL     1     -20.147  21.912 -10.914  0.00  0.00    -0.029 A 
ATOM     35  C   UNL     1     -20.429  21.378 -12.337  0.00  0.00    +0.045 C 
ENDROOT
BRANCH  10   9
ATOM      4  C   UNL     1     -24.848  25.616 -10.851  0.00  0.00    +0.077 A 
ATOM      5  C   UNL     1     -25.216  25.396  -9.482  0.00  0.00    +0.048 A 
ATOM      6  C   UNL     1     -24.334  24.629  -8.688  0.00  0.00    +0.116 A 
ATOM      7  N   UNL     1     -23.173  24.124  -9.233  0.00  0.00    -0.223 NA
ATOM      8  C   UNL     1     -22.849  24.353 -10.557  0.00  0.00    +0.220 A 
ATOM      9  N   UNL     1     -21.683  23.863 -11.124  0.00  0.00    -0.283 N 
ATOM     36  H   UNL     1     -21.483  24.047 -12.107  0.00  0.00    +0.155 HD
ATOM     37  N   UNL     1     -23.675  25.082 -11.337  0.00  0.00    -0.214 NA
BRANCH   4   3
ATOM      1  C   UNL     1     -27.468  26.619 -13.577  0.00  0.00    +0.020 A 
ATOM      2  C   UNL     1     -26.697  25.808 -12.662  0.00  0.00    +0.013 A 
ATOM      3  C   UNL     1     -25.674  26.408 -11.815  0.00  0.00    +0.019 A 
ATOM     38  C   UNL     1     -25.455  27.843 -11.917  0.00  0.00    +0.120 A 
ATOM     39  N   UNL     1     -26.212  28.598 -12.808  0.00  0.00    -0.263 NA
ATOM     40  C   UNL     1     -27.198  28.031 -13.630  0.00  0.00    +0.111 A 
ENDBRANCH   4   3
ENDBRANCH  10   9
BRANCH  12  13
ATOM     13  N   UNL     1     -19.207  23.196  -6.860  0.00  0.00    -0.281 N 
ATOM     14  C   UNL     1     -17.963  23.541  -6.359  0.00  0.00    +0.248 C 
ATOM     30  O   UNL     1     -16.907  23.365  -6.948  0.00  0.00    -0.270 OA
ATOM     31  H   UNL     1     -19.980  23.216  -6.194  0.00  0.00    +0.155 HD
BRANCH  14  15
ATOM     15  C   UNL     1     -17.878  24.159  -5.000  0.00  0.00    +0.037 A 
ATOM     16  C   UNL     1     -16.650  24.077  -4.204  0.00  0.00    +0.013 A 
ATOM     17  C   UNL     1     -16.601  24.667  -2.889  0.00  0.00    +0.005 A 
ATOM     18  C   UNL     1     -17.783  25.344  -2.363  0.00  0.00    -0.033 A 
ATOM     28  C   UNL     1     -18.986  25.415  -3.177  0.00  0.00    +0.005 A 
ATOM     29  C   UNL     1     -19.039  24.837  -4.465  0.00  0.00    +0.013 A 
BRANCH  18  19
ATOM     19  C   UNL     1     -17.827  25.983  -0.963  0.00  0.00    +0.119 C 
BRANCH  19  20
ATOM     20  N   UNL     1     -18.017  25.067   0.201  0.00  0.00    -0.302 NA
ATOM     21  C   UNL     1     -16.689  24.492   0.703  0.00  0.00    +0.066 C 
ATOM     22  C   UNL     1     -16.904  23.554   1.935  0.00  0.00    -0.064 C 
ATOM     23  N   UNL     1     -17.870  22.431   1.554  0.00  0.00    +0.379 N 
ATOM     24  C   UNL     1     -18.029  21.514   2.692  0.00  0.00    -0.096 C 
ATOM     25  H   UNL     1     -17.408  21.856   0.718  0.00  0.00    -0.082 HD
ATOM     26  C   UNL     1     -19.192  22.993   1.052  0.00  0.00    -0.064 C 
ATOM     27  C   UNL     1     -18.965  23.948  -0.154  0.00  0.00    +0.066 C 
ENDBRANCH  19  20
ENDBRANCH  18  19
ENDBRANCH  14  15
ENDBRANCH  12  13
TORSDOF 6
ENDMDL
MODEL 4
REMARK VINA RESULT:      -8.3      8.064      9.069
REMARK  Name = C:\Users\Docking\Desktop\test protocol\1iep_ligandH.pdb
REMARK  8 active torsions:
REMARK  status: ('A' for Active; 'I' for Inactive)
REMARK    1  A    between atoms: _5  and  _11
REMARK    2  A    between atoms: _19  and  _21
REMARK    3  A    between atoms: _22  and  _66
REMARK    4  A    between atoms: _27  and  _30
REMARK    5  A    between atoms: _32  and  _33
REMARK    6  A    between atoms: _38  and  _43
REMARK    7  A    between atoms: _43  and  _46
REMARK    8  A    between atoms: _53  and  _55
REMARK                            x       y       z     vdW  Elec       q    Type
REMARK                         _______ _______ _______ _____ _____    ______ ____
ROOT
ATOM     10  C   UNL     1     -27.039  27.409 -12.430  0.00  0.00    +0.038 A 
ATOM     11  C   UNL     1     -25.862  26.897 -11.826  0.00  0.00    +0.047 A 
ATOM     12  C   UNL     1     -25.514  27.232 -10.454  0.00  0.00    +0.035 A 
ATOM     32  C   UNL     1     -26.389  28.088  -9.724  0.00  0.00    +0.024 A 
ATOM     33  C   UNL     1     -27.589  28.618 -10.323  0.00  0.00    +0.007 A 
ATOM     34  C   UNL     1     -27.936  28.293 -11.677  0.00  0.00    -0.029 A 
ATOM     35  C   UNL     1     -29.232  28.895 -12.270  0.00  0.00    +0.045 C 
ENDROOT
BRANCH  10   9
ATOM      4  C   UNL     1     -26.810  28.180 -17.162  0.00  0.00    +0.077 A 
ATOM      5  C   UNL     1     -26.084  29.404 -16.987  0.00  0.00    +0.048 A 
ATOM      6  C   UNL     1     -25.796  29.804 -15.663  0.00  0.00    +0.116 A 
ATOM      7  N   UNL     1     -26.207  29.029 -14.600  0.00  0.00    -0.223 NA
ATOM      8  C   UNL     1     -26.907  27.854 -14.804  0.00  0.00    +0.220 A 
ATOM      9  N   UNL     1     -27.324  27.055 -13.751  0.00  0.00    -0.283 N 
ATOM     36  H   UNL     1     -27.845  26.200 -13.942  0.00  0.00    +0.155 HD
ATOM     37  N   UNL     1     -27.197  27.451 -16.059  0.00  0.00    -0.214 NA
BRANCH   4   3
ATOM      1  C   UNL     1     -27.122  27.623 -21.021  0.00  0.00    +0.020 A 
ATOM      2  C   UNL     1     -26.729  28.200 -19.756  0.00  0.00    +0.013 A 
ATOM      3  C   UNL     1     -27.188  27.623 -18.499  0.00  0.00    +0.019 A 
ATOM     38  C   UNL     1     -28.050  26.452 -18.557  0.00  0.00    +0.120 A 
ATOM     39  N   UNL     1     -28.414  25.919 -19.790  0.00  0.00    -0.263 NA
ATOM     40  C   UNL     1     -27.979  26.467 -21.006  0.00  0.00    +0.111 A 
ENDBRANCH   4   3
ENDBRANCH  10   9
BRANCH  12  13
ATOM     13  N   UNL     1     -24.328  26.749  -9.790  0.00  0.00    -0.281 N 
ATOM     14  C   UNL     1     -24.035  25.450  -9.409  0.00  0.00    +0.248 C 
ATOM     30  O   UNL     1     -24.845  24.535  -9.391  0.00  0.00    -0.270 OA
ATOM     31  H   UNL     1     -23.619  27.450  -9.575  0.00  0.00    +0.155 HD
BRANCH  14  15
ATOM     15  C   UNL     1     -22.643  25.122  -8.973  0.00  0.00    +0.037 A 
ATOM     16  C   UNL     1     -22.070  25.707  -7.758  0.00  0.00    +0.013 A 
ATOM     17  C   UNL     1     -20.720  25.388  -7.369  0.00  0.00    +0.005 A 
ATOM     18  C   UNL     1     -19.933  24.476  -8.196  0.00  0.00    -0.033 A 
ATOM     28  C   UNL     1     -20.527  23.906  -9.393  0.00  0.00    +0.005 A 
ATOM     29  C   UNL     1     -21.851  24.218  -9.779  0.00  0.00    +0.013 A 
BRANCH  18  19
ATOM     19  C   UNL     1     -18.476  24.096  -7.869  0.00  0.00    +0.119 C 
BRANCH  19  20
ATOM     20  N   UNL     1     -17.958  24.473  -6.520  0.00  0.00    -0.302 NA
ATOM     21  C   UNL     1     -16.429  24.428  -6.459  0.00  0.00    +0.066 C 
ATOM     22  C   UNL     1     -15.902  24.847  -5.048  0.00  0.00    -0.064 C 
ATOM     23  N   UNL     1     -16.514  23.931  -3.986  0.00  0.00    +0.379 N 
ATOM     24  C   UNL     1     -15.976  24.286  -2.664  0.00  0.00    -0.096 C 
ATOM     25  H   UNL     1     -16.192  22.888  -4.214  0.00  0.00    -0.082 HD
ATOM     26  C   UNL     1     -18.034  23.968  -4.041  0.00  0.00    -0.064 C 
ATOM     27  C   UNL     1     -18.546  23.578  -5.456  0.00  0.00    +0.066 C 
ENDBRANCH  19  20
ENDBRANCH  18  19
ENDBRANCH  14  15
ENDBRANCH  12  13
TORSDOF 6
ENDMDL
MODEL 5
REMARK VINA RESULT:      -8.3      7.934     12.597
REMARK  Name = C:\Users\Docking\Desktop\test protocol\1iep_ligandH.pdb
REMARK  8 active torsions:
REMARK  status: ('A' for Active; 'I' for Inactive)
REMARK    1  A    between atoms: _5  and  _11
REMARK    2  A    between atoms: _19  and  _21
REMARK    3  A    between atoms: _22  and  _66
REMARK    4  A    between atoms: _27  and  _30
REMARK    5  A    between atoms: _32  and  _33
REMARK    6  A    between atoms: _38  and  _43
REMARK    7  A    between atoms: _43  and  _46
REMARK    8  A    between atoms: _53  and  _55
REMARK                            x       y       z     vdW  Elec       q    Type
REMARK                         _______ _______ _______ _____ _____    ______ ____
ROOT
ATOM     10  C   UNL     1     -14.907  12.532 -20.586  0.00  0.00    +0.038 A 
ATOM     11  C   UNL     1     -15.572  13.741 -20.260  0.00  0.00    +0.047 A 
ATOM     12  C   UNL     1     -15.098  15.021 -20.762  0.00  0.00    +0.035 A 
ATOM     32  C   UNL     1     -13.942  15.032 -21.598  0.00  0.00    +0.024 A 
ATOM     33  C   UNL     1     -13.253  13.813 -21.938  0.00  0.00    +0.007 A 
ATOM     34  C   UNL     1     -13.715  12.548 -21.443  0.00  0.00    -0.029 A 
ATOM     35  C   UNL     1     -12.933  11.273 -21.835  0.00  0.00    +0.045 C 
ENDROOT
BRANCH  10   9
ATOM      4  C   UNL     1     -15.200   9.187 -17.156  0.00  0.00    +0.077 A 
ATOM      5  C   UNL     1     -14.258   9.876 -16.321  0.00  0.00    +0.048 A 
ATOM      6  C   UNL     1     -13.716  11.084 -16.815  0.00  0.00    +0.116 A 
ATOM      7  N   UNL     1     -14.095  11.559 -18.051  0.00  0.00    -0.223 NA
ATOM      8  C   UNL     1     -15.004  10.869 -18.832  0.00  0.00    +0.220 A 
ATOM      9  N   UNL     1     -15.406  11.332 -20.075  0.00  0.00    -0.283 N 
ATOM     36  H   UNL     1     -16.074  10.790 -20.624  0.00  0.00    +0.155 HD
ATOM     37  N   UNL     1     -15.535   9.712 -18.384  0.00  0.00    -0.214 NA
BRANCH   4   3
ATOM      1  C   UNL     1     -15.804   5.492 -16.026  0.00  0.00    +0.020 A 
ATOM      2  C   UNL     1     -15.116   6.709 -16.388  0.00  0.00    +0.013 A 
ATOM      3  C   UNL     1     -15.862   7.901 -16.772  0.00  0.00    +0.019 A 
ATOM     38  C   UNL     1     -17.315   7.826 -16.779  0.00  0.00    +0.120 A 
ATOM     39  N   UNL     1     -17.951   6.640 -16.427  0.00  0.00    -0.263 NA
ATOM     40  C   UNL     1     -17.243   5.486 -16.057  0.00  0.00    +0.111 A 
ENDBRANCH   4   3
ENDBRANCH  10   9
BRANCH  12  13
ATOM     13  N   UNL     1     -15.728  16.282 -20.459  0.00  0.00    -0.281 N 
ATOM     14  C   UNL     1     -16.971  16.734 -20.870  0.00  0.00    +0.248 C 
ATOM     30  O   UNL     1     -17.644  16.206 -21.743  0.00  0.00    -0.270 OA
ATOM     31  H   UNL     1     -15.192  16.919 -19.868  0.00  0.00    +0.155 HD
BRANCH  14  15
ATOM     15  C   UNL     1     -17.543  17.957 -20.230  0.00  0.00    +0.037 A 
ATOM     16  C   UNL     1     -18.257  17.883 -18.953  0.00  0.00    +0.013 A 
ATOM     17  C   UNL     1     -18.813  19.076 -18.365  0.00  0.00    +0.005 A 
ATOM     18  C   UNL     1     -18.656  20.355 -19.055  0.00  0.00    -0.033 A 
ATOM     28  C   UNL     1     -17.938  20.400 -20.318  0.00  0.00    +0.005 A 
ATOM     29  C   UNL     1     -17.392  19.233 -20.897  0.00  0.00    +0.013 A 
BRANCH  18  19
ATOM     19  C   UNL     1     -19.236  21.674 -18.512  0.00  0.00    +0.119 C 
BRANCH  19  20
ATOM     20  N   UNL     1     -20.645  22.004 -18.879  0.00  0.00    -0.302 NA
ATOM     21  C   UNL     1     -20.720  23.106 -19.940  0.00  0.00    +0.066 C 
ATOM     22  C   UNL     1     -22.201  23.422 -20.328  0.00  0.00    -0.064 C 
ATOM     23  N   UNL     1     -22.979  23.824 -19.073  0.00  0.00    +0.379 N 
ATOM     24  C   UNL     1     -24.358  24.179 -19.443  0.00  0.00    -0.096 C 
ATOM     25  H   UNL     1     -22.496  24.737 -18.654  0.00  0.00    -0.082 HD
ATOM     26  C   UNL     1     -22.908  22.736 -18.012  0.00  0.00    -0.064 C 
ATOM     27  C   UNL     1     -21.431  22.408 -17.655  0.00  0.00    +0.066 C 
ENDBRANCH  19  20
ENDBRANCH  18  19
ENDBRANCH  14  15
ENDBRANCH  12  13
TORSDOF 6
ENDMDL
