MODEL 1
REMARK VINA RESULT:      -8.3      0.000      0.000
REMARK  Name = C:\Users\Docking\Desktop\test protocol\1iep_ligandH.pdb
REMARK  8 active torsions:
REMARK  status: ('A' for Active; 'I' for Inactive)
REMARK    1  A    between atoms: _5  and  _11
REMARK    2  A    between atoms: _19  and  _21
REMARK    3  A    between atoms: _22  and  _66
REMARK    4  A    between atoms: _27  and  _30
REMARK    5  A    between atoms: _32  and  _33
REMARK    6  A    between atoms: _38  and  _43
REMARK    7  A    between atoms: _43  and  _46
REMARK    8  A    between atoms: _53  and  _55
REMARK                            x       y       z     vdW  Elec       q    Type
REMARK                         _______ _______ _______ _____ _____    ______ ____
ROOT
ATOM     10  C   UNL     1      -4.900   5.556 -18.632  0.00  0.00    +0.038 A 
ATOM     11  C   UNL     1      -5.190   4.216 -18.269  0.00  0.00    +0.047 A 
ATOM     12  C   UNL     1      -4.457   3.550 -17.204  0.00  0.00    +0.035 A 
ATOM     32  C   UNL     1      -3.437   4.279 -16.527  0.00  0.00    +0.024 A 
ATOM     33  C   UNL     1      -3.128   5.641 -16.884  0.00  0.00    +0.007 A 
ATOM     34  C   UNL     1      -3.845   6.303 -17.935  0.00  0.00    -0.029 A 
ATOM     35  C   UNL     1      -3.468   7.763 -18.280  0.00  0.00    +0.045 C 
ENDROOT
BRANCH  10   9
ATOM      4  C   UNL     1      -5.469   6.860 -23.216  0.00  0.00    +0.077 A 
ATOM      5  C   UNL     1      -4.182   6.343 -23.584  0.00  0.00    +0.048 A 
ATOM      6  C   UNL     1      -3.401   5.757 -22.563  0.00  0.00    +0.116 A 
ATOM      7  N   UNL     1      -3.883   5.696 -21.273  0.00  0.00    -0.223 NA
ATOM      8  C   UNL     1      -5.127   6.205 -20.951  0.00  0.00    +0.220 A 
ATOM      9  N   UNL     1      -5.634   6.147 -19.662  0.00  0.00    -0.283 N 
ATOM     36  H   UNL     1      -6.554   6.540 -19.464  0.00  0.00    +0.155 HD
ATOM     37  N   UNL     1      -5.891   6.771 -21.909  0.00  0.00    -0.214 NA
BRANCH   4   3
ATOM      1  C   UNL     1      -8.160   9.217 -24.797  0.00  0.00    +0.020 A 
ATOM      2  C   UNL     1      -7.268   8.629 -23.825  0.00  0.00    +0.013 A 
ATOM      3  C   UNL     1      -6.411   7.506 -24.184  0.00  0.00    +0.019 A 
ATOM     38  C   UNL     1      -6.481   6.998 -25.546  0.00  0.00    +0.120 A 
ATOM     39  N   UNL     1      -7.351   7.584 -26.460  0.00  0.00    -0.263 NA
ATOM     40  C   UNL     1      -8.182   8.664 -26.125  0.00  0.00    +0.111 A 
ENDBRANCH   4   3
ENDBRANCH  10   9
BRANCH  12  13
ATOM     13  N   UNL     1      -4.702   2.188 -16.797  0.00  0.00    -0.281 N 
ATOM     14  C   UNL     1      -5.555   1.737 -15.803  0.00  0.00    +0.248 C 
ATOM     30  O   UNL     1      -6.080   2.454 -14.964  0.00  0.00    -0.270 OA
ATOM     31  H   UNL     1      -4.184   1.470 -17.303  0.00  0.00    +0.155 HD
BRANCH  14  15
ATOM     15  C   UNL     1      -5.857   0.275 -15.719  0.00  0.00    +0.037 A 
ATOM     16  C   UNL     1      -4.847  -0.730 -16.059  0.00  0.00    +0.013 A 
ATOM     17  C   UNL     1      -5.169  -2.133 -15.986  0.00  0.00    +0.005 A 
ATOM     18  C   UNL     1      -6.510  -2.539 -15.570  0.00  0.00    -0.033 A 
ATOM     28  C   UNL     1      -7.491  -1.521 -15.235  0.00  0.00    +0.005 A 
ATOM     29  C   UNL     1      -7.179  -0.145 -15.306  0.00  0.00    +0.013 A 
BRANCH  18  19
ATOM     19  C   UNL     1      -6.949  -4.013 -15.485  0.00  0.00    +0.119 C 
BRANCH  19  20
ATOM     20  N   UNL     1      -7.699  -4.433 -14.264  0.00  0.00    -0.302 NA
ATOM     21  C   UNL     1      -6.865  -4.264 -12.991  0.00  0.00    +0.066 C 
ATOM     22  C   UNL     1      -7.673  -4.687 -11.721  0.00  0.00    -0.064 C 
ATOM     23  N   UNL     1      -8.138  -6.136 -11.875  0.00  0.00    +0.379 N 
ATOM     24  C   UNL     1      -8.848  -6.556 -10.658  0.00  0.00    -0.096 C 
ATOM     25  H   UNL     1      -7.229  -6.774 -11.974  0.00  0.00    -0.082 HD
ATOM     26  C   UNL     1      -8.966  -6.314 -13.140  0.00  0.00    -0.064 C 
ATOM     27  C   UNL     1      -8.164  -5.863 -14.393  0.00  0.00    +0.066 C 
ENDBRANCH  19  20
ENDBRANCH  18  19
ENDBRANCH  14  15
ENDBRANCH  12  13
TORSDOF 6
ENDMDL
MODEL 2
REMARK VINA RESULT:      -8.1      1.759      2.438
REMARK  Name = C:\Users\Docking\Desktop\test protocol\1iep_ligandH.pdb
REMARK  8 active torsions:
REMARK  status: ('A' for Active; 'I' for Inactive)
REMARK    1  A    between atoms: _5  and  _11
REMARK    2  A    between atoms: _19  and  _21
REMARK    3  A    between atoms: _22  and  _66
REMARK    4  A    between atoms: _27  and  _30
REMARK    5  A    between atoms: _32  and  _33
REMARK    6  A    between atoms: _38  and  _43
REMARK    7  A    between atoms: _43  and  _46
REMARK    8  A    between atoms: _53  and  _55
REMARK                            x       y       z     vdW  Elec       q    Type
REMARK                         _______ _______ _______ _____ _____    ______ ____
ROOT
ATOM     10  C   UNL     1      -5.450   5.335 -17.841  0.00  0.00    +0.038 A 
ATOM     11  C   UNL     1      -5.790   4.006 -17.480  0.00  0.00    +0.047 A 
ATOM     12  C   UNL     1      -5.260   3.396 -16.271  0.00  0.00    +0.035 A 
ATOM     32  C   UNL     1      -4.388   4.169 -15.450  0.00  0.00    +0.024 A 
ATOM     33  C   UNL     1      -4.031   5.521 -15.802  0.00  0.00    +0.007 A 
ATOM     34  C   UNL     1      -4.549   6.127 -16.996  0.00  0.00    -0.029 A 
ATOM     35  C   UNL     1      -4.128   7.578 -17.328  0.00  0.00    +0.045 C 
ENDROOT
BRANCH  10   9
ATOM      4  C   UNL     1      -5.165   6.468 -22.496  0.00  0.00    +0.077 A 
ATOM      5  C   UNL     1      -3.822   5.975 -22.595  0.00  0.00    +0.048 A 
ATOM      6  C   UNL     1      -3.237   5.445 -21.423  0.00  0.00    +0.116 A 
ATOM      7  N   UNL     1      -3.953   5.414 -20.246  0.00  0.00    -0.223 NA
ATOM      8  C   UNL     1      -5.247   5.899 -20.185  0.00  0.00    +0.220 A 
ATOM      9  N   UNL     1      -5.988   5.871 -19.014  0.00  0.00    -0.283 N 
ATOM     36  H   UNL     1      -6.936   6.245 -19.008  0.00  0.00    +0.155 HD
ATOM     37  N   UNL     1      -5.826   6.412 -21.290  0.00  0.00    -0.214 NA
BRANCH   4   3
ATOM      1  C   UNL     1      -7.946   7.222 -25.143  0.00  0.00    +0.020 A 
ATOM      2  C   UNL     1      -7.260   6.621 -24.022  0.00  0.00    +0.013 A 
ATOM      3  C   UNL     1      -5.920   7.056 -23.648  0.00  0.00    +0.019 A 
ATOM     38  C   UNL     1      -5.297   8.109 -24.435  0.00  0.00    +0.120 A 
ATOM     39  N   UNL     1      -5.981   8.668 -25.511  0.00  0.00    -0.263 NA
ATOM     40  C   UNL     1      -7.270   8.257 -25.880  0.00  0.00    +0.111 A 
ENDBRANCH   4   3
ENDBRANCH  10   9
BRANCH  12  13
ATOM     13  N   UNL     1      -5.563   2.048 -15.857  0.00  0.00    -0.281 N 
ATOM     14  C   UNL     1      -6.378   1.641 -14.814  0.00  0.00    +0.248 C 
ATOM     30  O   UNL     1      -6.804   2.381 -13.940  0.00  0.00    -0.270 OA
ATOM     31  H   UNL     1      -5.123   1.305 -16.399  0.00  0.00    +0.155 HD
BRANCH  14  15
ATOM     15  C   UNL     1      -6.765   0.200 -14.720  0.00  0.00    +0.037 A 
ATOM     16  C   UNL     1      -6.443  -0.745 -15.793  0.00  0.00    +0.013 A 
ATOM     17  C   UNL     1      -6.843  -2.125 -15.685  0.00  0.00    +0.005 A 
ATOM     18  C   UNL     1      -7.568  -2.570 -14.498  0.00  0.00    -0.033 A 
ATOM     28  C   UNL     1      -7.870  -1.613 -13.446  0.00  0.00    +0.005 A 
ATOM     29  C   UNL     1      -7.481  -0.259 -13.549  0.00  0.00    +0.013 A 
BRANCH  18  19
ATOM     19  C   UNL     1      -8.052  -4.020 -14.308  0.00  0.00    +0.119 C 
BRANCH  19  20
ATOM     20  N   UNL     1      -8.423  -4.784 -15.536  0.00  0.00    -0.302 NA
ATOM     21  C   UNL     1      -9.907  -4.630 -15.882  0.00  0.00    +0.066 C 
ATOM     22  C   UNL     1     -10.274  -5.417 -17.182  0.00  0.00    -0.064 C 
ATOM     23  N   UNL     1      -9.909  -6.892 -17.002  0.00  0.00    +0.379 N 
ATOM     24  C   UNL     1     -10.305  -7.645 -18.201  0.00  0.00    -0.096 C 
ATOM     25  H   UNL     1     -10.503  -7.284 -16.144  0.00  0.00    -0.082 HD
ATOM     26  C   UNL     1      -8.436  -7.053 -16.656  0.00  0.00    -0.064 C 
ATOM     27  C   UNL     1      -8.076  -6.244 -15.379  0.00  0.00    +0.066 C 
ENDBRANCH  19  20
ENDBRANCH  18  19
ENDBRANCH  14  15
ENDBRANCH  12  13
TORSDOF 6
ENDMDL
MODEL 3
REMARK VINA RESULT:      -8.1      3.458     13.653
REMARK  Name = C:\Users\Docking\Desktop\test protocol\1iep_ligandH.pdb
REMARK  8 active torsions:
REMARK  status: ('A' for Active; 'I' for Inactive)
REMARK    1  A    between atoms: _5  and  _11
REMARK    2  A    between atoms: _19  and  _21
REMARK    3  A    between atoms: _22  and  _66
REMARK    4  A    between atoms: _27  and  _30
REMARK    5  A    between atoms: _32  and  _33
REMARK    6  A    between atoms: _38  and  _43
REMARK    7  A    between atoms: _43  and  _46
REMARK    8  A    between atoms: _53  and  _55
REMARK                            x       y       z     vdW  Elec       q    Type
REMARK                         _______ _______ _______ _____ _____    ______ ____
ROOT
ATOM     10  C   UNL     1      -4.681   3.699 -18.731  0.00  0.00    +0.038 A 
ATOM     11  C   UNL     1      -5.454   4.522 -19.590  0.00  0.00    +0.047 A 
ATOM     12  C   UNL     1      -4.820   5.402 -20.559  0.00  0.00    +0.035 A 
ATOM     32  C   UNL     1      -3.397   5.417 -20.629  0.00  0.00    +0.024 A 
ATOM     33  C   UNL     1      -2.596   4.588 -19.764  0.00  0.00    +0.007 A 
ATOM     34  C   UNL     1      -3.215   3.719 -18.804  0.00  0.00    -0.029 A 
ATOM     35  C   UNL     1      -2.307   2.857 -17.897  0.00  0.00    +0.045 C 
ENDROOT
BRANCH  10   9
ATOM      4  C   UNL     1      -6.273   2.690 -14.317  0.00  0.00    +0.077 A 
ATOM      5  C   UNL     1      -5.719   3.898 -13.777  0.00  0.00    +0.048 A 
ATOM      6  C   UNL     1      -5.026   4.748 -14.667  0.00  0.00    +0.116 A 
ATOM      7  N   UNL     1      -4.902   4.406 -15.996  0.00  0.00    -0.223 NA
ATOM      8  C   UNL     1      -5.447   3.233 -16.485  0.00  0.00    +0.220 A 
ATOM      9  N   UNL     1      -5.342   2.873 -17.819  0.00  0.00    -0.283 N 
ATOM     36  H   UNL     1      -5.751   1.995 -18.139  0.00  0.00    +0.155 HD
ATOM     37  N   UNL     1      -6.113   2.403 -15.655  0.00  0.00    -0.214 NA
BRANCH   4   3
ATOM      1  C   UNL     1      -9.010   0.993 -12.096  0.00  0.00    +0.020 A 
ATOM      2  C   UNL     1      -8.314   1.994 -12.871  0.00  0.00    +0.013 A 
ATOM      3  C   UNL     1      -7.036   1.691 -13.504  0.00  0.00    +0.019 A 
ATOM     38  C   UNL     1      -6.488   0.354 -13.333  0.00  0.00    +0.120 A 
ATOM     39  N   UNL     1      -7.180  -0.589 -12.580  0.00  0.00    -0.263 NA
ATOM     40  C   UNL     1      -8.409  -0.308 -11.965  0.00  0.00    +0.111 A 
ENDBRANCH   4   3
ENDBRANCH  10   9
BRANCH  12  13
ATOM     13  N   UNL     1      -5.553   6.266 -21.451  0.00  0.00    -0.281 N 
ATOM     14  C   UNL     1      -5.390   6.413 -22.819  0.00  0.00    +0.248 C 
ATOM     30  O   UNL     1      -4.441   5.976 -23.453  0.00  0.00    -0.270 OA
ATOM     31  H   UNL     1      -6.279   6.840 -21.022  0.00  0.00    +0.155 HD
BRANCH  14  15
ATOM     15  C   UNL     1      -6.425   7.165 -23.593  0.00  0.00    +0.037 A 
ATOM     16  C   UNL     1      -7.446   6.464 -24.376  0.00  0.00    +0.013 A 
ATOM     17  C   UNL     1      -8.422   7.214 -25.127  0.00  0.00    +0.005 A 
ATOM     18  C   UNL     1      -8.382   8.674 -25.096  0.00  0.00    -0.033 A 
ATOM     28  C   UNL     1      -7.361   9.343 -24.307  0.00  0.00    +0.005 A 
ATOM     29  C   UNL     1      -6.402   8.612 -23.571  0.00  0.00    +0.013 A 
BRANCH  18  19
ATOM     19  C   UNL     1      -9.370   9.555 -25.884  0.00  0.00    +0.119 C 
BRANCH  19  20
ATOM     20  N   UNL     1      -9.314   9.481 -27.374  0.00  0.00    -0.302 NA
ATOM     21  C   UNL     1      -8.308  10.476 -27.961  0.00  0.00    +0.066 C 
ATOM     22  C   UNL     1      -8.246  10.370 -29.519  0.00  0.00    -0.064 C 
ATOM     23  N   UNL     1      -9.641  10.605 -30.100  0.00  0.00    +0.379 N 
ATOM     24  C   UNL     1      -9.575  10.563 -31.568  0.00  0.00    -0.096 C 
ATOM     25  H   UNL     1      -9.962  11.630 -29.805  0.00  0.00    -0.082 HD
ATOM     26  C   UNL     1     -10.648   9.621 -29.520  0.00  0.00    -0.064 C 
ATOM     27  C   UNL     1     -10.681   9.714 -27.969  0.00  0.00    +0.066 C 
ENDBRANCH  19  20
ENDBRANCH  18  19
ENDBRANCH  14  15
ENDBRANCH  12  13
TORSDOF 6
ENDMDL
MODEL 4
REMARK VINA RESULT:      -8.0      3.415     13.006
REMARK  Name = C:\Users\Docking\Desktop\test protocol\1iep_ligandH.pdb
REMARK  8 active torsions:
REMARK  status: ('A' for Active; 'I' for Inactive)
REMARK    1  A    between atoms: _5  and  _11
REMARK    2  A    between atoms: _19  and  _21
REMARK    3  A    between atoms: _22  and  _66
REMARK    4  A    between atoms: _27  and  _30
REMARK    5  A    between atoms: _32  and  _33
REMARK    6  A    between atoms: _38  and  _43
REMARK    7  A    between atoms: _43  and  _46
REMARK    8  A    between atoms: _53  and  _55
REMARK                            x       y       z     vdW  Elec       q    Type
REMARK                         _______ _______ _______ _____ _____    ______ ____
ROOT
ATOM     10  C   UNL     1      -7.984  -5.098 -13.873  0.00  0.00    +0.038 A 
ATOM     11  C   UNL     1      -7.439  -3.865 -14.316  0.00  0.00    +0.047 A 
ATOM     12  C   UNL     1      -7.524  -2.667 -13.496  0.00  0.00    +0.035 A 
ATOM     32  C   UNL     1      -8.170  -2.760 -12.229  0.00  0.00    +0.024 A 
ATOM     33  C   UNL     1      -8.731  -4.004 -11.764  0.00  0.00    +0.007 A 
ATOM     34  C   UNL     1      -8.652  -5.189 -12.569  0.00  0.00    -0.029 A 
ATOM     35  C   UNL     1      -9.276  -6.494 -12.023  0.00  0.00    +0.045 C 
ENDROOT
BRANCH  10   9
ATOM      4  C   UNL     1      -9.368  -7.728 -17.642  0.00  0.00    +0.077 A 
ATOM      5  C   UNL     1     -10.418  -6.807 -17.974  0.00  0.00    +0.048 A 
ATOM      6  C   UNL     1     -10.573  -5.674 -17.145  0.00  0.00    +0.116 A 
ATOM      7  N   UNL     1      -9.734  -5.484 -16.068  0.00  0.00    -0.223 NA
ATOM      8  C   UNL     1      -8.733  -6.392 -15.775  0.00  0.00    +0.220 A 
ATOM      9  N   UNL     1      -7.874  -6.217 -14.701  0.00  0.00    -0.283 N 
ATOM     36  H   UNL     1      -7.153  -6.913 -14.514  0.00  0.00    +0.155 HD
ATOM     37  N   UNL     1      -8.566  -7.483 -16.550  0.00  0.00    -0.214 NA
BRANCH   4   3
ATOM      1  C   UNL     1      -9.769 -11.129 -19.533  0.00  0.00    +0.020 A 
ATOM      2  C   UNL     1     -10.103  -9.944 -18.776  0.00  0.00    +0.013 A 
ATOM      3  C   UNL     1      -9.077  -8.971 -18.424  0.00  0.00    +0.019 A 
ATOM     38  C   UNL     1      -7.712  -9.227 -18.858  0.00  0.00    +0.120 A 
ATOM     39  N   UNL     1      -7.420 -10.377 -19.585  0.00  0.00    -0.263 NA
ATOM     40  C   UNL     1      -8.399 -11.322 -19.928  0.00  0.00    +0.111 A 
ENDBRANCH   4   3
ENDBRANCH  10   9
BRANCH  12  13
ATOM     13  N   UNL     1      -6.996  -1.386 -13.896  0.00  0.00    -0.281 N 
ATOM     14  C   UNL     1      -6.026  -1.126 -14.850  0.00  0.00    +0.248 C 
ATOM     30  O   UNL     1      -5.308  -1.975 -15.355  0.00  0.00    -0.270 OA
ATOM     31  H   UNL     1      -7.385  -0.573 -13.418  0.00  0.00    +0.155 HD
BRANCH  14  15
ATOM     15  C   UNL     1      -5.812   0.285 -15.296  0.00  0.00    +0.037 A 
ATOM     16  C   UNL     1      -4.470   0.795 -15.587  0.00  0.00    +0.013 A 
ATOM     17  C   UNL     1      -4.290   2.164 -15.999  0.00  0.00    +0.005 A 
ATOM     18  C   UNL     1      -5.458   3.034 -16.123  0.00  0.00    -0.033 A 
ATOM     28  C   UNL     1      -6.779   2.501 -15.833  0.00  0.00    +0.005 A 
ATOM     29  C   UNL     1      -6.958   1.159 -15.428  0.00  0.00    +0.013 A 
BRANCH  18  19
ATOM     19  C   UNL     1      -5.358   4.514 -16.537  0.00  0.00    +0.119 C 
BRANCH  19  20
ATOM     20  N   UNL     1      -4.868   4.808 -17.916  0.00  0.00    -0.302 NA
ATOM     21  C   UNL     1      -4.999   6.292 -18.269  0.00  0.00    +0.066 C 
ATOM     22  C   UNL     1      -4.461   6.585 -19.708  0.00  0.00    -0.064 C 
ATOM     23  N   UNL     1      -5.216   5.719 -20.718  0.00  0.00    +0.379 N 
ATOM     24  C   UNL     1      -4.752   6.034 -22.077  0.00  0.00    -0.096 C 
ATOM     25  H   UNL     1      -6.295   5.991 -20.657  0.00  0.00    -0.082 HD
ATOM     26  C   UNL     1      -5.092   4.241 -20.373  0.00  0.00    -0.064 C 
ATOM     27  C   UNL     1      -5.602   3.966 -18.931  0.00  0.00    +0.066 C 
ENDBRANCH  19  20
ENDBRANCH  18  19
ENDBRANCH  14  15
ENDBRANCH  12  13
TORSDOF 6
ENDMDL
MODEL 5
REMARK VINA RESULT:      -7.9     11.207     15.706
REMARK  Name = C:\Users\Docking\Desktop\test protocol\1iep_ligandH.pdb
REMARK  8 active torsions:
REMARK  status: ('A' for Active; 'I' for Inactive)
REMARK    1  A    between atoms: _5  and  _11
REMARK    2  A    between atoms: _19  and  _21
REMARK    3  A    between atoms: _22  and  _66
REMARK    4  A    between atoms: _27  and  _30
REMARK    5  A    between atoms: _32  and  _33
REMARK    6  A    between atoms: _38  and  _43
REMARK    7  A    between atoms: _43  and  _46
REMARK    8  A    between atoms: _53  and  _55
REMARK                            x       y       z     vdW  Elec       q    Type
REMARK                         _______ _______ _______ _____ _____    ______ ____
ROOT
ATOM     10  C   UNL     1      -7.526   8.475 -26.834  0.00  0.00    +0.038 A 
ATOM     11  C   UNL     1      -6.405   9.339 -26.743  0.00  0.00    +0.047 A 
ATOM     12  C   UNL     1      -5.518   9.303 -25.591  0.00  0.00    +0.035 A 
ATOM     32  C   UNL     1      -5.802   8.373 -24.549  0.00  0.00    +0.024 A 
ATOM     33  C   UNL     1      -6.938   7.489 -24.624  0.00  0.00    +0.007 A 
ATOM     34  C   UNL     1      -7.818   7.521 -25.757  0.00  0.00    -0.029 A 
ATOM     35  C   UNL     1      -9.024   6.554 -25.781  0.00  0.00    +0.045 C 
ENDROOT
BRANCH  10   9
ATOM      4  C   UNL     1     -11.360  10.162 -29.177  0.00  0.00    +0.077 A 
ATOM      5  C   UNL     1     -11.785  10.935 -28.045  0.00  0.00    +0.048 A 
ATOM      6  C   UNL     1     -10.993  10.865 -26.877  0.00  0.00    +0.116 A 
ATOM      7  N   UNL     1      -9.862  10.078 -26.854  0.00  0.00    -0.223 NA
ATOM      8  C   UNL     1      -9.482   9.344 -27.962  0.00  0.00    +0.220 A 
ATOM      9  N   UNL     1      -8.344   8.552 -27.964  0.00  0.00    -0.283 N 
ATOM     36  H   UNL     1      -8.101   8.020 -28.799  0.00  0.00    +0.155 HD
ATOM     37  N   UNL     1     -10.222   9.393 -29.089  0.00  0.00    -0.214 NA
BRANCH   4   3
ATOM      1  C   UNL     1     -14.198  10.179 -31.869  0.00  0.00    +0.020 A 
ATOM      2  C   UNL     1     -13.542  10.209 -30.582  0.00  0.00    +0.013 A 
ATOM      3  C   UNL     1     -12.090  10.134 -30.484  0.00  0.00    +0.019 A 
ATOM     38  C   UNL     1     -11.324  10.029 -31.716  0.00  0.00    +0.120 A 
ATOM     39  N   UNL     1     -11.983  10.000 -32.942  0.00  0.00    -0.263 NA
ATOM     40  C   UNL     1     -13.380  10.070 -33.048  0.00  0.00    +0.111 A 
ENDBRANCH   4   3
ENDBRANCH  10   9
BRANCH  12  13
ATOM     13  N   UNL     1      -4.369  10.162 -25.440  0.00  0.00    -0.281 N 
ATOM     14  C   UNL     1      -3.437  10.514 -26.402  0.00  0.00    +0.248 C 
ATOM     30  O   UNL     1      -3.329   9.970 -27.492  0.00  0.00    -0.270 OA
ATOM     31  H   UNL     1      -4.226  10.558 -24.511  0.00  0.00    +0.155 HD
BRANCH  14  15
ATOM     15  C   UNL     1      -2.476  11.620 -26.107  0.00  0.00    +0.037 A 
ATOM     16  C   UNL     1      -2.756  12.998 -26.516  0.00  0.00    +0.013 A 
ATOM     17  C   UNL     1      -1.804  14.044 -26.233  0.00  0.00    +0.005 A 
ATOM     18  C   UNL     1      -0.564  13.713 -25.535  0.00  0.00    -0.033 A 
ATOM     28  C   UNL     1      -0.315  12.338 -25.136  0.00  0.00    +0.005 A 
ATOM     29  C   UNL     1      -1.244  11.311 -25.412  0.00  0.00    +0.013 A 
BRANCH  18  19
ATOM     19  C   UNL     1       0.518  14.761 -25.211  0.00  0.00    +0.119 C 
BRANCH  19  20
ATOM     20  N   UNL     1       1.460  14.447 -24.096  0.00  0.00    -0.302 NA
ATOM     21  C   UNL     1       1.135  15.242 -22.828  0.00  0.00    +0.066 C 
ATOM     22  C   UNL     1       2.117  14.885 -21.665  0.00  0.00    -0.064 C 
ATOM     23  N   UNL     1       3.554  15.150 -22.115  0.00  0.00    +0.379 N 
ATOM     24  C   UNL     1       4.476  14.870 -21.005  0.00  0.00    -0.096 C 
ATOM     25  H   UNL     1       3.638  16.234 -22.360  0.00  0.00    -0.082 HD
ATOM     26  C   UNL     1       3.886  14.365 -23.377  0.00  0.00    -0.064 C 
ATOM     27  C   UNL     1       2.886  14.705 -24.518  0.00  0.00    +0.066 C 
ENDBRANCH  19  20
ENDBRANCH  18  19
ENDBRANCH  14  15
ENDBRANCH  12  13
TORSDOF 6
ENDMDL
