MODEL 1
REMARK VINA RESULT:      -8.0      0.000      0.000
REMARK  Name = C:\Users\Docking\Desktop\test protocol\1iep_ligandH.pdb
REMARK  8 active torsions:
REMARK  status: ('A' for Active; 'I' for Inactive)
REMARK    1  A    between atoms: _5  and  _11
REMARK    2  A    between atoms: _19  and  _21
REMARK    3  A    between atoms: _22  and  _66
REMARK    4  A    between atoms: _27  and  _30
REMARK    5  A    between atoms: _32  and  _33
REMARK    6  A    between atoms: _38  and  _43
REMARK    7  A    between atoms: _43  and  _46
REMARK    8  A    between atoms: _53  and  _55
REMARK                            x       y       z     vdW  Elec       q    Type
REMARK                         _______ _______ _______ _____ _____    ______ ____
ROOT
ATOM     10  C   UNL     1      22.067 -24.967  65.140  0.00  0.00    +0.038 A 
ATOM     11  C   UNL     1      21.683 -23.745  64.531  0.00  0.00    +0.047 A 
ATOM     12  C   UNL     1      22.578 -22.599  64.512  0.00  0.00    +0.035 A 
ATOM     32  C   UNL     1      23.860 -22.733  65.122  0.00  0.00    +0.024 A 
ATOM     33  C   UNL     1      24.267 -23.967  65.747  0.00  0.00    +0.007 A 
ATOM     34  C   UNL     1      23.387 -25.100  65.770  0.00  0.00    -0.029 A 
ATOM     35  C   UNL     1      23.873 -26.396  66.459  0.00  0.00    +0.045 C 
ENDROOT
BRANCH  10   9
ATOM      4  C   UNL     1      18.434 -27.462  67.040  0.00  0.00    +0.077 A 
ATOM      5  C   UNL     1      18.337 -26.577  68.165  0.00  0.00    +0.048 A 
ATOM      6  C   UNL     1      19.245 -25.496  68.221  0.00  0.00    +0.116 A 
ATOM      7  N   UNL     1      20.177 -25.322  67.220  0.00  0.00    -0.223 NA
ATOM      8  C   UNL     1      20.245 -26.195  66.150  0.00  0.00    +0.220 A 
ATOM      9  N   UNL     1      21.168 -26.035  65.128  0.00  0.00    -0.283 N 
ATOM     36  H   UNL     1      21.191 -26.705  64.360  0.00  0.00    +0.155 HD
ATOM     37  N   UNL     1      19.390 -27.236  66.074  0.00  0.00    -0.214 NA
BRANCH   4   3
ATOM      1  C   UNL     1      16.095 -30.139  65.408  0.00  0.00    +0.020 A 
ATOM      2  C   UNL     1      16.949 -28.982  65.550  0.00  0.00    +0.013 A 
ATOM      3  C   UNL     1      17.543 -28.648  66.838  0.00  0.00    +0.019 A 
ATOM     38  C   UNL     1      17.252 -29.513  67.972  0.00  0.00    +0.120 A 
ATOM     39  N   UNL     1      16.426 -30.619  67.806  0.00  0.00    -0.263 NA
ATOM     40  C   UNL     1      15.847 -30.949  66.571  0.00  0.00    +0.111 A 
ENDBRANCH   4   3
ENDBRANCH  10   9
BRANCH  12  13
ATOM     13  N   UNL     1      22.239 -21.330  63.916  0.00  0.00    -0.281 N 
ATOM     14  C   UNL     1      21.167 -20.507  64.218  0.00  0.00    +0.248 C 
ATOM     30  O   UNL     1      20.212 -20.839  64.903  0.00  0.00    -0.270 OA
ATOM     31  H   UNL     1      22.866 -20.999  63.182  0.00  0.00    +0.155 HD
BRANCH  14  15
ATOM     15  C   UNL     1      21.147 -19.117  63.667  0.00  0.00    +0.037 A 
ATOM     16  C   UNL     1      20.016 -18.632  62.872  0.00  0.00    +0.013 A 
ATOM     17  C   UNL     1      20.029 -17.293  62.338  0.00  0.00    +0.005 A 
ATOM     18  C   UNL     1      21.178 -16.429  62.599  0.00  0.00    -0.033 A 
ATOM     28  C   UNL     1      22.284 -16.934  63.396  0.00  0.00    +0.005 A 
ATOM     29  C   UNL     1      22.275 -18.247  63.920  0.00  0.00    +0.013 A 
BRANCH  18  19
ATOM     19  C   UNL     1      21.287 -14.993  62.052  0.00  0.00    +0.119 C 
BRANCH  19  20
ATOM     20  N   UNL     1      20.635 -13.908  62.844  0.00  0.00    -0.302 NA
ATOM     21  C   UNL     1      19.470 -13.265  62.086  0.00  0.00    +0.066 C 
ATOM     22  C   UNL     1      18.785 -12.147  62.939  0.00  0.00    -0.064 C 
ATOM     23  N   UNL     1      19.826 -11.095  63.326  0.00  0.00    +0.379 N 
ATOM     24  C   UNL     1      19.174 -10.013  64.078  0.00  0.00    -0.096 C 
ATOM     25  H   UNL     1      20.230 -10.657  62.384  0.00  0.00    -0.082 HD
ATOM     26  C   UNL     1      20.989 -11.727  64.078  0.00  0.00    -0.064 C 
ATOM     27  C   UNL     1      21.644 -12.857  63.234  0.00  0.00    +0.066 C 
ENDBRANCH  19  20
ENDBRANCH  18  19
ENDBRANCH  14  15
ENDBRANCH  12  13
TORSDOF 6
ENDMDL
MODEL 2
REMARK VINA RESULT:      -7.7     25.687     32.040
REMARK  Name = C:\Users\Docking\Desktop\test protocol\1iep_ligandH.pdb
REMARK  8 active torsions:
REMARK  status: ('A' for Active; 'I' for Inactive)
REMARK    1  A    between atoms: _5  and  _11
REMARK    2  A    between atoms: _19  and  _21
REMARK    3  A    between atoms: _22  and  _66
REMARK    4  A    between atoms: _27  and  _30
REMARK    5  A    between atoms: _32  and  _33
REMARK    6  A    between atoms: _38  and  _43
REMARK    7  A    between atoms: _43  and  _46
REMARK    8  A    between atoms: _53  and  _55
REMARK                            x       y       z     vdW  Elec       q    Type
REMARK                         _______ _______ _______ _____ _____    ______ ____
ROOT
ATOM     10  C   UNL     1      -2.863  -1.951  66.819  0.00  0.00    +0.038 A 
ATOM     11  C   UNL     1      -3.565  -2.063  65.592  0.00  0.00    +0.047 A 
ATOM     12  C   UNL     1      -4.924  -1.563  65.454  0.00  0.00    +0.035 A 
ATOM     32  C   UNL     1      -5.537  -0.951  66.586  0.00  0.00    +0.024 A 
ATOM     33  C   UNL     1      -4.838  -0.830  67.842  0.00  0.00    +0.007 A 
ATOM     34  C   UNL     1      -3.498  -1.323  67.984  0.00  0.00    -0.029 A 
ATOM     35  C   UNL     1      -2.799  -1.172  69.355  0.00  0.00    +0.045 C 
ENDROOT
BRANCH  10   9
ATOM      4  C   UNL     1       0.402  -5.393  66.094  0.00  0.00    +0.077 A 
ATOM      5  C   UNL     1      -0.575  -6.286  65.542  0.00  0.00    +0.048 A 
ATOM      6  C   UNL     1      -1.908  -5.824  65.468  0.00  0.00    +0.116 A 
ATOM      7  N   UNL     1      -2.228  -4.561  65.916  0.00  0.00    -0.223 NA
ATOM      8  C   UNL     1      -1.262  -3.726  66.445  0.00  0.00    +0.220 A 
ATOM      9  N   UNL     1      -1.560  -2.448  66.895  0.00  0.00    -0.283 N 
ATOM     36  H   UNL     1      -0.820  -1.866  67.285  0.00  0.00    +0.155 HD
ATOM     37  N   UNL     1       0.018  -4.144  66.528  0.00  0.00    -0.214 NA
BRANCH   4   3
ATOM      1  C   UNL     1       3.943  -6.954  65.520  0.00  0.00    +0.020 A 
ATOM      2  C   UNL     1       2.540  -6.658  65.340  0.00  0.00    +0.013 A 
ATOM      3  C   UNL     1       1.853  -5.736  66.235  0.00  0.00    +0.019 A 
ATOM     38  C   UNL     1       2.620  -5.125  67.310  0.00  0.00    +0.120 A 
ATOM     39  N   UNL     1       3.969  -5.430  67.459  0.00  0.00    -0.263 NA
ATOM     40  C   UNL     1       4.641  -6.317  66.605  0.00  0.00    +0.111 A 
ENDBRANCH   4   3
ENDBRANCH  10   9
BRANCH  12  13
ATOM     13  N   UNL     1      -5.690  -1.656  64.236  0.00  0.00    -0.281 N 
ATOM     14  C   UNL     1      -5.996  -2.794  63.507  0.00  0.00    +0.248 C 
ATOM     30  O   UNL     1      -5.474  -3.886  63.679  0.00  0.00    -0.270 OA
ATOM     31  H   UNL     1      -6.050  -0.776  63.866  0.00  0.00    +0.155 HD
BRANCH  14  15
ATOM     15  C   UNL     1      -7.019  -2.703  62.422  0.00  0.00    +0.037 A 
ATOM     16  C   UNL     1      -8.173  -3.605  62.387  0.00  0.00    +0.013 A 
ATOM     17  C   UNL     1      -9.136  -3.507  61.319  0.00  0.00    +0.005 A 
ATOM     18  C   UNL     1      -8.950  -2.500  60.277  0.00  0.00    -0.033 A 
ATOM     28  C   UNL     1      -7.799  -1.614  60.339  0.00  0.00    +0.005 A 
ATOM     29  C   UNL     1      -6.853  -1.708  61.384  0.00  0.00    +0.013 A 
BRANCH  18  19
ATOM     19  C   UNL     1      -9.916  -2.338  59.089  0.00  0.00    +0.119 C 
BRANCH  19  20
ATOM     20  N   UNL     1     -10.250  -3.565  58.306  0.00  0.00    -0.302 NA
ATOM     21  C   UNL     1      -9.629  -3.541  56.907  0.00  0.00    +0.066 C 
ATOM     22  C   UNL     1      -9.969  -4.842  56.110  0.00  0.00    -0.064 C 
ATOM     23  N   UNL     1     -11.488  -5.003  56.026  0.00  0.00    +0.379 N 
ATOM     24  C   UNL     1     -11.812  -6.195  55.228  0.00  0.00    -0.096 C 
ATOM     25  H   UNL     1     -11.893  -4.115  55.487  0.00  0.00    -0.082 HD
ATOM     26  C   UNL     1     -12.114  -5.025  57.413  0.00  0.00    -0.064 C 
ATOM     27  C   UNL     1     -11.745  -3.741  58.207  0.00  0.00    +0.066 C 
ENDBRANCH  19  20
ENDBRANCH  18  19
ENDBRANCH  14  15
ENDBRANCH  12  13
TORSDOF 6
ENDMDL
MODEL 3
REMARK VINA RESULT:      -7.7     22.453     27.605
REMARK  Name = C:\Users\Docking\Desktop\test protocol\1iep_ligandH.pdb
REMARK  8 active torsions:
REMARK  status: ('A' for Active; 'I' for Inactive)
REMARK    1  A    between atoms: _5  and  _11
REMARK    2  A    between atoms: _19  and  _21
REMARK    3  A    between atoms: _22  and  _66
REMARK    4  A    between atoms: _27  and  _30
REMARK    5  A    between atoms: _32  and  _33
REMARK    6  A    between atoms: _38  and  _43
REMARK    7  A    between atoms: _43  and  _46
REMARK    8  A    between atoms: _53  and  _55
REMARK                            x       y       z     vdW  Elec       q    Type
REMARK                         _______ _______ _______ _____ _____    ______ ____
ROOT
ATOM     10  C   UNL     1      -3.549 -11.458  57.459  0.00  0.00    +0.038 A 
ATOM     11  C   UNL     1      -3.234 -12.834  57.315  0.00  0.00    +0.047 A 
ATOM     12  C   UNL     1      -3.962 -13.678  56.381  0.00  0.00    +0.035 A 
ATOM     32  C   UNL     1      -5.004 -13.089  55.608  0.00  0.00    +0.024 A 
ATOM     33  C   UNL     1      -5.339 -11.693  55.743  0.00  0.00    +0.007 A 
ATOM     34  C   UNL     1      -4.626 -10.855  56.664  0.00  0.00    -0.029 A 
ATOM     35  C   UNL     1      -5.032  -9.367  56.772  0.00  0.00    +0.045 C 
ENDROOT
BRANCH  10   9
ATOM      4  C   UNL     1      -3.040  -9.272  61.702  0.00  0.00    +0.077 A 
ATOM      5  C   UNL     1      -4.352  -9.664  62.128  0.00  0.00    +0.048 A 
ATOM      6  C   UNL     1      -5.129 -10.421  61.223  0.00  0.00    +0.116 A 
ATOM      7  N   UNL     1      -4.621 -10.756  59.987  0.00  0.00    -0.223 NA
ATOM      8  C   UNL     1      -3.352 -10.361  59.606  0.00  0.00    +0.220 A 
ATOM      9  N   UNL     1      -2.818 -10.694  58.371  0.00  0.00    -0.283 N 
ATOM     36  H   UNL     1      -1.880 -10.377  58.125  0.00  0.00    +0.155 HD
ATOM     37  N   UNL     1      -2.591  -9.636  60.452  0.00  0.00    -0.214 NA
BRANCH   4   3
ATOM      1  C   UNL     1       0.162  -7.459  63.030  0.00  0.00    +0.020 A 
ATOM      2  C   UNL     1      -0.706  -8.239  62.179  0.00  0.00    +0.013 A 
ATOM      3  C   UNL     1      -2.097  -8.472  62.547  0.00  0.00    +0.019 A 
ATOM     38  C   UNL     1      -2.582  -7.897  63.792  0.00  0.00    +0.120 A 
ATOM     39  N   UNL     1      -1.723  -7.151  64.592  0.00  0.00    -0.263 NA
ATOM     40  C   UNL     1      -0.382  -6.922  64.249  0.00  0.00    +0.111 A 
ENDBRANCH   4   3
ENDBRANCH  10   9
BRANCH  12  13
ATOM     13  N   UNL     1      -3.691 -15.083  56.197  0.00  0.00    -0.281 N 
ATOM     14  C   UNL     1      -3.020 -15.691  55.148  0.00  0.00    +0.248 C 
ATOM     30  O   UNL     1      -2.735 -15.137  54.097  0.00  0.00    -0.270 OA
ATOM     31  H   UNL     1      -4.036 -15.704  56.928  0.00  0.00    +0.155 HD
BRANCH  14  15
ATOM     15  C   UNL     1      -2.621 -17.125  55.281  0.00  0.00    +0.037 A 
ATOM     16  C   UNL     1      -1.299 -17.589  54.851  0.00  0.00    +0.013 A 
ATOM     17  C   UNL     1      -0.946 -18.981  54.975  0.00  0.00    +0.005 A 
ATOM     18  C   UNL     1      -1.917 -19.919  55.533  0.00  0.00    -0.033 A 
ATOM     28  C   UNL     1      -3.219 -19.431  55.956  0.00  0.00    +0.005 A 
ATOM     29  C   UNL     1      -3.569 -18.068  55.836  0.00  0.00    +0.013 A 
BRANCH  18  19
ATOM     19  C   UNL     1      -1.633 -21.426  55.682  0.00  0.00    +0.119 C 
BRANCH  19  20
ATOM     20  N   UNL     1      -0.713 -21.842  56.782  0.00  0.00    -0.302 NA
ATOM     21  C   UNL     1      -0.059 -23.198  56.501  0.00  0.00    +0.066 C 
ATOM     22  C   UNL     1       0.918 -23.608  57.651  0.00  0.00    -0.064 C 
ATOM     23  N   UNL     1       0.156 -23.639  58.977  0.00  0.00    +0.379 N 
ATOM     24  C   UNL     1       1.058 -24.080  60.051  0.00  0.00    -0.096 C 
ATOM     25  H   UNL     1      -0.655 -24.397  58.883  0.00  0.00    -0.082 HD
ATOM     26  C   UNL     1      -0.499 -22.295  59.263  0.00  0.00    -0.064 C 
ATOM     27  C   UNL     1      -1.445 -21.883  58.100  0.00  0.00    +0.066 C 
ENDBRANCH  19  20
ENDBRANCH  18  19
ENDBRANCH  14  15
ENDBRANCH  12  13
TORSDOF 6
ENDMDL
MODEL 4
REMARK VINA RESULT:      -7.7     23.087     27.572
REMARK  Name = C:\Users\Docking\Desktop\test protocol\1iep_ligandH.pdb
REMARK  8 active torsions:
REMARK  status: ('A' for Active; 'I' for Inactive)
REMARK    1  A    between atoms: _5  and  _11
REMARK    2  A    between atoms: _19  and  _21
REMARK    3  A    between atoms: _22  and  _66
REMARK    4  A    between atoms: _27  and  _30
REMARK    5  A    between atoms: _32  and  _33
REMARK    6  A    between atoms: _38  and  _43
REMARK    7  A    between atoms: _43  and  _46
REMARK    8  A    between atoms: _53  and  _55
REMARK                            x       y       z     vdW  Elec       q    Type
REMARK                         _______ _______ _______ _____ _____    ______ ____
ROOT
ATOM     10  C   UNL     1      -1.534  -6.963  63.858  0.00  0.00    +0.038 A 
ATOM     11  C   UNL     1      -0.618  -6.464  64.819  0.00  0.00    +0.047 A 
ATOM     12  C   UNL     1       0.588  -7.201  65.163  0.00  0.00    +0.035 A 
ATOM     32  C   UNL     1       0.831  -8.442  64.506  0.00  0.00    +0.024 A 
ATOM     33  C   UNL     1      -0.090  -8.965  63.528  0.00  0.00    +0.007 A 
ATOM     34  C   UNL     1      -1.283  -8.244  63.186  0.00  0.00    -0.029 A 
ATOM     35  C   UNL     1      -2.238  -8.855  62.135  0.00  0.00    +0.045 C 
ENDROOT
BRANCH  10   9
ATOM      4  C   UNL     1      -5.027  -3.913  65.097  0.00  0.00    +0.077 A 
ATOM      5  C   UNL     1      -4.552  -3.825  66.448  0.00  0.00    +0.048 A 
ATOM      6  C   UNL     1      -3.410  -4.586  66.785  0.00  0.00    +0.116 A 
ATOM      7  N   UNL     1      -2.797  -5.372  65.834  0.00  0.00    -0.223 NA
ATOM      8  C   UNL     1      -3.282  -5.436  64.540  0.00  0.00    +0.220 A 
ATOM      9  N   UNL     1      -2.676  -6.214  63.566  0.00  0.00    -0.283 N 
ATOM     36  H   UNL     1      -3.069  -6.239  62.625  0.00  0.00    +0.155 HD
ATOM     37  N   UNL     1      -4.372  -4.719  64.194  0.00  0.00    -0.214 NA
BRANCH   4   3
ATOM      1  C   UNL     1      -7.647  -1.094  64.395  0.00  0.00    +0.020 A 
ATOM      2  C   UNL     1      -6.480  -1.769  64.914  0.00  0.00    +0.013 A 
ATOM      3  C   UNL     1      -6.220  -3.166  64.587  0.00  0.00    +0.019 A 
ATOM     38  C   UNL     1      -7.168  -3.855  63.725  0.00  0.00    +0.120 A 
ATOM     39  N   UNL     1      -8.284  -3.180  63.241  0.00  0.00    -0.263 NA
ATOM     40  C   UNL     1      -8.545  -1.837  63.550  0.00  0.00    +0.111 A 
ENDBRANCH   4   3
ENDBRANCH  10   9
BRANCH  12  13
ATOM     13  N   UNL     1       1.550  -6.748  66.136  0.00  0.00    -0.281 N 
ATOM     14  C   UNL     1       2.863  -6.363  65.921  0.00  0.00    +0.248 C 
ATOM     30  O   UNL     1       3.478  -6.554  64.882  0.00  0.00    -0.270 OA
ATOM     31  H   UNL     1       1.223  -6.705  67.102  0.00  0.00    +0.155 HD
BRANCH  14  15
ATOM     15  C   UNL     1       3.606  -5.679  67.023  0.00  0.00    +0.037 A 
ATOM     16  C   UNL     1       2.930  -4.751  67.933  0.00  0.00    +0.013 A 
ATOM     17  C   UNL     1       3.673  -4.092  68.977  0.00  0.00    +0.005 A 
ATOM     18  C   UNL     1       5.102  -4.361  69.118  0.00  0.00    -0.033 A 
ATOM     28  C   UNL     1       5.746  -5.291  68.205  0.00  0.00    +0.005 A 
ATOM     29  C   UNL     1       5.021  -5.938  67.180  0.00  0.00    +0.013 A 
BRANCH  18  19
ATOM     19  C   UNL     1       5.979  -3.687  70.191  0.00  0.00    +0.119 C 
BRANCH  19  20
ATOM     20  N   UNL     1       6.540  -4.561  71.264  0.00  0.00    -0.302 NA
ATOM     21  C   UNL     1       5.497  -4.902  72.332  0.00  0.00    +0.066 C 
ATOM     22  C   UNL     1       6.095  -5.835  73.434  0.00  0.00    -0.064 C 
ATOM     23  N   UNL     1       7.314  -5.159  74.064  0.00  0.00    +0.379 N 
ATOM     24  C   UNL     1       7.845  -6.009  75.140  0.00  0.00    -0.096 C 
ATOM     25  H   UNL     1       6.971  -4.204  74.524  0.00  0.00    -0.082 HD
ATOM     26  C   UNL     1       8.356  -4.815  73.008  0.00  0.00    -0.064 C 
ATOM     27  C   UNL     1       7.743  -3.911  71.902  0.00  0.00    +0.066 C 
ENDBRANCH  19  20
ENDBRANCH  18  19
ENDBRANCH  14  15
ENDBRANCH  12  13
TORSDOF 6
ENDMDL
MODEL 5
REMARK VINA RESULT:      -7.5      3.787     13.797
REMARK  Name = C:\Users\Docking\Desktop\test protocol\1iep_ligandH.pdb
REMARK  8 active torsions:
REMARK  status: ('A' for Active; 'I' for Inactive)
REMARK    1  A    between atoms: _5  and  _11
REMARK    2  A    between atoms: _19  and  _21
REMARK    3  A    between atoms: _22  and  _66
REMARK    4  A    between atoms: _27  and  _30
REMARK    5  A    between atoms: _32  and  _33
REMARK    6  A    between atoms: _38  and  _43
REMARK    7  A    between atoms: _43  and  _46
REMARK    8  A    between atoms: _53  and  _55
REMARK                            x       y       z     vdW  Elec       q    Type
REMARK                         _______ _______ _______ _____ _____    ______ ____
ROOT
ATOM     10  C   UNL     1      20.080 -24.450  67.384  0.00  0.00    +0.038 A 
ATOM     11  C   UNL     1      19.529 -25.678  66.935  0.00  0.00    +0.047 A 
ATOM     12  C   UNL     1      19.624 -26.884  67.742  0.00  0.00    +0.035 A 
ATOM     32  C   UNL     1      20.284 -26.804  69.002  0.00  0.00    +0.024 A 
ATOM     33  C   UNL     1      20.851 -25.565  69.474  0.00  0.00    +0.007 A 
ATOM     34  C   UNL     1      20.762 -24.372  68.681  0.00  0.00    -0.029 A 
ATOM     35  C   UNL     1      21.393 -23.072  69.233  0.00  0.00    +0.045 C 
ENDROOT
BRANCH  10   9
ATOM      4  C   UNL     1      21.663 -21.565  63.890  0.00  0.00    +0.077 A 
ATOM      5  C   UNL     1      22.842 -22.357  63.689  0.00  0.00    +0.048 A 
ATOM      6  C   UNL     1      23.007 -23.495  64.511  0.00  0.00    +0.116 A 
ATOM      7  N   UNL     1      22.057 -23.808  65.459  0.00  0.00    -0.223 NA
ATOM      8  C   UNL     1      20.932 -23.022  65.627  0.00  0.00    +0.220 A 
ATOM      9  N   UNL     1      19.960 -23.322  66.569  0.00  0.00    -0.283 N 
ATOM     36  H   UNL     1      19.148 -22.713  66.667  0.00  0.00    +0.155 HD
ATOM     37  N   UNL     1      20.752 -21.929  64.856  0.00  0.00    -0.214 NA
BRANCH   4   3
ATOM      1  C   UNL     1      20.049 -18.209  62.693  0.00  0.00    +0.020 A 
ATOM      2  C   UNL     1      20.317 -19.381  63.494  0.00  0.00    +0.013 A 
ATOM      3  C   UNL     1      21.345 -20.335  63.097  0.00  0.00    +0.019 A 
ATOM     38  C   UNL     1      22.091 -20.071  61.876  0.00  0.00    +0.120 A 
ATOM     39  N   UNL     1      21.811 -18.934  61.125  0.00  0.00    -0.263 NA
ATOM     40  C   UNL     1      20.822 -18.010  61.496  0.00  0.00    +0.111 A 
ENDBRANCH   4   3
ENDBRANCH  10   9
BRANCH  12  13
ATOM     13  N   UNL     1      19.091 -28.161  67.335  0.00  0.00    -0.281 N 
ATOM     14  C   UNL     1      18.116 -28.412  66.384  0.00  0.00    +0.248 C 
ATOM     30  O   UNL     1      17.397 -27.557  65.888  0.00  0.00    -0.270 OA
ATOM     31  H   UNL     1      19.481 -28.978  67.805  0.00  0.00    +0.155 HD
BRANCH  14  15
ATOM     15  C   UNL     1      17.897 -29.819  65.929  0.00  0.00    +0.037 A 
ATOM     16  C   UNL     1      16.823 -30.156  64.990  0.00  0.00    +0.013 A 
ATOM     17  C   UNL     1      16.623 -31.523  64.581  0.00  0.00    +0.005 A 
ATOM     18  C   UNL     1      17.501 -32.565  65.108  0.00  0.00    -0.033 A 
ATOM     28  C   UNL     1      18.562 -32.202  66.034  0.00  0.00    +0.005 A 
ATOM     29  C   UNL     1      18.760 -30.863  66.438  0.00  0.00    +0.013 A 
BRANCH  18  19
ATOM     19  C   UNL     1      17.348 -34.053  64.742  0.00  0.00    +0.119 C 
BRANCH  19  20
ATOM     20  N   UNL     1      17.311 -34.399  63.290  0.00  0.00    -0.302 NA
ATOM     21  C   UNL     1      16.427 -35.619  63.013  0.00  0.00    +0.066 C 
ATOM     22  C   UNL     1      16.381 -35.954  61.487  0.00  0.00    -0.064 C 
ATOM     23  N   UNL     1      17.804 -36.189  60.976  0.00  0.00    +0.379 N 
ATOM     24  C   UNL     1      17.760 -36.561  59.554  0.00  0.00    -0.096 C 
ATOM     25  H   UNL     1      18.226 -37.053  61.539  0.00  0.00    -0.082 HD
ATOM     26  C   UNL     1      18.690 -34.982  61.250  0.00  0.00    -0.064 C 
ATOM     27  C   UNL     1      18.705 -34.640  62.766  0.00  0.00    +0.066 C 
ENDBRANCH  19  20
ENDBRANCH  18  19
ENDBRANCH  14  15
ENDBRANCH  12  13
TORSDOF 6
ENDMDL
