MODEL 1
REMARK VINA RESULT:      -8.3      0.000      0.000
REMARK  Name = C:\Users\Docking\Desktop\test protocol\1iep_ligandH.pdb
REMARK  8 active torsions:
REMARK  status: ('A' for Active; 'I' for Inactive)
REMARK    1  A    between atoms: _5  and  _11
REMARK    2  A    between atoms: _19  and  _21
REMARK    3  A    between atoms: _22  and  _66
REMARK    4  A    between atoms: _27  and  _30
REMARK    5  A    between atoms: _32  and  _33
REMARK    6  A    between atoms: _38  and  _43
REMARK    7  A    between atoms: _43  and  _46
REMARK    8  A    between atoms: _53  and  _55
REMARK                            x       y       z     vdW  Elec       q    Type
REMARK                         _______ _______ _______ _____ _____    ______ ____
ROOT
ATOM     10  C   UNL     1      -2.025 -33.769 -80.301  0.00  0.00    +0.038 A 
ATOM     11  C   UNL     1      -2.912 -33.202 -79.351  0.00  0.00    +0.047 A 
ATOM     12  C   UNL     1      -4.236 -33.763 -79.129  0.00  0.00    +0.035 A 
ATOM     32  C   UNL     1      -4.623 -34.904 -79.890  0.00  0.00    +0.024 A 
ATOM     33  C   UNL     1      -3.734 -35.493 -80.861  0.00  0.00    +0.007 A 
ATOM     34  C   UNL     1      -2.428 -34.942 -81.086  0.00  0.00    -0.029 A 
ATOM     35  C   UNL     1      -1.520 -35.611 -82.145  0.00  0.00    +0.045 C 
ENDROOT
BRANCH  10   9
ATOM      4  C   UNL     1       0.917 -30.561 -82.323  0.00  0.00    +0.077 A 
ATOM      5  C   UNL     1      -0.138 -30.009 -83.122  0.00  0.00    +0.048 A 
ATOM      6  C   UNL     1      -1.422 -30.584 -82.989  0.00  0.00    +0.116 A 
ATOM      7  N   UNL     1      -1.624 -31.632 -82.118  0.00  0.00    -0.223 NA
ATOM      8  C   UNL     1      -0.584 -32.142 -81.362  0.00  0.00    +0.220 A 
ATOM      9  N   UNL     1      -0.766 -33.190 -80.474  0.00  0.00    -0.283 N 
ATOM     36  H   UNL     1       0.028 -33.543 -79.940  0.00  0.00    +0.155 HD
ATOM     37  N   UNL     1       0.652 -31.611 -81.473  0.00  0.00    -0.214 NA
BRANCH   4   3
ATOM      1  C   UNL     1       4.575 -29.765 -83.456  0.00  0.00    +0.020 A 
ATOM      2  C   UNL     1       3.222 -30.270 -83.480  0.00  0.00    +0.013 A 
ATOM      3  C   UNL     1       2.327 -30.059 -82.349  0.00  0.00    +0.019 A 
ATOM     38  C   UNL     1       2.837 -29.326 -81.200  0.00  0.00    +0.120 A 
ATOM     39  N   UNL     1       4.145 -28.852 -81.204  0.00  0.00    -0.263 NA
ATOM     40  C   UNL     1       5.015 -29.051 -82.286  0.00  0.00    +0.111 A 
ENDBRANCH   4   3
ENDBRANCH  10   9
BRANCH  12  13
ATOM     13  N   UNL     1      -5.183 -33.225 -78.184  0.00  0.00    -0.281 N 
ATOM     14  C   UNL     1      -5.872 -32.025 -78.257  0.00  0.00    +0.248 C 
ATOM     30  O   UNL     1      -5.616 -31.129 -79.048  0.00  0.00    -0.270 OA
ATOM     31  H   UNL     1      -5.367 -33.798 -77.360  0.00  0.00    +0.155 HD
BRANCH  14  15
ATOM     15  C   UNL     1      -6.998 -31.780 -77.306  0.00  0.00    +0.037 A 
ATOM     16  C   UNL     1      -7.235 -30.452 -76.735  0.00  0.00    +0.013 A 
ATOM     17  C   UNL     1      -8.318 -30.246 -75.806  0.00  0.00    +0.005 A 
ATOM     18  C   UNL     1      -9.174 -31.373 -75.444  0.00  0.00    -0.033 A 
ATOM     28  C   UNL     1      -8.920 -32.679 -76.030  0.00  0.00    +0.005 A 
ATOM     29  C   UNL     1      -7.859 -32.884 -76.940  0.00  0.00    +0.013 A 
BRANCH  18  19
ATOM     19  C   UNL     1     -10.340 -31.250 -74.445  0.00  0.00    +0.119 C 
BRANCH  19  20
ATOM     20  N   UNL     1     -10.025 -31.448 -72.999  0.00  0.00    -0.302 NA
ATOM     21  C   UNL     1      -8.718 -32.219 -72.796  0.00  0.00    +0.066 C 
ATOM     22  C   UNL     1      -8.392 -32.397 -71.278  0.00  0.00    -0.064 C 
ATOM     23  N   UNL     1      -9.555 -33.114 -70.590  0.00  0.00    +0.379 N 
ATOM     24  C   UNL     1      -9.227 -33.334 -69.174  0.00  0.00    -0.096 C 
ATOM     25  H   UNL     1      -9.669 -34.113 -71.071  0.00  0.00    -0.082 HD
ATOM     26  C   UNL     1     -10.860 -32.355 -70.789  0.00  0.00    -0.064 C 
ATOM     27  C   UNL     1     -11.159 -32.158 -72.301  0.00  0.00    +0.066 C 
ENDBRANCH  19  20
ENDBRANCH  18  19
ENDBRANCH  14  15
ENDBRANCH  12  13
TORSDOF 6
ENDMDL
MODEL 2
REMARK VINA RESULT:      -8.2      1.653      2.554
REMARK  Name = C:\Users\Docking\Desktop\test protocol\1iep_ligandH.pdb
REMARK  8 active torsions:
REMARK  status: ('A' for Active; 'I' for Inactive)
REMARK    1  A    between atoms: _5  and  _11
REMARK    2  A    between atoms: _19  and  _21
REMARK    3  A    between atoms: _22  and  _66
REMARK    4  A    between atoms: _27  and  _30
REMARK    5  A    between atoms: _32  and  _33
REMARK    6  A    between atoms: _38  and  _43
REMARK    7  A    between atoms: _43  and  _46
REMARK    8  A    between atoms: _53  and  _55
REMARK                            x       y       z     vdW  Elec       q    Type
REMARK                         _______ _______ _______ _____ _____    ______ ____
ROOT
ATOM     10  C   UNL     1      -2.023 -33.820 -80.423  0.00  0.00    +0.038 A 
ATOM     11  C   UNL     1      -2.907 -33.278 -79.455  0.00  0.00    +0.047 A 
ATOM     12  C   UNL     1      -4.236 -33.835 -79.254  0.00  0.00    +0.035 A 
ATOM     32  C   UNL     1      -4.631 -34.945 -80.055  0.00  0.00    +0.024 A 
ATOM     33  C   UNL     1      -3.746 -35.508 -81.044  0.00  0.00    +0.007 A 
ATOM     34  C   UNL     1      -2.435 -34.962 -81.248  0.00  0.00    -0.029 A 
ATOM     35  C   UNL     1      -1.530 -35.602 -82.327  0.00  0.00    +0.045 C 
ENDROOT
BRANCH  10   9
ATOM      4  C   UNL     1       0.917 -30.455 -82.175  0.00  0.00    +0.077 A 
ATOM      5  C   UNL     1      -0.152 -29.800 -82.871  0.00  0.00    +0.048 A 
ATOM      6  C   UNL     1      -1.443 -30.364 -82.758  0.00  0.00    +0.116 A 
ATOM      7  N   UNL     1      -1.637 -31.500 -82.002  0.00  0.00    -0.223 NA
ATOM      8  C   UNL     1      -0.584 -32.109 -81.345  0.00  0.00    +0.220 A 
ATOM      9  N   UNL     1      -0.758 -33.247 -80.573  0.00  0.00    -0.283 N 
ATOM     36  H   UNL     1       0.046 -33.670 -80.110  0.00  0.00    +0.155 HD
ATOM     37  N   UNL     1       0.658 -31.590 -81.438  0.00  0.00    -0.214 NA
BRANCH   4   3
ATOM      1  C   UNL     1       4.293 -28.742 -81.192  0.00  0.00    +0.020 A 
ATOM      2  C   UNL     1       2.917 -29.177 -81.124  0.00  0.00    +0.013 A 
ATOM      3  C   UNL     1       2.336 -29.978 -82.195  0.00  0.00    +0.019 A 
ATOM     38  C   UNL     1       3.181 -30.324 -83.328  0.00  0.00    +0.120 A 
ATOM     39  N   UNL     1       4.502 -29.889 -83.366  0.00  0.00    -0.263 NA
ATOM     40  C   UNL     1       5.071 -29.117 -82.343  0.00  0.00    +0.111 A 
ENDBRANCH   4   3
ENDBRANCH  10   9
BRANCH  12  13
ATOM     13  N   UNL     1      -5.179 -33.321 -78.292  0.00  0.00    -0.281 N 
ATOM     14  C   UNL     1      -5.847 -32.108 -78.319  0.00  0.00    +0.248 C 
ATOM     30  O   UNL     1      -5.571 -31.183 -79.069  0.00  0.00    -0.270 OA
ATOM     31  H   UNL     1      -5.379 -33.925 -77.495  0.00  0.00    +0.155 HD
BRANCH  14  15
ATOM     15  C   UNL     1      -6.976 -31.884 -77.365  0.00  0.00    +0.037 A 
ATOM     16  C   UNL     1      -7.381 -30.532 -76.971  0.00  0.00    +0.013 A 
ATOM     17  C   UNL     1      -8.461 -30.344 -76.035  0.00  0.00    +0.005 A 
ATOM     18  C   UNL     1      -9.146 -31.513 -75.488  0.00  0.00    -0.033 A 
ATOM     28  C   UNL     1      -8.727 -32.843 -75.900  0.00  0.00    +0.005 A 
ATOM     29  C   UNL     1      -7.668 -33.030 -76.816  0.00  0.00    +0.013 A 
BRANCH  18  19
ATOM     19  C   UNL     1     -10.295 -31.408 -74.469  0.00  0.00    +0.119 C 
BRANCH  19  20
ATOM     20  N   UNL     1     -11.576 -32.097 -74.808  0.00  0.00    -0.302 NA
ATOM     21  C   UNL     1     -12.623 -31.124 -75.358  0.00  0.00    +0.066 C 
ATOM     22  C   UNL     1     -13.949 -31.865 -75.730  0.00  0.00    -0.064 C 
ATOM     23  N   UNL     1     -14.484 -32.596 -74.497  0.00  0.00    +0.379 N 
ATOM     24  C   UNL     1     -15.760 -33.246 -74.828  0.00  0.00    -0.096 C 
ATOM     25  H   UNL     1     -14.686 -31.831 -73.712  0.00  0.00    -0.082 HD
ATOM     26  C   UNL     1     -13.448 -33.564 -73.943  0.00  0.00    -0.064 C 
ATOM     27  C   UNL     1     -12.124 -32.822 -73.604  0.00  0.00    +0.066 C 
ENDBRANCH  19  20
ENDBRANCH  18  19
ENDBRANCH  14  15
ENDBRANCH  12  13
TORSDOF 6
ENDMDL
MODEL 3
REMARK VINA RESULT:      -7.5      2.244      3.072
REMARK  Name = C:\Users\Docking\Desktop\test protocol\1iep_ligandH.pdb
REMARK  8 active torsions:
REMARK  status: ('A' for Active; 'I' for Inactive)
REMARK    1  A    between atoms: _5  and  _11
REMARK    2  A    between atoms: _19  and  _21
REMARK    3  A    between atoms: _22  and  _66
REMARK    4  A    between atoms: _27  and  _30
REMARK    5  A    between atoms: _32  and  _33
REMARK    6  A    between atoms: _38  and  _43
REMARK    7  A    between atoms: _43  and  _46
REMARK    8  A    between atoms: _53  and  _55
REMARK                            x       y       z     vdW  Elec       q    Type
REMARK                         _______ _______ _______ _____ _____    ______ ____
ROOT
ATOM     10  C   UNL     1      -3.241 -33.166 -82.665  0.00  0.00    +0.038 A 
ATOM     11  C   UNL     1      -3.793 -32.644 -81.467  0.00  0.00    +0.047 A 
ATOM     12  C   UNL     1      -4.835 -33.357 -80.745  0.00  0.00    +0.035 A 
ATOM     32  C   UNL     1      -5.290 -34.602 -81.269  0.00  0.00    +0.024 A 
ATOM     33  C   UNL     1      -4.741 -35.147 -82.486  0.00  0.00    +0.007 A 
ATOM     34  C   UNL     1      -3.714 -34.447 -83.204  0.00  0.00    -0.029 A 
ATOM     35  C   UNL     1      -3.166 -35.076 -84.506  0.00  0.00    +0.045 C 
ENDROOT
BRANCH  10   9
ATOM      4  C   UNL     1       1.238 -31.472 -82.984  0.00  0.00    +0.077 A 
ATOM      5  C   UNL     1       1.614 -32.063 -81.732  0.00  0.00    +0.048 A 
ATOM      6  C   UNL     1       0.623 -32.788 -81.034  0.00  0.00    +0.116 A 
ATOM      7  N   UNL     1      -0.646 -32.908 -81.558  0.00  0.00    -0.223 NA
ATOM      8  C   UNL     1      -0.976 -32.325 -82.767  0.00  0.00    +0.220 A 
ATOM      9  N   UNL     1      -2.243 -32.440 -83.317  0.00  0.00    -0.283 N 
ATOM     36  H   UNL     1      -2.449 -31.988 -84.208  0.00  0.00    +0.155 HD
ATOM     37  N   UNL     1      -0.048 -31.626 -83.453  0.00  0.00    -0.214 NA
BRANCH   4   3
ATOM      1  C   UNL     1       4.477 -29.881 -84.493  0.00  0.00    +0.020 A 
ATOM      2  C   UNL     1       3.617 -30.664 -83.636  0.00  0.00    +0.013 A 
ATOM      3  C   UNL     1       2.174 -30.679 -83.842  0.00  0.00    +0.019 A 
ATOM     38  C   UNL     1       1.629 -29.883 -84.932  0.00  0.00    +0.120 A 
ATOM     39  N   UNL     1       2.482 -29.137 -85.739  0.00  0.00    -0.263 NA
ATOM     40  C   UNL     1       3.872 -29.115 -85.550  0.00  0.00    +0.111 A 
ENDBRANCH   4   3
ENDBRANCH  10   9
BRANCH  12  13
ATOM     13  N   UNL     1      -5.439 -32.872 -79.529  0.00  0.00    -0.281 N 
ATOM     14  C   UNL     1      -6.248 -31.759 -79.365  0.00  0.00    +0.248 C 
ATOM     30  O   UNL     1      -6.402 -30.886 -80.206  0.00  0.00    -0.270 OA
ATOM     31  H   UNL     1      -5.247 -33.414 -78.687  0.00  0.00    +0.155 HD
BRANCH  14  15
ATOM     15  C   UNL     1      -6.981 -31.583 -78.074  0.00  0.00    +0.037 A 
ATOM     16  C   UNL     1      -7.012 -30.289 -77.388  0.00  0.00    +0.013 A 
ATOM     17  C   UNL     1      -7.712 -30.151 -76.136  0.00  0.00    +0.005 A 
ATOM     18  C   UNL     1      -8.388 -31.312 -75.561  0.00  0.00    -0.033 A 
ATOM     28  C   UNL     1      -8.346 -32.582 -76.265  0.00  0.00    +0.005 A 
ATOM     29  C   UNL     1      -7.660 -32.722 -77.493  0.00  0.00    +0.013 A 
BRANCH  18  19
ATOM     19  C   UNL     1      -9.142 -31.261 -74.219  0.00  0.00    +0.119 C 
BRANCH  19  20
ATOM     20  N   UNL     1     -10.631 -31.172 -74.273  0.00  0.00    -0.302 NA
ATOM     21  C   UNL     1     -11.281 -32.540 -74.502  0.00  0.00    +0.066 C 
ATOM     22  C   UNL     1     -12.840 -32.432 -74.533  0.00  0.00    -0.064 C 
ATOM     23  N   UNL     1     -13.258 -31.445 -75.625  0.00  0.00    +0.379 N 
ATOM     24  C   UNL     1     -14.725 -31.385 -75.697  0.00  0.00    -0.096 C 
ATOM     25  H   UNL     1     -12.887 -31.842 -76.599  0.00  0.00    -0.082 HD
ATOM     26  C   UNL     1     -12.614 -30.083 -75.407  0.00  0.00    -0.064 C 
ATOM     27  C   UNL     1     -11.066 -30.206 -75.348  0.00  0.00    +0.066 C 
ENDBRANCH  19  20
ENDBRANCH  18  19
ENDBRANCH  14  15
ENDBRANCH  12  13
TORSDOF 6
ENDMDL
MODEL 4
REMARK VINA RESULT:      -7.5     18.222     21.522
REMARK  Name = C:\Users\Docking\Desktop\test protocol\1iep_ligandH.pdb
REMARK  8 active torsions:
REMARK  status: ('A' for Active; 'I' for Inactive)
REMARK    1  A    between atoms: _5  and  _11
REMARK    2  A    between atoms: _19  and  _21
REMARK    3  A    between atoms: _22  and  _66
REMARK    4  A    between atoms: _27  and  _30
REMARK    5  A    between atoms: _32  and  _33
REMARK    6  A    between atoms: _38  and  _43
REMARK    7  A    between atoms: _43  and  _46
REMARK    8  A    between atoms: _53  and  _55
REMARK                            x       y       z     vdW  Elec       q    Type
REMARK                         _______ _______ _______ _____ _____    ______ ____
ROOT
ATOM     10  C   UNL     1       6.395 -34.427 -61.912  0.00  0.00    +0.038 A 
ATOM     11  C   UNL     1       5.998 -35.517 -62.729  0.00  0.00    +0.047 A 
ATOM     12  C   UNL     1       6.848 -36.686 -62.888  0.00  0.00    +0.035 A 
ATOM     32  C   UNL     1       8.095 -36.714 -62.198  0.00  0.00    +0.024 A 
ATOM     33  C   UNL     1       8.515 -35.615 -61.365  0.00  0.00    +0.007 A 
ATOM     34  C   UNL     1       7.681 -34.457 -61.206  0.00  0.00    -0.029 A 
ATOM     35  C   UNL     1       8.185 -33.306 -60.305  0.00  0.00    +0.045 C 
ENDROOT
BRANCH  10   9
ATOM      4  C   UNL     1       3.145 -31.831 -59.517  0.00  0.00    +0.077 A 
ATOM      5  C   UNL     1       3.130 -32.753 -58.419  0.00  0.00    +0.048 A 
ATOM      6  C   UNL     1       3.968 -33.887 -58.512  0.00  0.00    +0.116 A 
ATOM      7  N   UNL     1       4.758 -34.074 -59.626  0.00  0.00    -0.223 NA
ATOM      8  C   UNL     1       4.747 -33.165 -60.668  0.00  0.00    +0.220 A 
ATOM      9  N   UNL     1       5.539 -33.329 -61.794  0.00  0.00    -0.283 N 
ATOM     36  H   UNL     1       5.497 -32.640 -62.545  0.00  0.00    +0.155 HD
ATOM     37  N   UNL     1       3.955 -32.075 -60.604  0.00  0.00    -0.214 NA
BRANCH   4   3
ATOM      1  C   UNL     1       1.642 -28.387 -60.604  0.00  0.00    +0.020 A 
ATOM      2  C   UNL     1       2.467 -29.573 -60.604  0.00  0.00    +0.013 A 
ATOM      3  C   UNL     1       2.318 -30.584 -59.565  0.00  0.00    +0.019 A 
ATOM     38  C   UNL     1       1.316 -30.362 -58.532  0.00  0.00    +0.120 A 
ATOM     39  N   UNL     1       0.537 -29.210 -58.557  0.00  0.00    -0.263 NA
ATOM     40  C   UNL     1       0.673 -28.230 -59.552  0.00  0.00    +0.111 A 
ENDBRANCH   4   3
ENDBRANCH  10   9
BRANCH  12  13
ATOM     13  N   UNL     1       6.502 -37.819 -63.710  0.00  0.00    -0.281 N 
ATOM     14  C   UNL     1       6.365 -37.861 -65.088  0.00  0.00    +0.248 C 
ATOM     30  O   UNL     1       6.312 -36.874 -65.808  0.00  0.00    -0.270 OA
ATOM     31  H   UNL     1       6.337 -38.696 -63.217  0.00  0.00    +0.155 HD
BRANCH  14  15
ATOM     15  C   UNL     1       6.259 -39.190 -65.763  0.00  0.00    +0.037 A 
ATOM     16  C   UNL     1       5.508 -40.292 -65.157  0.00  0.00    +0.013 A 
ATOM     17  C   UNL     1       5.435 -41.569 -65.821  0.00  0.00    +0.005 A 
ATOM     18  C   UNL     1       6.115 -41.751 -67.101  0.00  0.00    -0.033 A 
ATOM     28  C   UNL     1       6.849 -40.639 -67.683  0.00  0.00    +0.005 A 
ATOM     29  C   UNL     1       6.923 -39.386 -67.034  0.00  0.00    +0.013 A 
BRANCH  18  19
ATOM     19  C   UNL     1       6.109 -43.085 -67.870  0.00  0.00    +0.119 C 
BRANCH  19  20
ATOM     20  N   UNL     1       6.280 -44.336 -67.071  0.00  0.00    -0.302 NA
ATOM     21  C   UNL     1       4.972 -44.776 -66.407  0.00  0.00    +0.066 C 
ATOM     22  C   UNL     1       5.164 -46.098 -65.594  0.00  0.00    -0.064 C 
ATOM     23  N   UNL     1       6.261 -45.895 -64.548  0.00  0.00    +0.379 N 
ATOM     24  C   UNL     1       6.403 -47.117 -63.743  0.00  0.00    -0.096 C 
ATOM     25  H   UNL     1       5.930 -45.077 -63.866  0.00  0.00    -0.082 HD
ATOM     26  C   UNL     1       7.564 -45.454 -65.199  0.00  0.00    -0.064 C 
ATOM     27  C   UNL     1       7.356 -44.156 -66.029  0.00  0.00    +0.066 C 
ENDBRANCH  19  20
ENDBRANCH  18  19
ENDBRANCH  14  15
ENDBRANCH  12  13
TORSDOF 6
ENDMDL
MODEL 5
REMARK VINA RESULT:      -7.5      3.412     14.115
REMARK  Name = C:\Users\Docking\Desktop\test protocol\1iep_ligandH.pdb
REMARK  8 active torsions:
REMARK  status: ('A' for Active; 'I' for Inactive)
REMARK    1  A    between atoms: _5  and  _11
REMARK    2  A    between atoms: _19  and  _21
REMARK    3  A    between atoms: _22  and  _66
REMARK    4  A    between atoms: _27  and  _30
REMARK    5  A    between atoms: _32  and  _33
REMARK    6  A    between atoms: _38  and  _43
REMARK    7  A    between atoms: _43  and  _46
REMARK    8  A    between atoms: _53  and  _55
REMARK                            x       y       z     vdW  Elec       q    Type
REMARK                         _______ _______ _______ _____ _____    ______ ____
ROOT
ATOM     10  C   UNL     1     -10.864 -31.636 -73.700  0.00  0.00    +0.038 A 
ATOM     11  C   UNL     1      -9.904 -32.113 -74.629  0.00  0.00    +0.047 A 
ATOM     12  C   UNL     1      -9.193 -31.202 -75.512  0.00  0.00    +0.035 A 
ATOM     32  C   UNL     1      -9.483 -29.809 -75.420  0.00  0.00    +0.024 A 
ATOM     33  C   UNL     1     -10.456 -29.307 -74.483  0.00  0.00    +0.007 A 
ATOM     34  C   UNL     1     -11.163 -30.202 -73.611  0.00  0.00    -0.029 A 
ATOM     35  C   UNL     1     -12.200 -29.608 -72.631  0.00  0.00    +0.045 C 
ENDROOT
BRANCH  10   9
ATOM      4  C   UNL     1     -14.407 -34.747 -72.806  0.00  0.00    +0.077 A 
ATOM      5  C   UNL     1     -15.025 -34.500 -74.077  0.00  0.00    +0.048 A 
ATOM      6  C   UNL     1     -14.403 -33.560 -74.928  0.00  0.00    +0.116 A 
ATOM      7  N   UNL     1     -13.250 -32.920 -74.529  0.00  0.00    -0.223 NA
ATOM      8  C   UNL     1     -12.681 -33.181 -73.295  0.00  0.00    +0.220 A 
ATOM      9  N   UNL     1     -11.517 -32.556 -72.876  0.00  0.00    -0.283 N 
ATOM     36  H   UNL     1     -11.133 -32.770 -71.956  0.00  0.00    +0.155 HD
ATOM     37  N   UNL     1     -13.256 -34.074 -72.463  0.00  0.00    -0.214 NA
BRANCH   4   3
ATOM      1  C   UNL     1     -16.600 -37.455 -71.028  0.00  0.00    +0.020 A 
ATOM      2  C   UNL     1     -16.125 -36.535 -72.036  0.00  0.00    +0.013 A 
ATOM      3  C   UNL     1     -14.943 -35.716 -71.797  0.00  0.00    +0.019 A 
ATOM     38  C   UNL     1     -14.260 -35.853 -70.520  0.00  0.00    +0.120 A 
ATOM     39  N   UNL     1     -14.742 -36.746 -69.568  0.00  0.00    -0.263 NA
ATOM     40  C   UNL     1     -15.879 -37.539 -69.786  0.00  0.00    +0.111 A 
ENDBRANCH   4   3
ENDBRANCH  10   9
BRANCH  12  13
ATOM     13  N   UNL     1      -8.214 -31.630 -76.480  0.00  0.00    -0.281 N 
ATOM     14  C   UNL     1      -6.985 -32.223 -76.243  0.00  0.00    +0.248 C 
ATOM     30  O   UNL     1      -6.445 -32.283 -75.148  0.00  0.00    -0.270 OA
ATOM     31  H   UNL     1      -8.456 -31.476 -77.459  0.00  0.00    +0.155 HD
BRANCH  14  15
ATOM     15  C   UNL     1      -6.240 -32.825 -77.391  0.00  0.00    +0.037 A 
ATOM     16  C   UNL     1      -4.998 -33.574 -77.182  0.00  0.00    +0.013 A 
ATOM     17  C   UNL     1      -4.291 -34.130 -78.308  0.00  0.00    +0.005 A 
ATOM     18  C   UNL     1      -4.826 -33.940 -79.654  0.00  0.00    -0.033 A 
ATOM     28  C   UNL     1      -6.063 -33.198 -79.832  0.00  0.00    +0.005 A 
ATOM     29  C   UNL     1      -6.758 -32.650 -78.731  0.00  0.00    +0.013 A 
BRANCH  18  19
ATOM     19  C   UNL     1      -4.127 -34.480 -80.916  0.00  0.00    +0.119 C 
BRANCH  19  20
ATOM     20  N   UNL     1      -2.909 -33.754 -81.387  0.00  0.00    -0.302 NA
ATOM     21  C   UNL     1      -1.621 -34.390 -80.856  0.00  0.00    +0.066 C 
ATOM     22  C   UNL     1      -0.356 -33.632 -81.376  0.00  0.00    -0.064 C 
ATOM     23  N   UNL     1      -0.443 -32.161 -80.967  0.00  0.00    +0.379 N 
ATOM     24  C   UNL     1       0.772 -31.458 -81.404  0.00  0.00    -0.096 C 
ATOM     25  H   UNL     1      -0.474 -32.121 -79.853  0.00  0.00    -0.082 HD
ATOM     26  C   UNL     1      -1.722 -31.522 -81.488  0.00  0.00    -0.064 C 
ATOM     27  C   UNL     1      -2.971 -32.300 -80.990  0.00  0.00    +0.066 C 
ENDBRANCH  19  20
ENDBRANCH  18  19
ENDBRANCH  14  15
ENDBRANCH  12  13
TORSDOF 6
ENDMDL
