MODEL 1
REMARK VINA RESULT:      -8.5      0.000      0.000
REMARK  Name = C:\Users\Docking\Desktop\test protocol\1iep_ligandH.pdb
REMARK  8 active torsions:
REMARK  status: ('A' for Active; 'I' for Inactive)
REMARK    1  A    between atoms: _5  and  _11
REMARK    2  A    between atoms: _19  and  _21
REMARK    3  A    between atoms: _22  and  _66
REMARK    4  A    between atoms: _27  and  _30
REMARK    5  A    between atoms: _32  and  _33
REMARK    6  A    between atoms: _38  and  _43
REMARK    7  A    between atoms: _43  and  _46
REMARK    8  A    between atoms: _53  and  _55
REMARK                            x       y       z     vdW  Elec       q    Type
REMARK                         _______ _______ _______ _____ _____    ______ ____
ROOT
ATOM     10  C   UNL     1      -1.439   5.689   9.668  0.00  0.00    +0.038 A 
ATOM     11  C   UNL     1      -0.967   4.829   8.643  0.00  0.00    +0.047 A 
ATOM     12  C   UNL     1      -1.731   4.623   7.423  0.00  0.00    +0.035 A 
ATOM     32  C   UNL     1      -2.971   5.309   7.278  0.00  0.00    +0.024 A 
ATOM     33  C   UNL     1      -3.467   6.185   8.310  0.00  0.00    +0.007 A 
ATOM     34  C   UNL     1      -2.719   6.391   9.517  0.00  0.00    -0.029 A 
ATOM     35  C   UNL     1      -3.302   7.337  10.593  0.00  0.00    +0.045 C 
ENDROOT
BRANCH  10   9
ATOM      4  C   UNL     1      -0.086   4.369  14.080  0.00  0.00    +0.077 A 
ATOM      5  C   UNL     1      -1.021   3.281  14.105  0.00  0.00    +0.048 A 
ATOM      6  C   UNL     1      -1.836   3.099  12.965  0.00  0.00    +0.116 A 
ATOM      7  N   UNL     1      -1.717   3.948  11.886  0.00  0.00    -0.223 NA
ATOM      8  C   UNL     1      -0.807   4.989  11.895  0.00  0.00    +0.220 A 
ATOM      9  N   UNL     1      -0.665   5.851  10.819  0.00  0.00    -0.283 N 
ATOM     36  H   UNL     1       0.013   6.611  10.867  0.00  0.00    +0.155 HD
ATOM     37  N   UNL     1      -0.018   5.185  12.972  0.00  0.00    -0.214 NA
BRANCH   4   3
ATOM      1  C   UNL     1       3.145   5.108  16.155  0.00  0.00    +0.020 A 
ATOM      2  C   UNL     1       2.289   4.798  15.034  0.00  0.00    +0.013 A 
ATOM      3  C   UNL     1       0.846   4.688  15.207  0.00  0.00    +0.019 A 
ATOM     38  C   UNL     1       0.297   4.901  16.537  0.00  0.00    +0.120 A 
ATOM     39  N   UNL     1       1.146   5.197  17.599  0.00  0.00    -0.263 NA
ATOM     40  C   UNL     1       2.537   5.304  17.445  0.00  0.00    +0.111 A 
ENDBRANCH   4   3
ENDBRANCH  10   9
BRANCH  12  13
ATOM     13  N   UNL     1      -1.305   3.756   6.351  0.00  0.00    -0.281 N 
ATOM     14  C   UNL     1      -1.376   2.374   6.295  0.00  0.00    +0.248 C 
ATOM     30  O   UNL     1      -1.622   1.655   7.252  0.00  0.00    -0.270 OA
ATOM     31  H   UNL     1      -0.903   4.218   5.535  0.00  0.00    +0.155 HD
BRANCH  14  15
ATOM     15  C   UNL     1      -1.123   1.690   4.990  0.00  0.00    +0.037 A 
ATOM     16  C   UNL     1      -1.605   2.259   3.728  0.00  0.00    +0.013 A 
ATOM     17  C   UNL     1      -1.362   1.571   2.485  0.00  0.00    +0.005 A 
ATOM     18  C   UNL     1      -0.632   0.306   2.498  0.00  0.00    -0.033 A 
ATOM     28  C   UNL     1      -0.161  -0.233   3.763  0.00  0.00    +0.005 A 
ATOM     29  C   UNL     1      -0.398   0.438   4.984  0.00  0.00    +0.013 A 
BRANCH  18  19
ATOM     19  C   UNL     1      -0.346  -0.508   1.222  0.00  0.00    +0.119 C 
BRANCH  19  20
ATOM     20  N   UNL     1       0.846  -1.408   1.237  0.00  0.00    -0.302 NA
ATOM     21  C   UNL     1       1.867  -1.026   0.162  0.00  0.00    +0.066 C 
ATOM     22  C   UNL     1       3.118  -1.963   0.207  0.00  0.00    -0.064 C 
ATOM     23  N   UNL     1       2.669  -3.416   0.037  0.00  0.00    +0.379 N 
ATOM     24  C   UNL     1       3.848  -4.294   0.021  0.00  0.00    -0.096 C 
ATOM     25  H   UNL     1       2.170  -3.501  -0.956  0.00  0.00    -0.082 HD
ATOM     26  C   UNL     1       1.651  -3.803   1.101  0.00  0.00    -0.064 C 
ATOM     27  C   UNL     1       0.426  -2.847   1.066  0.00  0.00    +0.066 C 
ENDBRANCH  19  20
ENDBRANCH  18  19
ENDBRANCH  14  15
ENDBRANCH  12  13
TORSDOF 6
ENDMDL
MODEL 2
REMARK VINA RESULT:      -8.4      1.800      2.066
REMARK  Name = C:\Users\Docking\Desktop\test protocol\1iep_ligandH.pdb
REMARK  8 active torsions:
REMARK  status: ('A' for Active; 'I' for Inactive)
REMARK    1  A    between atoms: _5  and  _11
REMARK    2  A    between atoms: _19  and  _21
REMARK    3  A    between atoms: _22  and  _66
REMARK    4  A    between atoms: _27  and  _30
REMARK    5  A    between atoms: _32  and  _33
REMARK    6  A    between atoms: _38  and  _43
REMARK    7  A    between atoms: _43  and  _46
REMARK    8  A    between atoms: _53  and  _55
REMARK                            x       y       z     vdW  Elec       q    Type
REMARK                         _______ _______ _______ _____ _____    ______ ____
ROOT
ATOM     10  C   UNL     1      -1.499   5.672  10.035  0.00  0.00    +0.038 A 
ATOM     11  C   UNL     1      -1.169   4.612   9.152  0.00  0.00    +0.047 A 
ATOM     12  C   UNL     1      -1.942   4.370   7.945  0.00  0.00    +0.035 A 
ATOM     32  C   UNL     1      -3.045   5.229   7.665  0.00  0.00    +0.024 A 
ATOM     33  C   UNL     1      -3.396   6.310   8.552  0.00  0.00    +0.007 A 
ATOM     34  C   UNL     1      -2.638   6.553   9.746  0.00  0.00    -0.029 A 
ATOM     35  C   UNL     1      -3.063   7.723  10.663  0.00  0.00    +0.045 C 
ENDROOT
BRANCH  10   9
ATOM      4  C   UNL     1       0.039   4.316  14.375  0.00  0.00    +0.077 A 
ATOM      5  C   UNL     1      -0.797   3.150  14.371  0.00  0.00    +0.048 A 
ATOM      6  C   UNL     1      -1.612   2.939  13.237  0.00  0.00    +0.116 A 
ATOM      7  N   UNL     1      -1.586   3.835  12.190  0.00  0.00    -0.223 NA
ATOM      8  C   UNL     1      -0.770   4.950  12.226  0.00  0.00    +0.220 A 
ATOM      9  N   UNL     1      -0.722   5.860  11.180  0.00  0.00    -0.283 N 
ATOM     36  H   UNL     1      -0.113   6.674  11.248  0.00  0.00    +0.155 HD
ATOM     37  N   UNL     1       0.017   5.175  13.298  0.00  0.00    -0.214 NA
BRANCH   4   3
ATOM      1  C   UNL     1       1.430   5.203  17.921  0.00  0.00    +0.020 A 
ATOM      2  C   UNL     1       0.500   4.858  16.871  0.00  0.00    +0.013 A 
ATOM      3  C   UNL     1       0.959   4.675  15.500  0.00  0.00    +0.019 A 
ATOM     38  C   UNL     1       2.377   4.849  15.223  0.00  0.00    +0.120 A 
ATOM     39  N   UNL     1       3.249   5.183  16.254  0.00  0.00    -0.263 NA
ATOM     40  C   UNL     1       2.818   5.363  17.577  0.00  0.00    +0.111 A 
ENDBRANCH   4   3
ENDBRANCH  10   9
BRANCH  12  13
ATOM     13  N   UNL     1      -1.659   3.304   7.015  0.00  0.00    -0.281 N 
ATOM     14  C   UNL     1      -0.604   3.211   6.122  0.00  0.00    +0.248 C 
ATOM     30  O   UNL     1       0.142   4.136   5.835  0.00  0.00    -0.270 OA
ATOM     31  H   UNL     1      -2.316   2.524   7.016  0.00  0.00    +0.155 HD
BRANCH  14  15
ATOM     15  C   UNL     1      -0.350   1.907   5.438  0.00  0.00    +0.037 A 
ATOM     16  C   UNL     1      -0.223   1.825   3.981  0.00  0.00    +0.013 A 
ATOM     17  C   UNL     1       0.005   0.552   3.345  0.00  0.00    +0.005 A 
ATOM     18  C   UNL     1       0.108  -0.651   4.167  0.00  0.00    -0.033 A 
ATOM     28  C   UNL     1      -0.017  -0.541   5.611  0.00  0.00    +0.005 A 
ATOM     29  C   UNL     1      -0.242   0.706   6.238  0.00  0.00    +0.013 A 
BRANCH  18  19
ATOM     19  C   UNL     1       0.329  -2.054   3.572  0.00  0.00    +0.119 C 
BRANCH  19  20
ATOM     20  N   UNL     1       1.551  -2.796   4.005  0.00  0.00    -0.302 NA
ATOM     21  C   UNL     1       2.836  -2.046   3.643  0.00  0.00    +0.066 C 
ATOM     22  C   UNL     1       4.104  -2.825   4.123  0.00  0.00    -0.064 C 
ATOM     23  N   UNL     1       4.102  -4.225   3.507  0.00  0.00    +0.379 N 
ATOM     24  C   UNL     1       5.322  -4.939   3.910  0.00  0.00    -0.096 C 
ATOM     25  H   UNL     1       4.129  -4.107   2.399  0.00  0.00    -0.082 HD
ATOM     26  C   UNL     1       2.826  -4.977   3.860  0.00  0.00    -0.064 C 
ATOM     27  C   UNL     1       1.572  -4.180   3.405  0.00  0.00    +0.066 C 
ENDBRANCH  19  20
ENDBRANCH  18  19
ENDBRANCH  14  15
ENDBRANCH  12  13
TORSDOF 6
ENDMDL
MODEL 3
REMARK VINA RESULT:      -8.3      1.741      2.389
REMARK  Name = C:\Users\Docking\Desktop\test protocol\1iep_ligandH.pdb
REMARK  8 active torsions:
REMARK  status: ('A' for Active; 'I' for Inactive)
REMARK    1  A    between atoms: _5  and  _11
REMARK    2  A    between atoms: _19  and  _21
REMARK    3  A    between atoms: _22  and  _66
REMARK    4  A    between atoms: _27  and  _30
REMARK    5  A    between atoms: _32  and  _33
REMARK    6  A    between atoms: _38  and  _43
REMARK    7  A    between atoms: _43  and  _46
REMARK    8  A    between atoms: _53  and  _55
REMARK                            x       y       z     vdW  Elec       q    Type
REMARK                         _______ _______ _______ _____ _____    ______ ____
ROOT
ATOM     10  C   UNL     1      -1.468   5.668   9.690  0.00  0.00    +0.038 A 
ATOM     11  C   UNL     1      -0.991   4.831   8.650  0.00  0.00    +0.047 A 
ATOM     12  C   UNL     1      -1.766   4.623   7.436  0.00  0.00    +0.035 A 
ATOM     32  C   UNL     1      -3.022   5.287   7.315  0.00  0.00    +0.024 A 
ATOM     33  C   UNL     1      -3.522   6.141   8.363  0.00  0.00    +0.007 A 
ATOM     34  C   UNL     1      -2.763   6.347   9.563  0.00  0.00    -0.029 A 
ATOM     35  C   UNL     1      -3.351   7.269  10.657  0.00  0.00    +0.045 C 
ENDROOT
BRANCH  10   9
ATOM      4  C   UNL     1      -0.068   4.351  14.088  0.00  0.00    +0.077 A 
ATOM      5  C   UNL     1      -0.999   3.260  14.122  0.00  0.00    +0.048 A 
ATOM      6  C   UNL     1      -1.825   3.077  12.991  0.00  0.00    +0.116 A 
ATOM      7  N   UNL     1      -1.719   3.927  11.911  0.00  0.00    -0.223 NA
ATOM      8  C   UNL     1      -0.812   4.970  11.911  0.00  0.00    +0.220 A 
ATOM      9  N   UNL     1      -0.682   5.832  10.833  0.00  0.00    -0.283 N 
ATOM     36  H   UNL     1      -0.006   6.594  10.876  0.00  0.00    +0.155 HD
ATOM     37  N   UNL     1      -0.013   5.167  12.981  0.00  0.00    -0.214 NA
BRANCH   4   3
ATOM      1  C   UNL     1       3.178   5.132  16.126  0.00  0.00    +0.020 A 
ATOM      2  C   UNL     1       2.312   4.821  15.013  0.00  0.00    +0.013 A 
ATOM      3  C   UNL     1       0.875   4.672  15.206  0.00  0.00    +0.019 A 
ATOM     38  C   UNL     1       0.342   4.847  16.549  0.00  0.00    +0.120 A 
ATOM     39  N   UNL     1       1.201   5.145  17.602  0.00  0.00    -0.263 NA
ATOM     40  C   UNL     1       2.586   5.289  17.429  0.00  0.00    +0.111 A 
ENDBRANCH   4   3
ENDBRANCH  10   9
BRANCH  12  13
ATOM     13  N   UNL     1      -1.337   3.778   6.350  0.00  0.00    -0.281 N 
ATOM     14  C   UNL     1      -1.395   2.396   6.272  0.00  0.00    +0.248 C 
ATOM     30  O   UNL     1      -1.629   1.660   7.219  0.00  0.00    -0.270 OA
ATOM     31  H   UNL     1      -0.943   4.256   5.540  0.00  0.00    +0.155 HD
BRANCH  14  15
ATOM     15  C   UNL     1      -1.141   1.736   4.955  0.00  0.00    +0.037 A 
ATOM     16  C   UNL     1      -0.382   0.486   4.866  0.00  0.00    +0.013 A 
ATOM     17  C   UNL     1      -0.137  -0.121   3.581  0.00  0.00    +0.005 A 
ATOM     18  C   UNL     1      -0.654   0.521   2.375  0.00  0.00    -0.033 A 
ATOM     28  C   UNL     1      -1.409   1.758   2.494  0.00  0.00    +0.005 A 
ATOM     29  C   UNL     1      -1.650   2.356   3.751  0.00  0.00    +0.013 A 
BRANCH  18  19
ATOM     19  C   UNL     1      -0.422  -0.044   0.962  0.00  0.00    +0.119 C 
BRANCH  19  20
ATOM     20  N   UNL     1       0.738   0.494   0.191  0.00  0.00    -0.302 NA
ATOM     21  C   UNL     1       1.372   1.706   0.880  0.00  0.00    +0.066 C 
ATOM     22  C   UNL     1       2.598   2.243   0.072  0.00  0.00    -0.064 C 
ATOM     23  N   UNL     1       2.154   2.597  -1.348  0.00  0.00    +0.379 N 
ATOM     24  C   UNL     1       3.292   3.157  -2.093  0.00  0.00    -0.096 C 
ATOM     25  H   UNL     1       1.377   3.393  -1.271  0.00  0.00    -0.082 HD
ATOM     26  C   UNL     1       1.520   1.398  -2.039  0.00  0.00    -0.064 C 
ATOM     27  C   UNL     1       0.321   0.855  -1.213  0.00  0.00    +0.066 C 
ENDBRANCH  19  20
ENDBRANCH  18  19
ENDBRANCH  14  15
ENDBRANCH  12  13
TORSDOF 6
ENDMDL
MODEL 4
REMARK VINA RESULT:      -8.1      6.884      9.741
REMARK  Name = C:\Users\Docking\Desktop\test protocol\1iep_ligandH.pdb
REMARK  8 active torsions:
REMARK  status: ('A' for Active; 'I' for Inactive)
REMARK    1  A    between atoms: _5  and  _11
REMARK    2  A    between atoms: _19  and  _21
REMARK    3  A    between atoms: _22  and  _66
REMARK    4  A    between atoms: _27  and  _30
REMARK    5  A    between atoms: _32  and  _33
REMARK    6  A    between atoms: _38  and  _43
REMARK    7  A    between atoms: _43  and  _46
REMARK    8  A    between atoms: _53  and  _55
REMARK                            x       y       z     vdW  Elec       q    Type
REMARK                         _______ _______ _______ _____ _____    ______ ____
ROOT
ATOM     10  C   UNL     1       0.113  -0.280   5.428  0.00  0.00    +0.038 A 
ATOM     11  C   UNL     1       0.974  -1.170   6.118  0.00  0.00    +0.047 A 
ATOM     12  C   UNL     1       1.742  -2.179   5.406  0.00  0.00    +0.035 A 
ATOM     32  C   UNL     1       1.609  -2.253   3.988  0.00  0.00    +0.024 A 
ATOM     33  C   UNL     1       0.737  -1.357   3.270  0.00  0.00    +0.007 A 
ATOM     34  C   UNL     1      -0.024  -0.361   3.968  0.00  0.00    -0.029 A 
ATOM     35  C   UNL     1      -0.948   0.569   3.148  0.00  0.00    +0.045 C 
ENDROOT
BRANCH  10   9
ATOM      4  C   UNL     1      -0.517   4.172   7.106  0.00  0.00    +0.077 A 
ATOM      5  C   UNL     1       0.691   4.639   6.490  0.00  0.00    +0.048 A 
ATOM      6  C   UNL     1       1.450   3.700   5.756  0.00  0.00    +0.116 A 
ATOM      7  N   UNL     1       1.022   2.394   5.652  0.00  0.00    -0.223 NA
ATOM      8  C   UNL     1      -0.147   1.976   6.260  0.00  0.00    +0.220 A 
ATOM      9  N   UNL     1      -0.601   0.670   6.162  0.00  0.00    -0.283 N 
ATOM     36  H   UNL     1      -1.465   0.400   6.632  0.00  0.00    +0.155 HD
ATOM     37  N   UNL     1      -0.889   2.854   6.968  0.00  0.00    -0.214 NA
BRANCH   4   3
ATOM      1  C   UNL     1      -3.686   6.041   8.435  0.00  0.00    +0.020 A 
ATOM      2  C   UNL     1      -2.850   5.185   7.625  0.00  0.00    +0.013 A 
ATOM      3  C   UNL     1      -1.428   5.045   7.912  0.00  0.00    +0.019 A 
ATOM     38  C   UNL     1      -0.879   5.790   9.035  0.00  0.00    +0.120 A 
ATOM     39  N   UNL     1      -1.708   6.608   9.796  0.00  0.00    -0.263 NA
ATOM     40  C   UNL     1      -3.078   6.752   9.528  0.00  0.00    +0.111 A 
ENDBRANCH   4   3
ENDBRANCH  10   9
BRANCH  12  13
ATOM     13  N   UNL     1       2.626  -3.115   6.054  0.00  0.00    -0.281 N 
ATOM     14  C   UNL     1       3.775  -2.840   6.778  0.00  0.00    +0.248 C 
ATOM     30  O   UNL     1       4.337  -1.755   6.797  0.00  0.00    -0.270 OA
ATOM     31  H   UNL     1       2.375  -4.100   5.969  0.00  0.00    +0.155 HD
BRANCH  14  15
ATOM     15  C   UNL     1       4.399  -3.932   7.585  0.00  0.00    +0.037 A 
ATOM     16  C   UNL     1       4.157  -4.045   9.026  0.00  0.00    +0.013 A 
ATOM     17  C   UNL     1       4.784  -5.098   9.785  0.00  0.00    +0.005 A 
ATOM     18  C   UNL     1       5.659  -6.048   9.102  0.00  0.00    -0.033 A 
ATOM     28  C   UNL     1       5.878  -5.917   7.671  0.00  0.00    +0.005 A 
ATOM     29  C   UNL     1       5.265  -4.885   6.925  0.00  0.00    +0.013 A 
BRANCH  18  19
ATOM     19  C   UNL     1       6.387  -7.190   9.836  0.00  0.00    +0.119 C 
BRANCH  19  20
ATOM     20  N   UNL     1       7.874  -7.247   9.708  0.00  0.00    -0.302 NA
ATOM     21  C   UNL     1       8.338  -8.488   8.940  0.00  0.00    +0.066 C 
ATOM     22  C   UNL     1       9.894  -8.519   8.796  0.00  0.00    -0.064 C 
ATOM     23  N   UNL     1      10.533  -8.473  10.185  0.00  0.00    +0.379 N 
ATOM     24  C   UNL     1      11.995  -8.561  10.056  0.00  0.00    -0.096 C 
ATOM     25  H   UNL     1      10.188  -9.372  10.746  0.00  0.00    -0.082 HD
ATOM     26  C   UNL     1      10.075  -7.244  10.957  0.00  0.00    -0.064 C 
ATOM     27  C   UNL     1       8.525  -7.207  11.069  0.00  0.00    +0.066 C 
ENDBRANCH  19  20
ENDBRANCH  18  19
ENDBRANCH  14  15
ENDBRANCH  12  13
TORSDOF 6
ENDMDL
MODEL 5
REMARK VINA RESULT:      -8.0      4.687     11.569
REMARK  Name = C:\Users\Docking\Desktop\test protocol\1iep_ligandH.pdb
REMARK  8 active torsions:
REMARK  status: ('A' for Active; 'I' for Inactive)
REMARK    1  A    between atoms: _5  and  _11
REMARK    2  A    between atoms: _19  and  _21
REMARK    3  A    between atoms: _22  and  _66
REMARK    4  A    between atoms: _27  and  _30
REMARK    5  A    between atoms: _32  and  _33
REMARK    6  A    between atoms: _38  and  _43
REMARK    7  A    between atoms: _43  and  _46
REMARK    8  A    between atoms: _53  and  _55
REMARK                            x       y       z     vdW  Elec       q    Type
REMARK                         _______ _______ _______ _____ _____    ______ ____
ROOT
ATOM     10  C   UNL     1       0.415  -0.366   5.526  0.00  0.00    +0.038 A 
ATOM     11  C   UNL     1       0.171   0.780   6.326  0.00  0.00    +0.047 A 
ATOM     12  C   UNL     1      -0.412   1.984   5.756  0.00  0.00    +0.035 A 
ATOM     32  C   UNL     1      -0.736   1.987   4.368  0.00  0.00    +0.024 A 
ATOM     33  C   UNL     1      -0.493   0.831   3.540  0.00  0.00    +0.007 A 
ATOM     34  C   UNL     1       0.084  -0.359   4.097  0.00  0.00    -0.029 A 
ATOM     35  C   UNL     1       0.328  -1.566   3.161  0.00  0.00    +0.045 C 
ENDROOT
BRANCH  10   9
ATOM      4  C   UNL     1       4.174  -2.864   7.162  0.00  0.00    +0.077 A 
ATOM      5  C   UNL     1       5.100  -1.843   6.765  0.00  0.00    +0.048 A 
ATOM      6  C   UNL     1       4.569  -0.694   6.137  0.00  0.00    +0.116 A 
ATOM      7  N   UNL     1       3.212  -0.585   5.926  0.00  0.00    -0.223 NA
ATOM      8  C   UNL     1       2.346  -1.588   6.320  0.00  0.00    +0.220 A 
ATOM      9  N   UNL     1       0.977  -1.496   6.126  0.00  0.00    -0.283 N 
ATOM     36  H   UNL     1       0.372  -2.261   6.424  0.00  0.00    +0.155 HD
ATOM     37  N   UNL     1       2.828  -2.696   6.921  0.00  0.00    -0.214 NA
BRANCH   4   3
ATOM      1  C   UNL     1       4.503  -5.768   9.762  0.00  0.00    +0.020 A 
ATOM      2  C   UNL     1       4.079  -4.529   9.151  0.00  0.00    +0.013 A 
ATOM      3  C   UNL     1       4.580  -4.135   7.840  0.00  0.00    +0.019 A 
ATOM     38  C   UNL     1       5.517  -5.024   7.169  0.00  0.00    +0.120 A 
ATOM     39  N   UNL     1       5.909  -6.209   7.783  0.00  0.00    -0.263 NA
ATOM     40  C   UNL     1       5.434  -6.598   9.044  0.00  0.00    +0.111 A 
ENDBRANCH   4   3
ENDBRANCH  10   9
BRANCH  12  13
ATOM     13  N   UNL     1      -0.676   3.181   6.517  0.00  0.00    -0.281 N 
ATOM     14  C   UNL     1      -1.887   3.830   6.690  0.00  0.00    +0.248 C 
ATOM     30  O   UNL     1      -2.895   3.598   6.039  0.00  0.00    -0.270 OA
ATOM     31  H   UNL     1       0.129   3.600   6.984  0.00  0.00    +0.155 HD
BRANCH  14  15
ATOM     15  C   UNL     1      -1.990   4.901   7.728  0.00  0.00    +0.037 A 
ATOM     16  C   UNL     1      -0.793   5.529   8.293  0.00  0.00    +0.013 A 
ATOM     17  C   UNL     1      -0.920   6.548   9.304  0.00  0.00    +0.005 A 
ATOM     18  C   UNL     1      -2.251   6.947   9.756  0.00  0.00    -0.033 A 
ATOM     28  C   UNL     1      -3.422   6.311   9.175  0.00  0.00    +0.005 A 
ATOM     29  C   UNL     1      -3.301   5.311   8.184  0.00  0.00    +0.013 A 
BRANCH  18  19
ATOM     19  C   UNL     1      -2.480   8.010  10.846  0.00  0.00    +0.119 C 
BRANCH  19  20
ATOM     20  N   UNL     1      -1.601   9.217  10.820  0.00  0.00    -0.302 NA
ATOM     21  C   UNL     1      -0.501   9.149  11.884  0.00  0.00    +0.066 C 
ATOM     22  C   UNL     1       0.423  10.409  11.828  0.00  0.00    -0.064 C 
ATOM     23  N   UNL     1      -0.425  11.669  12.005  0.00  0.00    +0.379 N 
ATOM     24  C   UNL     1       0.448  12.852  12.011  0.00  0.00    -0.096 C 
ATOM     25  H   UNL     1      -0.918  11.607  13.003  0.00  0.00    -0.082 HD
ATOM     26  C   UNL     1      -1.523  11.743  10.953  0.00  0.00    -0.064 C 
ATOM     27  C   UNL     1      -2.418  10.473  10.998  0.00  0.00    +0.066 C 
ENDBRANCH  19  20
ENDBRANCH  18  19
ENDBRANCH  14  15
ENDBRANCH  12  13
TORSDOF 6
ENDMDL
