MODEL 1
REMARK VINA RESULT:      -7.6      0.000      0.000
REMARK  Name = C:\Users\Docking\Desktop\test protocol\1iep_ligandH.pdb
REMARK  8 active torsions:
REMARK  status: ('A' for Active; 'I' for Inactive)
REMARK    1  A    between atoms: _5  and  _11
REMARK    2  A    between atoms: _19  and  _21
REMARK    3  A    between atoms: _22  and  _66
REMARK    4  A    between atoms: _27  and  _30
REMARK    5  A    between atoms: _32  and  _33
REMARK    6  A    between atoms: _38  and  _43
REMARK    7  A    between atoms: _43  and  _46
REMARK    8  A    between atoms: _53  and  _55
REMARK                            x       y       z     vdW  Elec       q    Type
REMARK                         _______ _______ _______ _____ _____    ______ ____
ROOT
ATOM     10  C   UNL     1     -13.044 131.109  24.869  0.00  0.00    +0.038 A 
ATOM     11  C   UNL     1     -13.341 131.119  23.482  0.00  0.00    +0.047 A 
ATOM     12  C   UNL     1     -13.328 132.357  22.718  0.00  0.00    +0.035 A 
ATOM     32  C   UNL     1     -13.005 133.567  23.399  0.00  0.00    +0.024 A 
ATOM     33  C   UNL     1     -12.701 133.575  24.808  0.00  0.00    +0.007 A 
ATOM     34  C   UNL     1     -12.715 132.357  25.567  0.00  0.00    -0.029 A 
ATOM     35  C   UNL     1     -12.387 132.427  27.077  0.00  0.00    +0.045 C 
ENDROOT
BRANCH  10   9
ATOM      4  C   UNL     1     -10.924 127.127  26.509  0.00  0.00    +0.077 A 
ATOM      5  C   UNL     1      -9.662 127.490  25.932  0.00  0.00    +0.048 A 
ATOM      6  C   UNL     1      -9.602 128.706  25.214  0.00  0.00    +0.116 A 
ATOM      7  N   UNL     1     -10.727 129.492  25.090  0.00  0.00    -0.223 NA
ATOM      8  C   UNL     1     -11.929 129.112  25.658  0.00  0.00    +0.220 A 
ATOM      9  N   UNL     1     -13.071 129.892  25.553  0.00  0.00    -0.283 N 
ATOM     36  H   UNL     1     -13.940 129.573  25.980  0.00  0.00    +0.155 HD
ATOM     37  N   UNL     1     -12.013 127.955  26.347  0.00  0.00    -0.214 NA
BRANCH   4   3
ATOM      1  C   UNL     1     -12.331 123.693  27.745  0.00  0.00    +0.020 A 
ATOM      2  C   UNL     1     -12.158 124.886  26.949  0.00  0.00    +0.013 A 
ATOM      3  C   UNL     1     -11.146 125.875  27.299  0.00  0.00    +0.019 A 
ATOM     38  C   UNL     1     -10.318 125.624  28.469  0.00  0.00    +0.120 A 
ATOM     39  N   UNL     1     -10.508 124.466  29.217  0.00  0.00    -0.263 NA
ATOM     40  C   UNL     1     -11.480 123.509  28.892  0.00  0.00    +0.111 A 
ENDBRANCH   4   3
ENDBRANCH  10   9
BRANCH  12  13
ATOM     13  N   UNL     1     -13.630 132.430  21.310  0.00  0.00    -0.281 N 
ATOM     14  C   UNL     1     -12.743 132.573  20.256  0.00  0.00    +0.248 C 
ATOM     30  O   UNL     1     -11.566 132.876  20.379  0.00  0.00    -0.270 OA
ATOM     31  H   UNL     1     -14.617 132.368  21.061  0.00  0.00    +0.155 HD
BRANCH  14  15
ATOM     15  C   UNL     1     -13.239 132.363  18.862  0.00  0.00    +0.037 A 
ATOM     16  C   UNL     1     -12.313 132.286  17.729  0.00  0.00    +0.013 A 
ATOM     17  C   UNL     1     -12.819 132.100  16.392  0.00  0.00    +0.005 A 
ATOM     18  C   UNL     1     -14.261 131.989  16.181  0.00  0.00    -0.033 A 
ATOM     28  C   UNL     1     -15.157 132.064  17.323  0.00  0.00    +0.005 A 
ATOM     29  C   UNL     1     -14.664 132.247  18.635  0.00  0.00    +0.013 A 
BRANCH  18  19
ATOM     19  C   UNL     1     -14.891 131.810  14.787  0.00  0.00    +0.119 C 
BRANCH  19  20
ATOM     20  N   UNL     1     -15.149 133.047  13.990  0.00  0.00    -0.302 NA
ATOM     21  C   UNL     1     -16.452 132.952  13.190  0.00  0.00    +0.066 C 
ATOM     22  C   UNL     1     -16.718 134.263  12.380  0.00  0.00    -0.064 C 
ATOM     23  N   UNL     1     -15.532 134.537  11.454  0.00  0.00    +0.379 N 
ATOM     24  C   UNL     1     -15.805 135.737  10.649  0.00  0.00    -0.096 C 
ATOM     25  H   UNL     1     -15.443 133.673  10.755  0.00  0.00    -0.082 HD
ATOM     26  C   UNL     1     -14.233 134.630  12.242  0.00  0.00    -0.064 C 
ATOM     27  C   UNL     1     -13.992 133.334  13.066  0.00  0.00    +0.066 C 
ENDBRANCH  19  20
ENDBRANCH  18  19
ENDBRANCH  14  15
ENDBRANCH  12  13
TORSDOF 6
ENDMDL
MODEL 2
REMARK VINA RESULT:      -7.3      1.606      2.162
REMARK  Name = C:\Users\Docking\Desktop\test protocol\1iep_ligandH.pdb
REMARK  8 active torsions:
REMARK  status: ('A' for Active; 'I' for Inactive)
REMARK    1  A    between atoms: _5  and  _11
REMARK    2  A    between atoms: _19  and  _21
REMARK    3  A    between atoms: _22  and  _66
REMARK    4  A    between atoms: _27  and  _30
REMARK    5  A    between atoms: _32  and  _33
REMARK    6  A    between atoms: _38  and  _43
REMARK    7  A    between atoms: _43  and  _46
REMARK    8  A    between atoms: _53  and  _55
REMARK                            x       y       z     vdW  Elec       q    Type
REMARK                         _______ _______ _______ _____ _____    ______ ____
ROOT
ATOM     10  C   UNL     1     -13.116 131.816  25.411  0.00  0.00    +0.038 A 
ATOM     11  C   UNL     1     -13.066 132.010  24.007  0.00  0.00    +0.047 A 
ATOM     12  C   UNL     1     -13.037 133.346  23.432  0.00  0.00    +0.035 A 
ATOM     32  C   UNL     1     -13.058 134.463  24.318  0.00  0.00    +0.024 A 
ATOM     33  C   UNL     1     -13.110 134.284  25.748  0.00  0.00    +0.007 A 
ATOM     34  C   UNL     1     -13.141 132.968  26.320  0.00  0.00    -0.029 A 
ATOM     35  C   UNL     1     -13.203 132.836  27.859  0.00  0.00    +0.045 C 
ENDROOT
BRANCH  10   9
ATOM      4  C   UNL     1     -10.933 127.868  27.050  0.00  0.00    +0.077 A 
ATOM      5  C   UNL     1      -9.631 128.444  26.876  0.00  0.00    +0.048 A 
ATOM      6  C   UNL     1      -9.566 129.756  26.356  0.00  0.00    +0.116 A 
ATOM      7  N   UNL     1     -10.723 130.432  26.037  0.00  0.00    -0.223 NA
ATOM      8  C   UNL     1     -11.963 129.847  26.215  0.00  0.00    +0.220 A 
ATOM      9  N   UNL     1     -13.141 130.511  25.908  0.00  0.00    -0.283 N 
ATOM     36  H   UNL     1     -14.035 130.042  26.047  0.00  0.00    +0.155 HD
ATOM     37  N   UNL     1     -12.052 128.594  26.709  0.00  0.00    -0.214 NA
BRANCH   4   3
ATOM      1  C   UNL     1     -12.483 124.347  27.757  0.00  0.00    +0.020 A 
ATOM      2  C   UNL     1     -12.304 125.670  27.204  0.00  0.00    +0.013 A 
ATOM      3  C   UNL     1     -11.166 126.492  27.593  0.00  0.00    +0.019 A 
ATOM     38  C   UNL     1     -10.218 125.942  28.550  0.00  0.00    +0.120 A 
ATOM     39  N   UNL     1     -10.416 124.666  29.067  0.00  0.00    -0.263 NA
ATOM     40  C   UNL     1     -11.509 123.866  28.702  0.00  0.00    +0.111 A 
ENDBRANCH   4   3
ENDBRANCH  10   9
BRANCH  12  13
ATOM     13  N   UNL     1     -12.995 133.605  22.015  0.00  0.00    -0.281 N 
ATOM     14  C   UNL     1     -11.906 134.000  21.253  0.00  0.00    +0.248 C 
ATOM     30  O   UNL     1     -10.848 134.398  21.715  0.00  0.00    -0.270 OA
ATOM     31  H   UNL     1     -13.873 133.483  21.511  0.00  0.00    +0.155 HD
BRANCH  14  15
ATOM     15  C   UNL     1     -12.015 133.959  19.763  0.00  0.00    +0.037 A 
ATOM     16  C   UNL     1     -11.846 135.170  18.956  0.00  0.00    +0.013 A 
ATOM     17  C   UNL     1     -11.973 135.106  17.521  0.00  0.00    +0.005 A 
ATOM     18  C   UNL     1     -12.269 133.824  16.885  0.00  0.00    -0.033 A 
ATOM     28  C   UNL     1     -12.426 132.638  17.709  0.00  0.00    +0.005 A 
ATOM     29  C   UNL     1     -12.304 132.697  19.116  0.00  0.00    +0.013 A 
BRANCH  18  19
ATOM     19  C   UNL     1     -12.442 133.667  15.362  0.00  0.00    +0.119 C 
BRANCH  19  20
ATOM     20  N   UNL     1     -13.568 132.809  14.888  0.00  0.00    -0.302 NA
ATOM     21  C   UNL     1     -13.077 131.639  14.030  0.00  0.00    +0.066 C 
ATOM     22  C   UNL     1     -14.266 130.738  13.561  0.00  0.00    -0.064 C 
ATOM     23  N   UNL     1     -15.273 131.591  12.788  0.00  0.00    +0.379 N 
ATOM     24  C   UNL     1     -16.363 130.736  12.295  0.00  0.00    -0.096 C 
ATOM     25  H   UNL     1     -14.747 132.014  11.900  0.00  0.00    -0.082 HD
ATOM     26  C   UNL     1     -15.765 132.758  13.632  0.00  0.00    -0.064 C 
ATOM     27  C   UNL     1     -14.573 133.630  14.117  0.00  0.00    +0.066 C 
ENDBRANCH  19  20
ENDBRANCH  18  19
ENDBRANCH  14  15
ENDBRANCH  12  13
TORSDOF 6
ENDMDL
MODEL 3
REMARK VINA RESULT:      -7.2     27.216     30.496
REMARK  Name = C:\Users\Docking\Desktop\test protocol\1iep_ligandH.pdb
REMARK  8 active torsions:
REMARK  status: ('A' for Active; 'I' for Inactive)
REMARK    1  A    between atoms: _5  and  _11
REMARK    2  A    between atoms: _19  and  _21
REMARK    3  A    between atoms: _22  and  _66
REMARK    4  A    between atoms: _27  and  _30
REMARK    5  A    between atoms: _32  and  _33
REMARK    6  A    between atoms: _38  and  _43
REMARK    7  A    between atoms: _43  and  _46
REMARK    8  A    between atoms: _53  and  _55
REMARK                            x       y       z     vdW  Elec       q    Type
REMARK                         _______ _______ _______ _____ _____    ______ ____
ROOT
ATOM     10  C   UNL     1      15.580 126.807  18.874  0.00  0.00    +0.038 A 
ATOM     11  C   UNL     1      15.521 126.945  20.285  0.00  0.00    +0.047 A 
ATOM     12  C   UNL     1      16.245 128.004  20.969  0.00  0.00    +0.035 A 
ATOM     32  C   UNL     1      17.018 128.909  20.185  0.00  0.00    +0.024 A 
ATOM     33  C   UNL     1      17.091 128.784  18.750  0.00  0.00    +0.007 A 
ATOM     34  C   UNL     1      16.380 127.739  18.070  0.00  0.00    -0.029 A 
ATOM     35  C   UNL     1      16.500 127.648  16.531  0.00  0.00    +0.045 C 
ENDROOT
BRANCH  10   9
ATOM      4  C   UNL     1      15.061 122.214  17.582  0.00  0.00    +0.077 A 
ATOM      5  C   UNL     1      16.334 121.853  18.136  0.00  0.00    +0.048 A 
ATOM      6  C   UNL     1      17.095 122.880  18.737  0.00  0.00    +0.116 A 
ATOM      7  N   UNL     1      16.609 124.169  18.778  0.00  0.00    -0.223 NA
ATOM      8  C   UNL     1      15.377 124.483  18.233  0.00  0.00    +0.220 A 
ATOM      9  N   UNL     1      14.865 125.771  18.270  0.00  0.00    -0.283 N 
ATOM     36  H   UNL     1      13.956 125.964  17.850  0.00  0.00    +0.155 HD
ATOM     37  N   UNL     1      14.632 123.521  17.652  0.00  0.00    -0.214 NA
BRANCH   4   3
ATOM      1  C   UNL     1      12.101 119.754  16.884  0.00  0.00    +0.020 A 
ATOM      2  C   UNL     1      12.959 120.691  17.572  0.00  0.00    +0.013 A 
ATOM      3  C   UNL     1      14.139 121.240  16.916  0.00  0.00    +0.019 A 
ATOM     38  C   UNL     1      14.425 120.817  15.554  0.00  0.00    +0.120 A 
ATOM     39  N   UNL     1      13.582 119.912  14.917  0.00  0.00    -0.263 NA
ATOM     40  C   UNL     1      12.444 119.376  15.538  0.00  0.00    +0.111 A 
ENDBRANCH   4   3
ENDBRANCH  10   9
BRANCH  12  13
ATOM     13  N   UNL     1      16.229 128.188  22.399  0.00  0.00    -0.281 N 
ATOM     14  C   UNL     1      15.215 128.723  23.177  0.00  0.00    +0.248 C 
ATOM     30  O   UNL     1      14.248 129.325  22.735  0.00  0.00    -0.270 OA
ATOM     31  H   UNL     1      17.066 127.888  22.898  0.00  0.00    +0.155 HD
BRANCH  14  15
ATOM     15  C   UNL     1      15.295 128.582  24.663  0.00  0.00    +0.037 A 
ATOM     16  C   UNL     1      16.575 128.346  25.336  0.00  0.00    +0.013 A 
ATOM     17  C   UNL     1      16.622 128.197  26.769  0.00  0.00    +0.005 A 
ATOM     18  C   UNL     1      15.383 128.285  27.539  0.00  0.00    -0.033 A 
ATOM     28  C   UNL     1      14.128 128.525  26.846  0.00  0.00    +0.005 A 
ATOM     29  C   UNL     1      14.078 128.671  25.442  0.00  0.00    +0.013 A 
BRANCH  18  19
ATOM     19  C   UNL     1      15.336 128.117  29.069  0.00  0.00    +0.119 C 
BRANCH  19  20
ATOM     20  N   UNL     1      14.289 127.208  29.626  0.00  0.00    -0.302 NA
ATOM     21  C   UNL     1      13.148 127.985  30.288  0.00  0.00    +0.066 C 
ATOM     22  C   UNL     1      12.050 127.020  30.844  0.00  0.00    -0.064 C 
ATOM     23  N   UNL     1      12.688 126.044  31.835  0.00  0.00    +0.379 N 
ATOM     24  C   UNL     1      11.649 125.173  32.403  0.00  0.00    -0.096 C 
ATOM     25  H   UNL     1      13.121 126.644  32.669  0.00  0.00    -0.082 HD
ATOM     26  C   UNL     1      13.826 125.270  31.185  0.00  0.00    -0.064 C 
ATOM     27  C   UNL     1      14.896 126.239  30.610  0.00  0.00    +0.066 C 
ENDBRANCH  19  20
ENDBRANCH  18  19
ENDBRANCH  14  15
ENDBRANCH  12  13
TORSDOF 6
ENDMDL
