MODEL 1
REMARK VINA RESULT:      -8.3      0.000      0.000
REMARK  Name = C:\Users\Docking\Desktop\test protocol\1iep_ligandH.pdb
REMARK  8 active torsions:
REMARK  status: ('A' for Active; 'I' for Inactive)
REMARK    1  A    between atoms: _5  and  _11
REMARK    2  A    between atoms: _19  and  _21
REMARK    3  A    between atoms: _22  and  _66
REMARK    4  A    between atoms: _27  and  _30
REMARK    5  A    between atoms: _32  and  _33
REMARK    6  A    between atoms: _38  and  _43
REMARK    7  A    between atoms: _43  and  _46
REMARK    8  A    between atoms: _53  and  _55
REMARK                            x       y       z     vdW  Elec       q    Type
REMARK                         _______ _______ _______ _____ _____    ______ ____
ROOT
ATOM     10  C   UNL     1       6.906   1.437  71.926  0.00  0.00    +0.038 A 
ATOM     11  C   UNL     1       5.588   1.112  71.515  0.00  0.00    +0.047 A 
ATOM     12  C   UNL     1       4.933   1.843  70.441  0.00  0.00    +0.035 A 
ATOM     32  C   UNL     1       5.651   2.897  69.805  0.00  0.00    +0.024 A 
ATOM     33  C   UNL     1       6.991   3.241  70.211  0.00  0.00    +0.007 A 
ATOM     34  C   UNL     1       7.641   2.526  71.272  0.00  0.00    -0.029 A 
ATOM     35  C   UNL     1       9.076   2.942  71.670  0.00  0.00    +0.045 C 
ENDROOT
BRANCH  10   9
ATOM      4  C   UNL     1       9.313  -2.370  73.584  0.00  0.00    +0.077 A 
ATOM      5  C   UNL     1       9.398  -2.959  72.278  0.00  0.00    +0.048 A 
ATOM      6  C   UNL     1       8.803  -2.254  71.208  0.00  0.00    +0.116 A 
ATOM      7  N   UNL     1       8.173  -1.050  71.438  0.00  0.00    -0.223 NA
ATOM      8  C   UNL     1       8.108  -0.511  72.710  0.00  0.00    +0.220 A 
ATOM      9  N   UNL     1       7.486   0.702  72.963  0.00  0.00    -0.283 N 
ATOM     36  H   UNL     1       7.452   1.063  73.916  0.00  0.00    +0.155 HD
ATOM     37  N   UNL     1       8.667  -1.166  73.748  0.00  0.00    -0.214 NA
BRANCH   4   3
ATOM      1  C   UNL     1       9.936  -4.746  76.628  0.00  0.00    +0.020 A 
ATOM      2  C   UNL     1       9.335  -4.184  75.440  0.00  0.00    +0.013 A 
ATOM      3  C   UNL     1       9.895  -2.993  74.814  0.00  0.00    +0.019 A 
ATOM     38  C   UNL     1      11.074  -2.391  75.419  0.00  0.00    +0.120 A 
ATOM     39  N   UNL     1      11.630  -2.953  76.563  0.00  0.00    -0.263 NA
ATOM     40  C   UNL     1      11.099  -4.098  77.176  0.00  0.00    +0.111 A 
ENDBRANCH   4   3
ENDBRANCH  10   9
BRANCH  12  13
ATOM     13  N   UNL     1       3.593   1.563  69.986  0.00  0.00    -0.281 N 
ATOM     14  C   UNL     1       3.163   0.502  69.207  0.00  0.00    +0.248 C 
ATOM     30  O   UNL     1       3.905  -0.257  68.602  0.00  0.00    -0.270 OA
ATOM     31  H   UNL     1       2.876   2.229  70.273  0.00  0.00    +0.155 HD
BRANCH  14  15
ATOM     15  C   UNL     1       1.695   0.256  69.069  0.00  0.00    +0.037 A 
ATOM     16  C   UNL     1       0.835   1.186  68.331  0.00  0.00    +0.013 A 
ATOM     17  C   UNL     1      -0.580   0.934  68.227  0.00  0.00    +0.005 A 
ATOM     18  C   UNL     1      -1.145  -0.254  68.862  0.00  0.00    -0.033 A 
ATOM     28  C   UNL     1      -0.269  -1.162  69.584  0.00  0.00    +0.005 A 
ATOM     29  C   UNL     1       1.119  -0.918  69.688  0.00  0.00    +0.013 A 
BRANCH  18  19
ATOM     19  C   UNL     1      -2.647  -0.590  68.821  0.00  0.00    +0.119 C 
BRANCH  19  20
ATOM     20  N   UNL     1      -3.216  -1.324  69.990  0.00  0.00    -0.302 NA
ATOM     21  C   UNL     1      -4.281  -2.341  69.568  0.00  0.00    +0.066 C 
ATOM     22  C   UNL     1      -4.850  -3.115  70.801  0.00  0.00    -0.064 C 
ATOM     23  N   UNL     1      -5.423  -2.116  71.807  0.00  0.00    +0.379 N 
ATOM     24  C   UNL     1      -6.010  -2.845  72.941  0.00  0.00    -0.096 C 
ATOM     25  H   UNL     1      -6.246  -1.560  71.300  0.00  0.00    -0.082 HD
ATOM     26  C   UNL     1      -4.372  -1.100  72.231  0.00  0.00    -0.064 C 
ATOM     27  C   UNL     1      -3.792  -0.357  70.995  0.00  0.00    +0.066 C 
ENDBRANCH  19  20
ENDBRANCH  18  19
ENDBRANCH  14  15
ENDBRANCH  12  13
TORSDOF 6
ENDMDL
MODEL 2
REMARK VINA RESULT:      -8.0      3.680     13.147
REMARK  Name = C:\Users\Docking\Desktop\test protocol\1iep_ligandH.pdb
REMARK  8 active torsions:
REMARK  status: ('A' for Active; 'I' for Inactive)
REMARK    1  A    between atoms: _5  and  _11
REMARK    2  A    between atoms: _19  and  _21
REMARK    3  A    between atoms: _22  and  _66
REMARK    4  A    between atoms: _27  and  _30
REMARK    5  A    between atoms: _32  and  _33
REMARK    6  A    between atoms: _38  and  _43
REMARK    7  A    between atoms: _43  and  _46
REMARK    8  A    between atoms: _53  and  _55
REMARK                            x       y       z     vdW  Elec       q    Type
REMARK                         _______ _______ _______ _____ _____    ______ ____
ROOT
ATOM     10  C   UNL     1       7.210  -0.264  72.938  0.00  0.00    +0.038 A 
ATOM     11  C   UNL     1       7.574  -1.556  73.396  0.00  0.00    +0.047 A 
ATOM     12  C   UNL     1       8.920  -1.834  73.871  0.00  0.00    +0.035 A 
ATOM     32  C   UNL     1       9.870  -0.772  73.868  0.00  0.00    +0.024 A 
ATOM     33  C   UNL     1       9.518   0.547  73.405  0.00  0.00    +0.007 A 
ATOM     34  C   UNL     1       8.192   0.827  72.932  0.00  0.00    -0.029 A 
ATOM     35  C   UNL     1       7.871   2.258  72.441  0.00  0.00    +0.045 C 
ENDROOT
BRANCH  10   9
ATOM      4  C   UNL     1       3.845  -0.307  69.515  0.00  0.00    +0.077 A 
ATOM      5  C   UNL     1       4.776  -0.764  68.523  0.00  0.00    +0.048 A 
ATOM      6  C   UNL     1       6.112  -0.968  68.933  0.00  0.00    +0.116 A 
ATOM      7  N   UNL     1       6.480  -0.731  70.240  0.00  0.00    -0.223 NA
ATOM      8  C   UNL     1       5.557  -0.290  71.171  0.00  0.00    +0.220 A 
ATOM      9  N   UNL     1       5.903  -0.053  72.492  0.00  0.00    -0.283 N 
ATOM     36  H   UNL     1       5.195   0.280  73.147  0.00  0.00    +0.155 HD
ATOM     37  N   UNL     1       4.275  -0.085  70.804  0.00  0.00    -0.214 NA
BRANCH   4   3
ATOM      1  C   UNL     1      -0.048  -0.656  69.365  0.00  0.00    +0.020 A 
ATOM      2  C   UNL     1       1.335  -0.953  69.659  0.00  0.00    +0.013 A 
ATOM      3  C   UNL     1       2.397  -0.048  69.237  0.00  0.00    +0.019 A 
ATOM     38  C   UNL     1       2.023   1.158  68.515  0.00  0.00    +0.120 A 
ATOM     39  N   UNL     1       0.683   1.418  68.245  0.00  0.00    -0.263 NA
ATOM     40  C   UNL     1      -0.348   0.553  68.644  0.00  0.00    +0.111 A 
ENDBRANCH   4   3
ENDBRANCH  10   9
BRANCH  12  13
ATOM     13  N   UNL     1       9.350  -3.128  74.341  0.00  0.00    -0.281 N 
ATOM     14  C   UNL     1      10.088  -4.080  73.657  0.00  0.00    +0.248 C 
ATOM     30  O   UNL     1      10.311  -4.050  72.456  0.00  0.00    -0.270 OA
ATOM     31  H   UNL     1       9.076  -3.371  75.293  0.00  0.00    +0.155 HD
BRANCH  14  15
ATOM     15  C   UNL     1      10.648  -5.240  74.415  0.00  0.00    +0.037 A 
ATOM     16  C   UNL     1      11.301  -6.355  73.724  0.00  0.00    +0.013 A 
ATOM     17  C   UNL     1      11.818  -7.470  74.478  0.00  0.00    +0.005 A 
ATOM     18  C   UNL     1      11.685  -7.474  75.933  0.00  0.00    -0.033 A 
ATOM     28  C   UNL     1      11.037  -6.352  76.593  0.00  0.00    +0.005 A 
ATOM     29  C   UNL     1      10.529  -5.258  75.858  0.00  0.00    +0.013 A 
BRANCH  18  19
ATOM     19  C   UNL     1      12.188  -8.631  76.816  0.00  0.00    +0.119 C 
BRANCH  19  20
ATOM     20  N   UNL     1      13.203  -8.303  77.861  0.00  0.00    -0.302 NA
ATOM     21  C   UNL     1      14.624  -8.658  77.413  0.00  0.00    +0.066 C 
ATOM     22  C   UNL     1      15.676  -8.287  78.508  0.00  0.00    -0.064 C 
ATOM     23  N   UNL     1      15.324  -9.005  79.813  0.00  0.00    +0.379 N 
ATOM     24  C   UNL     1      16.343  -8.704  80.828  0.00  0.00    -0.096 C 
ATOM     25  H   UNL     1      15.357 -10.101  79.614  0.00  0.00    -0.082 HD
ATOM     26  C   UNL     1      13.912  -8.660  80.264  0.00  0.00    -0.064 C 
ATOM     27  C   UNL     1      12.877  -9.005  79.156  0.00  0.00    +0.066 C 
ENDBRANCH  19  20
ENDBRANCH  18  19
ENDBRANCH  14  15
ENDBRANCH  12  13
TORSDOF 6
ENDMDL
MODEL 3
REMARK VINA RESULT:      -8.0      3.764     12.476
REMARK  Name = C:\Users\Docking\Desktop\test protocol\1iep_ligandH.pdb
REMARK  8 active torsions:
REMARK  status: ('A' for Active; 'I' for Inactive)
REMARK    1  A    between atoms: _5  and  _11
REMARK    2  A    between atoms: _19  and  _21
REMARK    3  A    between atoms: _22  and  _66
REMARK    4  A    between atoms: _27  and  _30
REMARK    5  A    between atoms: _32  and  _33
REMARK    6  A    between atoms: _38  and  _43
REMARK    7  A    between atoms: _43  and  _46
REMARK    8  A    between atoms: _53  and  _55
REMARK                            x       y       z     vdW  Elec       q    Type
REMARK                         _______ _______ _______ _____ _____    ______ ____
ROOT
ATOM     10  C   UNL     1       6.767   0.116  72.636  0.00  0.00    +0.038 A 
ATOM     11  C   UNL     1       7.187  -1.106  73.222  0.00  0.00    +0.047 A 
ATOM     12  C   UNL     1       8.559  -1.293  73.669  0.00  0.00    +0.035 A 
ATOM     32  C   UNL     1       9.476  -0.214  73.506  0.00  0.00    +0.024 A 
ATOM     33  C   UNL     1       9.066   1.034  72.912  0.00  0.00    +0.007 A 
ATOM     34  C   UNL     1       7.715   1.224  72.467  0.00  0.00    -0.029 A 
ATOM     35  C   UNL     1       7.333   2.581  71.832  0.00  0.00    +0.045 C 
ENDROOT
BRANCH  10   9
ATOM      4  C   UNL     1       3.339  -0.068  69.282  0.00  0.00    +0.077 A 
ATOM      5  C   UNL     1       4.279  -0.418  68.256  0.00  0.00    +0.048 A 
ATOM      6  C   UNL     1       5.636  -0.533  68.632  0.00  0.00    +0.116 A 
ATOM      7  N   UNL     1       6.014  -0.314  69.939  0.00  0.00    -0.223 NA
ATOM      8  C   UNL     1       5.082   0.024  70.903  0.00  0.00    +0.220 A 
ATOM      9  N   UNL     1       5.438   0.242  72.225  0.00  0.00    -0.283 N 
ATOM     36  H   UNL     1       4.722   0.496  72.905  0.00  0.00    +0.155 HD
ATOM     37  N   UNL     1       3.780   0.142  70.570  0.00  0.00    -0.214 NA
BRANCH   4   3
ATOM      1  C   UNL     1      -0.528  -0.657  69.287  0.00  0.00    +0.020 A 
ATOM      2  C   UNL     1       0.879  -0.855  69.546  0.00  0.00    +0.013 A 
ATOM      3  C   UNL     1       1.869   0.089  69.042  0.00  0.00    +0.019 A 
ATOM     38  C   UNL     1       1.398   1.231  68.274  0.00  0.00    +0.120 A 
ATOM     39  N   UNL     1       0.037   1.395  68.039  0.00  0.00    -0.263 NA
ATOM     40  C   UNL     1      -0.925   0.493  68.518  0.00  0.00    +0.111 A 
ENDBRANCH   4   3
ENDBRANCH  10   9
BRANCH  12  13
ATOM     13  N   UNL     1       9.045  -2.514  74.263  0.00  0.00    -0.281 N 
ATOM     14  C   UNL     1       9.739  -3.543  73.648  0.00  0.00    +0.248 C 
ATOM     30  O   UNL     1       9.861  -3.668  72.438  0.00  0.00    -0.270 OA
ATOM     31  H   UNL     1       8.855  -2.633  75.258  0.00  0.00    +0.155 HD
BRANCH  14  15
ATOM     15  C   UNL     1      10.377  -4.593  74.499  0.00  0.00    +0.037 A 
ATOM     16  C   UNL     1      11.069  -5.738  73.901  0.00  0.00    +0.013 A 
ATOM     17  C   UNL     1      11.662  -6.745  74.745  0.00  0.00    +0.005 A 
ATOM     18  C   UNL     1      11.565  -6.611  76.196  0.00  0.00    -0.033 A 
ATOM     28  C   UNL     1      10.877  -5.463  76.762  0.00  0.00    +0.005 A 
ATOM     29  C   UNL     1      10.294  -4.474  75.939  0.00  0.00    +0.013 A 
BRANCH  18  19
ATOM     19  C   UNL     1      12.149  -7.649  77.173  0.00  0.00    +0.119 C 
BRANCH  19  20
ATOM     20  N   UNL     1      12.137  -9.079  76.740  0.00  0.00    -0.302 NA
ATOM     21  C   UNL     1      10.757  -9.719  76.913  0.00  0.00    +0.066 C 
ATOM     22  C   UNL     1      10.756 -11.207  76.434  0.00  0.00    -0.064 C 
ATOM     23  N   UNL     1      11.818 -11.990  77.209  0.00  0.00    +0.379 N 
ATOM     24  C   UNL     1      11.780 -13.402  76.802  0.00  0.00    -0.096 C 
ATOM     25  H   UNL     1      11.551 -11.942  78.290  0.00  0.00    -0.082 HD
ATOM     26  C   UNL     1      13.192 -11.358  77.044  0.00  0.00    -0.064 C 
ATOM     27  C   UNL     1      13.175  -9.871  77.495  0.00  0.00    +0.066 C 
ENDBRANCH  19  20
ENDBRANCH  18  19
ENDBRANCH  14  15
ENDBRANCH  12  13
TORSDOF 6
ENDMDL
MODEL 4
REMARK VINA RESULT:      -7.9      1.200      1.647
REMARK  Name = C:\Users\Docking\Desktop\test protocol\1iep_ligandH.pdb
REMARK  8 active torsions:
REMARK  status: ('A' for Active; 'I' for Inactive)
REMARK    1  A    between atoms: _5  and  _11
REMARK    2  A    between atoms: _19  and  _21
REMARK    3  A    between atoms: _22  and  _66
REMARK    4  A    between atoms: _27  and  _30
REMARK    5  A    between atoms: _32  and  _33
REMARK    6  A    between atoms: _38  and  _43
REMARK    7  A    between atoms: _43  and  _46
REMARK    8  A    between atoms: _53  and  _55
REMARK                            x       y       z     vdW  Elec       q    Type
REMARK                         _______ _______ _______ _____ _____    ______ ____
ROOT
ATOM     10  C   UNL     1       6.608   1.155  71.861  0.00  0.00    +0.038 A 
ATOM     11  C   UNL     1       5.303   0.780  71.454  0.00  0.00    +0.047 A 
ATOM     12  C   UNL     1       4.626   1.470  70.367  0.00  0.00    +0.035 A 
ATOM     32  C   UNL     1       5.310   2.537  69.715  0.00  0.00    +0.024 A 
ATOM     33  C   UNL     1       6.637   2.933  70.117  0.00  0.00    +0.007 A 
ATOM     34  C   UNL     1       7.308   2.257  71.190  0.00  0.00    -0.029 A 
ATOM     35  C   UNL     1       8.728   2.728  71.583  0.00  0.00    +0.045 C 
ENDROOT
BRANCH  10   9
ATOM      4  C   UNL     1       9.278  -2.451  73.565  0.00  0.00    +0.077 A 
ATOM      5  C   UNL     1       9.466  -3.008  72.257  0.00  0.00    +0.048 A 
ATOM      6  C   UNL     1       8.853  -2.341  71.173  0.00  0.00    +0.116 A 
ATOM      7  N   UNL     1       8.110  -1.201  71.393  0.00  0.00    -0.223 NA
ATOM      8  C   UNL     1       7.947  -0.691  72.668  0.00  0.00    +0.220 A 
ATOM      9  N   UNL     1       7.211   0.458  72.911  0.00  0.00    -0.283 N 
ATOM     36  H   UNL     1       7.108   0.798  73.867  0.00  0.00    +0.155 HD
ATOM     37  N   UNL     1       8.522  -1.311  73.720  0.00  0.00    -0.214 NA
BRANCH   4   3
ATOM      1  C   UNL     1       9.930  -4.759  76.656  0.00  0.00    +0.020 A 
ATOM      2  C   UNL     1       9.325  -4.230  75.455  0.00  0.00    +0.013 A 
ATOM      3  C   UNL     1       9.866  -3.040  74.810  0.00  0.00    +0.019 A 
ATOM     38  C   UNL     1      11.029  -2.404  75.410  0.00  0.00    +0.120 A 
ATOM     39  N   UNL     1      11.589  -2.935  76.568  0.00  0.00    -0.263 NA
ATOM     40  C   UNL     1      11.076  -4.078  77.198  0.00  0.00    +0.111 A 
ENDBRANCH   4   3
ENDBRANCH  10   9
BRANCH  12  13
ATOM     13  N   UNL     1       3.298   1.138  69.915  0.00  0.00    -0.281 N 
ATOM     14  C   UNL     1       2.812  -0.102  69.535  0.00  0.00    +0.248 C 
ATOM     30  O   UNL     1       3.511  -1.082  69.321  0.00  0.00    -0.270 OA
ATOM     31  H   UNL     1       2.634   1.912  69.870  0.00  0.00    +0.155 HD
BRANCH  14  15
ATOM     15  C   UNL     1       1.339  -0.276  69.351  0.00  0.00    +0.037 A 
ATOM     16  C   UNL     1       0.555   0.675  68.560  0.00  0.00    +0.013 A 
ATOM     17  C   UNL     1      -0.868   0.493  68.413  0.00  0.00    +0.005 A 
ATOM     18  C   UNL     1      -1.515  -0.647  69.058  0.00  0.00    -0.033 A 
ATOM     28  C   UNL     1      -0.711  -1.578  69.833  0.00  0.00    +0.005 A 
ATOM     29  C   UNL     1       0.683  -1.403  69.980  0.00  0.00    +0.013 A 
BRANCH  18  19
ATOM     19  C   UNL     1      -3.030  -0.907  68.972  0.00  0.00    +0.119 C 
BRANCH  19  20
ATOM     20  N   UNL     1      -3.917  -0.075  69.838  0.00  0.00    -0.302 NA
ATOM     21  C   UNL     1      -3.525   1.405  69.808  0.00  0.00    +0.066 C 
ATOM     22  C   UNL     1      -4.477   2.265  70.702  0.00  0.00    -0.064 C 
ATOM     23  N   UNL     1      -4.451   1.727  72.133  0.00  0.00    +0.379 N 
ATOM     24  C   UNL     1      -5.301   2.569  72.989  0.00  0.00    -0.096 C 
ATOM     25  H   UNL     1      -3.405   1.812  72.507  0.00  0.00    -0.082 HD
ATOM     26  C   UNL     1      -4.837   0.256  72.173  0.00  0.00    -0.064 C 
ATOM     27  C   UNL     1      -3.904  -0.585  71.258  0.00  0.00    +0.066 C 
ENDBRANCH  19  20
ENDBRANCH  18  19
ENDBRANCH  14  15
ENDBRANCH  12  13
TORSDOF 6
ENDMDL
MODEL 5
REMARK VINA RESULT:      -7.6      1.817      2.260
REMARK  Name = C:\Users\Docking\Desktop\test protocol\1iep_ligandH.pdb
REMARK  8 active torsions:
REMARK  status: ('A' for Active; 'I' for Inactive)
REMARK    1  A    between atoms: _5  and  _11
REMARK    2  A    between atoms: _19  and  _21
REMARK    3  A    between atoms: _22  and  _66
REMARK    4  A    between atoms: _27  and  _30
REMARK    5  A    between atoms: _32  and  _33
REMARK    6  A    between atoms: _38  and  _43
REMARK    7  A    between atoms: _43  and  _46
REMARK    8  A    between atoms: _53  and  _55
REMARK                            x       y       z     vdW  Elec       q    Type
REMARK                         _______ _______ _______ _____ _____    ______ ____
ROOT
ATOM     10  C   UNL     1       6.805  -1.950  69.917  0.00  0.00    +0.038 A 
ATOM     11  C   UNL     1       5.406  -1.823  70.109  0.00  0.00    +0.047 A 
ATOM     12  C   UNL     1       4.578  -1.102  69.156  0.00  0.00    +0.035 A 
ATOM     32  C   UNL     1       5.208  -0.524  68.015  0.00  0.00    +0.024 A 
ATOM     33  C   UNL     1       6.629  -0.643  67.804  0.00  0.00    +0.007 A 
ATOM     34  C   UNL     1       7.452  -1.351  68.743  0.00  0.00    -0.029 A 
ATOM     35  C   UNL     1       8.971  -1.442  68.470  0.00  0.00    +0.045 C 
ENDROOT
BRANCH  10   9
ATOM      4  C   UNL     1       9.566  -2.141  73.838  0.00  0.00    +0.077 A 
ATOM      5  C   UNL     1       9.540  -0.715  73.998  0.00  0.00    +0.048 A 
ATOM      6  C   UNL     1       8.811   0.031  73.045  0.00  0.00    +0.116 A 
ATOM      7  N   UNL     1       8.160  -0.611  72.014  0.00  0.00    -0.223 NA
ATOM      8  C   UNL     1       8.206  -1.987  71.889  0.00  0.00    +0.220 A 
ATOM      9  N   UNL     1       7.552  -2.654  70.864  0.00  0.00    -0.283 N 
ATOM     36  H   UNL     1       7.617  -3.670  70.802  0.00  0.00    +0.155 HD
ATOM     37  N   UNL     1       8.897  -2.722  72.785  0.00  0.00    -0.214 NA
BRANCH   4   3
ATOM      1  C   UNL     1      10.352  -4.886  76.511  0.00  0.00    +0.020 A 
ATOM      2  C   UNL     1       9.605  -4.014  75.635  0.00  0.00    +0.013 A 
ATOM      3  C   UNL     1      10.291  -3.066  74.766  0.00  0.00    +0.019 A 
ATOM     38  C   UNL     1      11.745  -3.026  74.807  0.00  0.00    +0.120 A 
ATOM     39  N   UNL     1      12.438  -3.877  75.662  0.00  0.00    -0.263 NA
ATOM     40  C   UNL     1      11.789  -4.792  76.505  0.00  0.00    +0.111 A 
ENDBRANCH   4   3
ENDBRANCH  10   9
BRANCH  12  13
ATOM     13  N   UNL     1       3.153  -0.933  69.302  0.00  0.00    -0.281 N 
ATOM     14  C   UNL     1       2.404   0.211  69.080  0.00  0.00    +0.248 C 
ATOM     30  O   UNL     1       2.876   1.327  68.926  0.00  0.00    -0.270 OA
ATOM     31  H   UNL     1       2.634  -1.757  69.607  0.00  0.00    +0.155 HD
BRANCH  14  15
ATOM     15  C   UNL     1       0.914   0.101  69.038  0.00  0.00    +0.037 A 
ATOM     16  C   UNL     1       0.096   1.111  68.362  0.00  0.00    +0.013 A 
ATOM     17  C   UNL     1      -1.340   0.990  68.350  0.00  0.00    +0.005 A 
ATOM     18  C   UNL     1      -1.968  -0.149  69.016  0.00  0.00    -0.033 A 
ATOM     28  C   UNL     1      -1.133  -1.139  69.675  0.00  0.00    +0.005 A 
ATOM     29  C   UNL     1       0.275  -1.023  69.689  0.00  0.00    +0.013 A 
BRANCH  18  19
ATOM     19  C   UNL     1      -3.494  -0.347  69.072  0.00  0.00    +0.119 C 
BRANCH  19  20
ATOM     20  N   UNL     1      -4.024  -1.284  70.107  0.00  0.00    -0.302 NA
ATOM     21  C   UNL     1      -5.269  -2.033  69.621  0.00  0.00    +0.066 C 
ATOM     22  C   UNL     1      -5.797  -3.025  70.707  0.00  0.00    -0.064 C 
ATOM     23  N   UNL     1      -6.096  -2.256  71.995  0.00  0.00    +0.379 N 
ATOM     24  C   UNL     1      -6.648  -3.176  73.000  0.00  0.00    -0.096 C 
ATOM     25  H   UNL     1      -6.881  -1.499  71.762  0.00  0.00    -0.082 HD
ATOM     26  C   UNL     1      -4.865  -1.506  72.484  0.00  0.00    -0.064 C 
ATOM     27  C   UNL     1      -4.331  -0.544  71.386  0.00  0.00    +0.066 C 
ENDBRANCH  19  20
ENDBRANCH  18  19
ENDBRANCH  14  15
ENDBRANCH  12  13
TORSDOF 6
ENDMDL
