MODEL 1
REMARK VINA RESULT:      -9.0      0.000      0.000
REMARK  Name = C:\Users\Docking\Desktop\test protocol\1iep_ligandH.pdb
REMARK  8 active torsions:
REMARK  status: ('A' for Active; 'I' for Inactive)
REMARK    1  A    between atoms: _5  and  _11
REMARK    2  A    between atoms: _19  and  _21
REMARK    3  A    between atoms: _22  and  _66
REMARK    4  A    between atoms: _27  and  _30
REMARK    5  A    between atoms: _32  and  _33
REMARK    6  A    between atoms: _38  and  _43
REMARK    7  A    between atoms: _43  and  _46
REMARK    8  A    between atoms: _53  and  _55
REMARK                            x       y       z     vdW  Elec       q    Type
REMARK                         _______ _______ _______ _____ _____    ______ ____
ROOT
ATOM     10  C   UNL     1      10.852  19.306   1.363  0.00  0.00    +0.038 A 
ATOM     11  C   UNL     1       9.764  19.838   2.101  0.00  0.00    +0.047 A 
ATOM     12  C   UNL     1       8.480  19.157   2.145  0.00  0.00    +0.035 A 
ATOM     32  C   UNL     1       8.339  17.933   1.427  0.00  0.00    +0.024 A 
ATOM     33  C   UNL     1       9.434  17.379   0.671  0.00  0.00    +0.007 A 
ATOM     34  C   UNL     1      10.703  18.048   0.623  0.00  0.00    -0.029 A 
ATOM     35  C   UNL     1      11.840  17.410  -0.209  0.00  0.00    +0.045 C 
ENDROOT
BRANCH  10   9
ATOM      4  C   UNL     1      13.797  22.659  -0.406  0.00  0.00    +0.077 A 
ATOM      5  C   UNL     1      12.853  23.037  -1.418  0.00  0.00    +0.048 A 
ATOM      6  C   UNL     1      11.625  22.340  -1.454  0.00  0.00    +0.116 A 
ATOM      7  N   UNL     1      11.369  21.340  -0.540  0.00  0.00    -0.223 NA
ATOM      8  C   UNL     1      12.302  20.999   0.422  0.00  0.00    +0.220 A 
ATOM      9  N   UNL     1      12.063  20.002   1.356  0.00  0.00    -0.283 N 
ATOM     36  H   UNL     1      12.779  19.775   2.045  0.00  0.00    +0.155 HD
ATOM     37  N   UNL     1      13.483  21.649   0.476  0.00  0.00    -0.214 NA
BRANCH   4   3
ATOM      1  C   UNL     1      16.785  24.739   1.024  0.00  0.00    +0.020 A 
ATOM      2  C   UNL     1      15.476  24.139   0.909  0.00  0.00    +0.013 A 
ATOM      3  C   UNL     1      15.137  23.304  -0.237  0.00  0.00    +0.019 A 
ATOM     38  C   UNL     1      16.153  23.094  -1.257  0.00  0.00    +0.120 A 
ATOM     39  N   UNL     1      17.405  23.686  -1.120  0.00  0.00    -0.263 NA
ATOM     40  C   UNL     1      17.742  24.493  -0.023  0.00  0.00    +0.111 A 
ENDBRANCH   4   3
ENDBRANCH  10   9
BRANCH  12  13
ATOM     13  N   UNL     1       7.337  19.653   2.870  0.00  0.00    -0.281 N 
ATOM     14  C   UNL     1       6.680  19.059   3.935  0.00  0.00    +0.248 C 
ATOM     30  O   UNL     1       6.846  17.901   4.290  0.00  0.00    -0.270 OA
ATOM     31  H   UNL     1       6.967  20.552   2.561  0.00  0.00    +0.155 HD
BRANCH  14  15
ATOM     15  C   UNL     1       5.684  19.862   4.709  0.00  0.00    +0.037 A 
ATOM     16  C   UNL     1       4.353  19.332   5.013  0.00  0.00    +0.013 A 
ATOM     17  C   UNL     1       3.406  20.134   5.746  0.00  0.00    +0.005 A 
ATOM     18  C   UNL     1       3.788  21.475   6.182  0.00  0.00    -0.033 A 
ATOM     28  C   UNL     1       5.118  21.973   5.871  0.00  0.00    +0.005 A 
ATOM     29  C   UNL     1       6.048  21.191   5.152  0.00  0.00    +0.013 A 
BRANCH  18  19
ATOM     19  C   UNL     1       2.835  22.408   6.951  0.00  0.00    +0.119 C 
BRANCH  19  20
ATOM     20  N   UNL     1       1.767  21.767   7.775  0.00  0.00    -0.302 NA
ATOM     21  C   UNL     1       0.371  22.004   7.192  0.00  0.00    +0.066 C 
ATOM     22  C   UNL     1      -0.731  21.307   8.054  0.00  0.00    -0.064 C 
ATOM     23  N   UNL     1      -0.651  21.822   9.492  0.00  0.00    +0.379 N 
ATOM     24  C   UNL     1      -1.723  21.212  10.292  0.00  0.00    -0.096 C 
ATOM     25  H   UNL     1      -0.830  22.922   9.468  0.00  0.00    -0.082 HD
ATOM     26  C   UNL     1       0.735  21.593  10.079  0.00  0.00    -0.064 C 
ATOM     27  C   UNL     1       1.826  22.264   9.199  0.00  0.00    +0.066 C 
ENDBRANCH  19  20
ENDBRANCH  18  19
ENDBRANCH  14  15
ENDBRANCH  12  13
TORSDOF 6
ENDMDL
MODEL 2
REMARK VINA RESULT:      -8.6      4.905      7.904
REMARK  Name = C:\Users\Docking\Desktop\test protocol\1iep_ligandH.pdb
REMARK  8 active torsions:
REMARK  status: ('A' for Active; 'I' for Inactive)
REMARK    1  A    between atoms: _5  and  _11
REMARK    2  A    between atoms: _19  and  _21
REMARK    3  A    between atoms: _22  and  _66
REMARK    4  A    between atoms: _27  and  _30
REMARK    5  A    between atoms: _32  and  _33
REMARK    6  A    between atoms: _38  and  _43
REMARK    7  A    between atoms: _43  and  _46
REMARK    8  A    between atoms: _53  and  _55
REMARK                            x       y       z     vdW  Elec       q    Type
REMARK                         _______ _______ _______ _____ _____    ______ ____
ROOT
ATOM     10  C   UNL     1      12.306  16.053  -0.487  0.00  0.00    +0.038 A 
ATOM     11  C   UNL     1      11.276  16.470   0.395  0.00  0.00    +0.047 A 
ATOM     12  C   UNL     1      10.360  17.539   0.029  0.00  0.00    +0.035 A 
ATOM     32  C   UNL     1      10.520  18.160  -1.245  0.00  0.00    +0.024 A 
ATOM     33  C   UNL     1      11.562  17.748  -2.152  0.00  0.00    +0.007 A 
ATOM     34  C   UNL     1      12.470  16.696  -1.796  0.00  0.00    -0.029 A 
ATOM     35  C   UNL     1      13.572  16.300  -2.806  0.00  0.00    +0.045 C 
ENDROOT
BRANCH  10   9
ATOM      4  C   UNL     1      13.599  11.432  -0.377  0.00  0.00    +0.077 A 
ATOM      5  C   UNL     1      12.469  11.035  -1.167  0.00  0.00    +0.048 A 
ATOM      6  C   UNL     1      11.575  12.050  -1.575  0.00  0.00    +0.116 A 
ATOM      7  N   UNL     1      11.804  13.361  -1.215  0.00  0.00    -0.223 NA
ATOM      8  C   UNL     1      12.903  13.709  -0.451  0.00  0.00    +0.220 A 
ATOM      9  N   UNL     1      13.157  15.021  -0.084  0.00  0.00    -0.283 N 
ATOM     36  H   UNL     1      13.975  15.236   0.486  0.00  0.00    +0.155 HD
ATOM     37  N   UNL     1      13.771  12.758  -0.048  0.00  0.00    -0.214 NA
BRANCH   4   3
ATOM      1  C   UNL     1      15.345   8.402   1.375  0.00  0.00    +0.020 A 
ATOM      2  C   UNL     1      14.307   9.293   0.913  0.00  0.00    +0.013 A 
ATOM      3  C   UNL     1      14.635  10.476   0.127  0.00  0.00    +0.019 A 
ATOM     38  C   UNL     1      16.036  10.729  -0.177  0.00  0.00    +0.120 A 
ATOM     39  N   UNL     1      17.014   9.854   0.283  0.00  0.00    -0.263 NA
ATOM     40  C   UNL     1      16.710   8.713   1.042  0.00  0.00    +0.111 A 
ENDBRANCH   4   3
ENDBRANCH  10   9
BRANCH  12  13
ATOM     13  N   UNL     1       9.301  18.011   0.886  0.00  0.00    -0.281 N 
ATOM     14  C   UNL     1       7.935  17.856   0.715  0.00  0.00    +0.248 C 
ATOM     30  O   UNL     1       7.406  17.470  -0.317  0.00  0.00    -0.270 OA
ATOM     31  H   UNL     1       9.593  18.522   1.719  0.00  0.00    +0.155 HD
BRANCH  14  15
ATOM     15  C   UNL     1       7.023  18.193   1.851  0.00  0.00    +0.037 A 
ATOM     16  C   UNL     1       7.474  18.099   3.241  0.00  0.00    +0.013 A 
ATOM     17  C   UNL     1       6.569  18.413   4.319  0.00  0.00    +0.005 A 
ATOM     18  C   UNL     1       5.202  18.825   4.008  0.00  0.00    -0.033 A 
ATOM     28  C   UNL     1       4.782  18.914   2.620  0.00  0.00    +0.005 A 
ATOM     29  C   UNL     1       5.666  18.606   1.561  0.00  0.00    +0.013 A 
BRANCH  18  19
ATOM     19  C   UNL     1       4.162  19.158   5.094  0.00  0.00    +0.119 C 
BRANCH  19  20
ATOM     20  N   UNL     1       4.352  20.428   5.856  0.00  0.00    -0.302 NA
ATOM     21  C   UNL     1       3.025  21.149   6.111  0.00  0.00    +0.066 C 
ATOM     22  C   UNL     1       3.239  22.464   6.928  0.00  0.00    -0.064 C 
ATOM     23  N   UNL     1       4.213  23.374   6.177  0.00  0.00    +0.379 N 
ATOM     24  C   UNL     1       4.372  24.636   6.914  0.00  0.00    -0.096 C 
ATOM     25  H   UNL     1       3.758  23.614   5.189  0.00  0.00    -0.082 HD
ATOM     26  C   UNL     1       5.535  22.665   5.917  0.00  0.00    -0.064 C 
ATOM     27  C   UNL     1       5.307  21.344   5.131  0.00  0.00    +0.066 C 
ENDBRANCH  19  20
ENDBRANCH  18  19
ENDBRANCH  14  15
ENDBRANCH  12  13
TORSDOF 6
ENDMDL
MODEL 3
REMARK VINA RESULT:      -8.6      1.437      2.189
REMARK  Name = C:\Users\Docking\Desktop\test protocol\1iep_ligandH.pdb
REMARK  8 active torsions:
REMARK  status: ('A' for Active; 'I' for Inactive)
REMARK    1  A    between atoms: _5  and  _11
REMARK    2  A    between atoms: _19  and  _21
REMARK    3  A    between atoms: _22  and  _66
REMARK    4  A    between atoms: _27  and  _30
REMARK    5  A    between atoms: _32  and  _33
REMARK    6  A    between atoms: _38  and  _43
REMARK    7  A    between atoms: _43  and  _46
REMARK    8  A    between atoms: _53  and  _55
REMARK                            x       y       z     vdW  Elec       q    Type
REMARK                         _______ _______ _______ _____ _____    ______ ____
ROOT
ATOM     10  C   UNL     1      10.896  19.297   1.356  0.00  0.00    +0.038 A 
ATOM     11  C   UNL     1       9.796  19.809   2.091  0.00  0.00    +0.047 A 
ATOM     12  C   UNL     1       8.520  19.112   2.118  0.00  0.00    +0.035 A 
ATOM     32  C   UNL     1       8.400  17.894   1.388  0.00  0.00    +0.024 A 
ATOM     33  C   UNL     1       9.507  17.359   0.635  0.00  0.00    +0.007 A 
ATOM     34  C   UNL     1      10.768  18.044   0.602  0.00  0.00    -0.029 A 
ATOM     35  C   UNL     1      11.919  17.428  -0.227  0.00  0.00    +0.045 C 
ENDROOT
BRANCH  10   9
ATOM      4  C   UNL     1      13.839  22.657  -0.400  0.00  0.00    +0.077 A 
ATOM      5  C   UNL     1      12.914  23.009  -1.438  0.00  0.00    +0.048 A 
ATOM      6  C   UNL     1      11.695  22.297  -1.490  0.00  0.00    +0.116 A 
ATOM      7  N   UNL     1      11.432  21.308  -0.567  0.00  0.00    -0.223 NA
ATOM      8  C   UNL     1      12.346  20.992   0.421  0.00  0.00    +0.220 A 
ATOM      9  N   UNL     1      12.099  20.007   1.364  0.00  0.00    -0.283 N 
ATOM     36  H   UNL     1      12.802  19.799   2.072  0.00  0.00    +0.155 HD
ATOM     37  N   UNL     1      13.518  21.657   0.491  0.00  0.00    -0.214 NA
BRANCH   4   3
ATOM      1  C   UNL     1      17.610  23.633  -0.763  0.00  0.00    +0.020 A 
ATOM      2  C   UNL     1      16.351  22.959  -0.983  0.00  0.00    +0.013 A 
ATOM      3  C   UNL     1      15.168  23.322  -0.212  0.00  0.00    +0.019 A 
ATOM     38  C   UNL     1      15.294  24.378   0.781  0.00  0.00    +0.120 A 
ATOM     39  N   UNL     1      16.520  25.008   0.972  0.00  0.00    -0.263 NA
ATOM     40  C   UNL     1      17.665  24.666   0.237  0.00  0.00    +0.111 A 
ENDBRANCH   4   3
ENDBRANCH  10   9
BRANCH  12  13
ATOM     13  N   UNL     1       7.366  19.588   2.840  0.00  0.00    -0.281 N 
ATOM     14  C   UNL     1       6.747  19.007   3.935  0.00  0.00    +0.248 C 
ATOM     30  O   UNL     1       6.965  17.871   4.330  0.00  0.00    -0.270 OA
ATOM     31  H   UNL     1       6.955  20.458   2.502  0.00  0.00    +0.155 HD
BRANCH  14  15
ATOM     15  C   UNL     1       5.728  19.796   4.691  0.00  0.00    +0.037 A 
ATOM     16  C   UNL     1       4.409  19.238   4.999  0.00  0.00    +0.013 A 
ATOM     17  C   UNL     1       3.438  20.027   5.715  0.00  0.00    +0.005 A 
ATOM     18  C   UNL     1       3.785  21.384   6.130  0.00  0.00    -0.033 A 
ATOM     28  C   UNL     1       5.103  21.912   5.816  0.00  0.00    +0.005 A 
ATOM     29  C   UNL     1       6.056  21.141   5.114  0.00  0.00    +0.013 A 
BRANCH  18  19
ATOM     19  C   UNL     1       2.804  22.306   6.879  0.00  0.00    +0.119 C 
BRANCH  19  20
ATOM     20  N   UNL     1       1.557  22.706   6.162  0.00  0.00    -0.302 NA
ATOM     21  C   UNL     1       0.456  21.650   6.291  0.00  0.00    +0.066 C 
ATOM     22  C   UNL     1      -0.849  22.095   5.554  0.00  0.00    -0.064 C 
ATOM     23  N   UNL     1      -0.531  22.368   4.083  0.00  0.00    +0.379 N 
ATOM     24  C   UNL     1      -1.767  22.731   3.373  0.00  0.00    -0.096 C 
ATOM     25  H   UNL     1      -0.151  21.420   3.637  0.00  0.00    -0.082 HD
ATOM     26  C   UNL     1       0.565  23.415   3.945  0.00  0.00    -0.064 C 
ATOM     27  C   UNL     1       1.847  22.977   4.706  0.00  0.00    +0.066 C 
ENDBRANCH  19  20
ENDBRANCH  18  19
ENDBRANCH  14  15
ENDBRANCH  12  13
TORSDOF 6
ENDMDL
MODEL 4
REMARK VINA RESULT:      -8.6      3.460      6.381
REMARK  Name = C:\Users\Docking\Desktop\test protocol\1iep_ligandH.pdb
REMARK  8 active torsions:
REMARK  status: ('A' for Active; 'I' for Inactive)
REMARK    1  A    between atoms: _5  and  _11
REMARK    2  A    between atoms: _19  and  _21
REMARK    3  A    between atoms: _22  and  _66
REMARK    4  A    between atoms: _27  and  _30
REMARK    5  A    between atoms: _32  and  _33
REMARK    6  A    between atoms: _38  and  _43
REMARK    7  A    between atoms: _43  and  _46
REMARK    8  A    between atoms: _53  and  _55
REMARK                            x       y       z     vdW  Elec       q    Type
REMARK                         _______ _______ _______ _____ _____    ______ ____
ROOT
ATOM     10  C   UNL     1      10.650  18.327   0.951  0.00  0.00    +0.038 A 
ATOM     11  C   UNL     1       9.462  18.470   1.712  0.00  0.00    +0.047 A 
ATOM     12  C   UNL     1       8.734  19.729   1.743  0.00  0.00    +0.035 A 
ATOM     32  C   UNL     1       9.244  20.823   0.983  0.00  0.00    +0.024 A 
ATOM     33  C   UNL     1      10.451  20.696   0.205  0.00  0.00    +0.007 A 
ATOM     34  C   UNL     1      11.174  19.457   0.173  0.00  0.00    -0.029 A 
ATOM     35  C   UNL     1      12.466  19.379  -0.674  0.00  0.00    +0.045 C 
ENDROOT
BRANCH  10   9
ATOM      4  C   UNL     1      11.271  13.852  -0.667  0.00  0.00    +0.077 A 
ATOM      5  C   UNL     1      10.174  13.968  -1.585  0.00  0.00    +0.048 A 
ATOM      6  C   UNL     1       9.472  15.194  -1.604  0.00  0.00    +0.116 A 
ATOM      7  N   UNL     1       9.847  16.220  -0.764  0.00  0.00    -0.223 NA
ATOM      8  C   UNL     1      10.908  16.074   0.110  0.00  0.00    +0.220 A 
ATOM      9  N   UNL     1      11.308  17.096   0.958  0.00  0.00    -0.283 N 
ATOM     36  H   UNL     1      12.091  16.946   1.593  0.00  0.00    +0.155 HD
ATOM     37  N   UNL     1      11.595  14.913   0.148  0.00  0.00    -0.214 NA
BRANCH   4   3
ATOM      1  C   UNL     1      12.420  10.117  -0.476  0.00  0.00    +0.020 A 
ATOM      2  C   UNL     1      11.564  11.273  -0.613  0.00  0.00    +0.013 A 
ATOM      3  C   UNL     1      12.113  12.621  -0.532  0.00  0.00    +0.019 A 
ATOM     38  C   UNL     1      13.543  12.766  -0.310  0.00  0.00    +0.120 A 
ATOM     39  N   UNL     1      14.343  11.635  -0.180  0.00  0.00    -0.263 NA
ATOM     40  C   UNL     1      13.826  10.333  -0.255  0.00  0.00    +0.111 A 
ENDBRANCH   4   3
ENDBRANCH  10   9
BRANCH  12  13
ATOM     13  N   UNL     1       7.527  19.936   2.504  0.00  0.00    -0.281 N 
ATOM     14  C   UNL     1       7.013  19.143   3.517  0.00  0.00    +0.248 C 
ATOM     30  O   UNL     1       7.405  18.016   3.779  0.00  0.00    -0.270 OA
ATOM     31  H   UNL     1       6.985  20.767   2.266  0.00  0.00    +0.155 HD
BRANCH  14  15
ATOM     15  C   UNL     1       5.892  19.674   4.350  0.00  0.00    +0.037 A 
ATOM     16  C   UNL     1       4.695  18.871   4.615  0.00  0.00    +0.013 A 
ATOM     17  C   UNL     1       3.621  19.413   5.408  0.00  0.00    +0.005 A 
ATOM     18  C   UNL     1       3.739  20.768   5.944  0.00  0.00    -0.033 A 
ATOM     28  C   UNL     1       4.939  21.540   5.670  0.00  0.00    +0.005 A 
ATOM     29  C   UNL     1       5.994  21.012   4.892  0.00  0.00    +0.013 A 
BRANCH  18  19
ATOM     19  C   UNL     1       2.633  21.435   6.782  0.00  0.00    +0.119 C 
BRANCH  19  20
ATOM     20  N   UNL     1       1.282  21.557   6.159  0.00  0.00    -0.302 NA
ATOM     21  C   UNL     1       1.263  22.585   5.025  0.00  0.00    +0.066 C 
ATOM     22  C   UNL     1      -0.153  22.684   4.368  0.00  0.00    -0.064 C 
ATOM     23  N   UNL     1      -1.185  23.040   5.440  0.00  0.00    +0.379 N 
ATOM     24  C   UNL     1      -2.507  23.190   4.816  0.00  0.00    -0.096 C 
ATOM     25  H   UNL     1      -0.899  24.029   5.869  0.00  0.00    -0.082 HD
ATOM     26  C   UNL     1      -1.171  22.024   6.573  0.00  0.00    -0.064 C 
ATOM     27  C   UNL     1       0.247  21.913   7.198  0.00  0.00    +0.066 C 
ENDBRANCH  19  20
ENDBRANCH  18  19
ENDBRANCH  14  15
ENDBRANCH  12  13
TORSDOF 6
ENDMDL
MODEL 5
REMARK VINA RESULT:      -8.4      1.611      2.363
REMARK  Name = C:\Users\Docking\Desktop\test protocol\1iep_ligandH.pdb
REMARK  8 active torsions:
REMARK  status: ('A' for Active; 'I' for Inactive)
REMARK    1  A    between atoms: _5  and  _11
REMARK    2  A    between atoms: _19  and  _21
REMARK    3  A    between atoms: _22  and  _66
REMARK    4  A    between atoms: _27  and  _30
REMARK    5  A    between atoms: _32  and  _33
REMARK    6  A    between atoms: _38  and  _43
REMARK    7  A    between atoms: _43  and  _46
REMARK    8  A    between atoms: _53  and  _55
REMARK                            x       y       z     vdW  Elec       q    Type
REMARK                         _______ _______ _______ _____ _____    ______ ____
ROOT
ATOM     10  C   UNL     1      10.876  19.250   1.353  0.00  0.00    +0.038 A 
ATOM     11  C   UNL     1       9.793  19.793   2.092  0.00  0.00    +0.047 A 
ATOM     12  C   UNL     1       8.502  19.123   2.137  0.00  0.00    +0.035 A 
ATOM     32  C   UNL     1       8.350  17.901   1.420  0.00  0.00    +0.024 A 
ATOM     33  C   UNL     1       9.440  17.336   0.663  0.00  0.00    +0.007 A 
ATOM     34  C   UNL     1      10.714  17.993   0.613  0.00  0.00    -0.029 A 
ATOM     35  C   UNL     1      11.845  17.345  -0.219  0.00  0.00    +0.045 C 
ENDROOT
BRANCH  10   9
ATOM      4  C   UNL     1      13.802  22.661  -0.332  0.00  0.00    +0.077 A 
ATOM      5  C   UNL     1      12.833  23.099  -1.296  0.00  0.00    +0.048 A 
ATOM      6  C   UNL     1      11.597  22.415  -1.330  0.00  0.00    +0.116 A 
ATOM      7  N   UNL     1      11.358  21.373  -0.460  0.00  0.00    -0.223 NA
ATOM      8  C   UNL     1      12.315  20.975   0.456  0.00  0.00    +0.220 A 
ATOM      9  N   UNL     1      12.093  19.935   1.345  0.00  0.00    -0.283 N 
ATOM     36  H   UNL     1      12.827  19.667   2.001  0.00  0.00    +0.155 HD
ATOM     37  N   UNL     1      13.504  21.611   0.507  0.00  0.00    -0.214 NA
BRANCH   4   3
ATOM      1  C   UNL     1      16.755  24.898   0.923  0.00  0.00    +0.020 A 
ATOM      2  C   UNL     1      15.432  24.328   0.808  0.00  0.00    +0.013 A 
ATOM      3  C   UNL     1      15.153  23.286  -0.171  0.00  0.00    +0.019 A 
ATOM     38  C   UNL     1      16.243  22.838  -1.025  0.00  0.00    +0.120 A 
ATOM     39  N   UNL     1      17.506  23.406  -0.893  0.00  0.00    -0.263 NA
ATOM     40  C   UNL     1      17.786  24.411   0.045  0.00  0.00    +0.111 A 
ENDBRANCH   4   3
ENDBRANCH  10   9
BRANCH  12  13
ATOM     13  N   UNL     1       7.365  19.630   2.863  0.00  0.00    -0.281 N 
ATOM     14  C   UNL     1       6.723  19.058   3.949  0.00  0.00    +0.248 C 
ATOM     30  O   UNL     1       6.900  17.910   4.330  0.00  0.00    -0.270 OA
ATOM     31  H   UNL     1       6.986  20.519   2.536  0.00  0.00    +0.155 HD
BRANCH  14  15
ATOM     15  C   UNL     1       5.732  19.873   4.714  0.00  0.00    +0.037 A 
ATOM     16  C   UNL     1       4.383  19.371   4.986  0.00  0.00    +0.013 A 
ATOM     17  C   UNL     1       3.440  20.185   5.712  0.00  0.00    +0.005 A 
ATOM     18  C   UNL     1       3.845  21.511   6.172  0.00  0.00    -0.033 A 
ATOM     28  C   UNL     1       5.191  21.983   5.893  0.00  0.00    +0.005 A 
ATOM     29  C   UNL     1       6.117  21.188   5.181  0.00  0.00    +0.013 A 
BRANCH  18  19
ATOM     19  C   UNL     1       2.898  22.456   6.935  0.00  0.00    +0.119 C 
BRANCH  19  20
ATOM     20  N   UNL     1       3.522  23.566   7.716  0.00  0.00    -0.302 NA
ATOM     21  C   UNL     1       3.087  23.551   9.184  0.00  0.00    +0.066 C 
ATOM     22  C   UNL     1       3.767  24.705   9.991  0.00  0.00    -0.064 C 
ATOM     23  N   UNL     1       3.430  26.047   9.339  0.00  0.00    +0.379 N 
ATOM     24  C   UNL     1       4.020  27.138  10.129  0.00  0.00    -0.096 C 
ATOM     25  H   UNL     1       2.322  26.168   9.369  0.00  0.00    -0.082 HD
ATOM     26  C   UNL     1       3.857  26.069   7.878  0.00  0.00    -0.064 C 
ATOM     27  C   UNL     1       3.199  24.901   7.092  0.00  0.00    +0.066 C 
ENDBRANCH  19  20
ENDBRANCH  18  19
ENDBRANCH  14  15
ENDBRANCH  12  13
TORSDOF 6
ENDMDL
