MODEL 1
REMARK VINA RESULT:      -7.5      0.000      0.000
REMARK  Name = C:\Users\Docking\Desktop\test protocol\1iep_ligandH.pdb
REMARK  8 active torsions:
REMARK  status: ('A' for Active; 'I' for Inactive)
REMARK    1  A    between atoms: _5  and  _11
REMARK    2  A    between atoms: _19  and  _21
REMARK    3  A    between atoms: _22  and  _66
REMARK    4  A    between atoms: _27  and  _30
REMARK    5  A    between atoms: _32  and  _33
REMARK    6  A    between atoms: _38  and  _43
REMARK    7  A    between atoms: _43  and  _46
REMARK    8  A    between atoms: _53  and  _55
REMARK                            x       y       z     vdW  Elec       q    Type
REMARK                         _______ _______ _______ _____ _____    ______ ____
ROOT
ATOM     10  C   UNL     1      27.192  27.242  -0.533  0.00  0.00    +0.038 A 
ATOM     11  C   UNL     1      27.441  27.331   0.861  0.00  0.00    +0.047 A 
ATOM     12  C   UNL     1      27.858  26.167   1.627  0.00  0.00    +0.035 A 
ATOM     32  C   UNL     1      28.014  24.927   0.940  0.00  0.00    +0.024 A 
ATOM     33  C   UNL     1      27.764  24.818  -0.475  0.00  0.00    +0.007 A 
ATOM     34  C   UNL     1      27.350  25.963  -1.236  0.00  0.00    -0.029 A 
ATOM     35  C   UNL     1      27.090  25.787  -2.750  0.00  0.00    +0.045 C 
ENDROOT
BRANCH  10   9
ATOM      4  C   UNL     1      24.024  30.720  -1.483  0.00  0.00    +0.077 A 
ATOM      5  C   UNL     1      23.070  30.187  -0.553  0.00  0.00    +0.048 A 
ATOM      6  C   UNL     1      23.431  29.012   0.144  0.00  0.00    +0.116 A 
ATOM      7  N   UNL     1      24.657  28.423  -0.079  0.00  0.00    -0.223 NA
ATOM      8  C   UNL     1      25.553  28.962  -0.984  0.00  0.00    +0.220 A 
ATOM      9  N   UNL     1      26.794  28.391  -1.219  0.00  0.00    -0.283 N 
ATOM     36  H   UNL     1      27.423  28.816  -1.899  0.00  0.00    +0.155 HD
ATOM     37  N   UNL     1      25.231  30.083  -1.664  0.00  0.00    -0.214 NA
BRANCH   4   3
ATOM      1  C   UNL     1      23.957  34.446  -2.672  0.00  0.00    +0.020 A 
ATOM      2  C   UNL     1      24.206  33.283  -1.851  0.00  0.00    +0.013 A 
ATOM      3  C   UNL     1      23.791  31.958  -2.293  0.00  0.00    +0.019 A 
ATOM     38  C   UNL     1      23.122  31.842  -3.580  0.00  0.00    +0.120 A 
ATOM     39  N   UNL     1      22.894  32.980  -4.348  0.00  0.00    -0.263 NA
ATOM     40  C   UNL     1      23.287  34.261  -3.933  0.00  0.00    +0.111 A 
ENDBRANCH   4   3
ENDBRANCH  10   9
BRANCH  12  13
ATOM     13  N   UNL     1      28.117  26.195   3.045  0.00  0.00    -0.281 N 
ATOM     14  C   UNL     1      27.522  25.430   4.035  0.00  0.00    +0.248 C 
ATOM     30  O   UNL     1      26.518  24.752   3.874  0.00  0.00    -0.270 OA
ATOM     31  H   UNL     1      28.825  26.859   3.357  0.00  0.00    +0.155 HD
BRANCH  14  15
ATOM     15  C   UNL     1      28.120  25.429   5.404  0.00  0.00    +0.037 A 
ATOM     16  C   UNL     1      29.117  24.430   5.798  0.00  0.00    +0.013 A 
ATOM     17  C   UNL     1      29.665  24.442   7.131  0.00  0.00    +0.005 A 
ATOM     18  C   UNL     1      29.218  25.458   8.080  0.00  0.00    -0.033 A 
ATOM     28  C   UNL     1      28.231  26.440   7.662  0.00  0.00    +0.005 A 
ATOM     29  C   UNL     1      27.691  26.431   6.357  0.00  0.00    +0.013 A 
BRANCH  18  19
ATOM     19  C   UNL     1      29.733  25.533   9.530  0.00  0.00    +0.119 C 
BRANCH  19  20
ATOM     20  N   UNL     1      29.322  26.718  10.341  0.00  0.00    -0.302 NA
ATOM     21  C   UNL     1      30.160  27.957  10.014  0.00  0.00    +0.066 C 
ATOM     22  C   UNL     1      29.702  29.192  10.856  0.00  0.00    -0.064 C 
ATOM     23  N   UNL     1      29.794  28.854  12.345  0.00  0.00    +0.379 N 
ATOM     24  C   UNL     1      29.420  30.033  13.139  0.00  0.00    -0.096 C 
ATOM     25  H   UNL     1      30.860  28.617  12.572  0.00  0.00    -0.082 HD
ATOM     26  C   UNL     1      28.966  27.621  12.678  0.00  0.00    -0.064 C 
ATOM     27  C   UNL     1      29.410  26.407  11.815  0.00  0.00    +0.066 C 
ENDBRANCH  19  20
ENDBRANCH  18  19
ENDBRANCH  14  15
ENDBRANCH  12  13
TORSDOF 6
ENDMDL
MODEL 2
REMARK VINA RESULT:      -7.4      1.846      2.723
REMARK  Name = C:\Users\Docking\Desktop\test protocol\1iep_ligandH.pdb
REMARK  8 active torsions:
REMARK  status: ('A' for Active; 'I' for Inactive)
REMARK    1  A    between atoms: _5  and  _11
REMARK    2  A    between atoms: _19  and  _21
REMARK    3  A    between atoms: _22  and  _66
REMARK    4  A    between atoms: _27  and  _30
REMARK    5  A    between atoms: _32  and  _33
REMARK    6  A    between atoms: _38  and  _43
REMARK    7  A    between atoms: _43  and  _46
REMARK    8  A    between atoms: _53  and  _55
REMARK                            x       y       z     vdW  Elec       q    Type
REMARK                         _______ _______ _______ _____ _____    ______ ____
ROOT
ATOM     10  C   UNL     1      27.162  27.165  -0.426  0.00  0.00    +0.038 A 
ATOM     11  C   UNL     1      27.483  27.247   0.953  0.00  0.00    +0.047 A 
ATOM     12  C   UNL     1      27.878  26.066   1.705  0.00  0.00    +0.035 A 
ATOM     32  C   UNL     1      27.937  24.818   1.020  0.00  0.00    +0.024 A 
ATOM     33  C   UNL     1      27.613  24.716  -0.381  0.00  0.00    +0.007 A 
ATOM     34  C   UNL     1      27.220  25.877  -1.127  0.00  0.00    -0.029 A 
ATOM     35  C   UNL     1      26.877  25.708  -2.626  0.00  0.00    +0.045 C 
ENDROOT
BRANCH  10   9
ATOM      4  C   UNL     1      24.022  30.654  -1.429  0.00  0.00    +0.077 A 
ATOM      5  C   UNL     1      23.029  30.092  -0.559  0.00  0.00    +0.048 A 
ATOM      6  C   UNL     1      23.364  28.901   0.123  0.00  0.00    +0.116 A 
ATOM      7  N   UNL     1      24.602  28.323  -0.059  0.00  0.00    -0.223 NA
ATOM      8  C   UNL     1      25.535  28.890  -0.907  0.00  0.00    +0.220 A 
ATOM      9  N   UNL     1      26.789  28.331  -1.099  0.00  0.00    -0.283 N 
ATOM     36  H   UNL     1      27.447  28.775  -1.739  0.00  0.00    +0.155 HD
ATOM     37  N   UNL     1      25.239  30.027  -1.571  0.00  0.00    -0.214 NA
BRANCH   4   3
ATOM      1  C   UNL     1      24.059  34.399  -2.558  0.00  0.00    +0.020 A 
ATOM      2  C   UNL     1      24.280  33.215  -1.759  0.00  0.00    +0.013 A 
ATOM      3  C   UNL     1      23.819  31.911  -2.216  0.00  0.00    +0.019 A 
ATOM     38  C   UNL     1      23.133  31.837  -3.498  0.00  0.00    +0.120 A 
ATOM     39  N   UNL     1      22.933  32.994  -4.245  0.00  0.00    -0.263 NA
ATOM     40  C   UNL     1      23.371  34.255  -3.813  0.00  0.00    +0.111 A 
ENDBRANCH   4   3
ENDBRANCH  10   9
BRANCH  12  13
ATOM     13  N   UNL     1      28.208  26.087   3.109  0.00  0.00    -0.281 N 
ATOM     14  C   UNL     1      27.510  25.508   4.156  0.00  0.00    +0.248 C 
ATOM     30  O   UNL     1      26.375  25.064   4.069  0.00  0.00    -0.270 OA
ATOM     31  H   UNL     1      29.060  26.589   3.360  0.00  0.00    +0.155 HD
BRANCH  14  15
ATOM     15  C   UNL     1      28.162  25.425   5.499  0.00  0.00    +0.037 A 
ATOM     16  C   UNL     1      29.097  24.345   5.823  0.00  0.00    +0.013 A 
ATOM     17  C   UNL     1      29.699  24.278   7.132  0.00  0.00    +0.005 A 
ATOM     18  C   UNL     1      29.367  25.296   8.125  0.00  0.00    -0.033 A 
ATOM     28  C   UNL     1      28.439  26.359   7.775  0.00  0.00    +0.005 A 
ATOM     29  C   UNL     1      27.847  26.428   6.494  0.00  0.00    +0.013 A 
BRANCH  18  19
ATOM     19  C   UNL     1      29.945  25.291   9.553  0.00  0.00    +0.119 C 
BRANCH  19  20
ATOM     20  N   UNL     1      30.924  24.216   9.891  0.00  0.00    -0.302 NA
ATOM     21  C   UNL     1      30.261  23.041  10.614  0.00  0.00    +0.066 C 
ATOM     22  C   UNL     1      31.296  21.915  10.939  0.00  0.00    -0.064 C 
ATOM     23  N   UNL     1      32.431  22.498  11.782  0.00  0.00    +0.379 N 
ATOM     24  C   UNL     1      33.376  21.430  12.138  0.00  0.00    -0.096 C 
ATOM     25  H   UNL     1      31.986  22.886  12.728  0.00  0.00    -0.082 HD
ATOM     26  C   UNL     1      33.095  23.669  11.071  0.00  0.00    -0.064 C 
ATOM     27  C   UNL     1      32.052  24.769  10.726  0.00  0.00    +0.066 C 
ENDBRANCH  19  20
ENDBRANCH  18  19
ENDBRANCH  14  15
ENDBRANCH  12  13
TORSDOF 6
ENDMDL
MODEL 3
REMARK VINA RESULT:      -7.3      2.656     12.052
REMARK  Name = C:\Users\Docking\Desktop\test protocol\1iep_ligandH.pdb
REMARK  8 active torsions:
REMARK  status: ('A' for Active; 'I' for Inactive)
REMARK    1  A    between atoms: _5  and  _11
REMARK    2  A    between atoms: _19  and  _21
REMARK    3  A    between atoms: _22  and  _66
REMARK    4  A    between atoms: _27  and  _30
REMARK    5  A    between atoms: _32  and  _33
REMARK    6  A    between atoms: _38  and  _43
REMARK    7  A    between atoms: _43  and  _46
REMARK    8  A    between atoms: _53  and  _55
REMARK                            x       y       z     vdW  Elec       q    Type
REMARK                         _______ _______ _______ _____ _____    ______ ____
ROOT
ATOM     10  C   UNL     1      27.372  27.137  -0.121  0.00  0.00    +0.038 A 
ATOM     11  C   UNL     1      26.665  28.287  -0.553  0.00  0.00    +0.047 A 
ATOM     12  C   UNL     1      26.110  28.370  -1.895  0.00  0.00    +0.035 A 
ATOM     32  C   UNL     1      26.293  27.261  -2.771  0.00  0.00    +0.024 A 
ATOM     33  C   UNL     1      27.010  26.084  -2.349  0.00  0.00    +0.007 A 
ATOM     34  C   UNL     1      27.562  25.997  -1.027  0.00  0.00    -0.029 A 
ATOM     35  C   UNL     1      28.327  24.713  -0.631  0.00  0.00    +0.045 C 
ENDROOT
BRANCH  10   9
ATOM      4  C   UNL     1      27.036  26.036   4.539  0.00  0.00    +0.077 A 
ATOM      5  C   UNL     1      25.719  25.491   4.376  0.00  0.00    +0.048 A 
ATOM      6  C   UNL     1      25.161  25.520   3.078  0.00  0.00    +0.116 A 
ATOM      7  N   UNL     1      25.876  26.055   2.029  0.00  0.00    -0.223 NA
ATOM      8  C   UNL     1      27.143  26.574   2.221  0.00  0.00    +0.220 A 
ATOM      9  N   UNL     1      27.884  27.111   1.179  0.00  0.00    -0.283 N 
ATOM     36  H   UNL     1      28.812  27.490   1.363  0.00  0.00    +0.155 HD
ATOM     37  N   UNL     1      27.697  26.560   3.451  0.00  0.00    -0.214 NA
BRANCH   4   3
ATOM      1  C   UNL     1      29.475  25.205   7.481  0.00  0.00    +0.020 A 
ATOM      2  C   UNL     1      28.805  25.123   6.204  0.00  0.00    +0.013 A 
ATOM      3  C   UNL     1      27.761  26.076   5.848  0.00  0.00    +0.019 A 
ATOM     38  C   UNL     1      27.416  27.108   6.814  0.00  0.00    +0.120 A 
ATOM     39  N   UNL     1      28.077  27.161   8.037  0.00  0.00    -0.263 NA
ATOM     40  C   UNL     1      29.083  26.249   8.392  0.00  0.00    +0.111 A 
ENDBRANCH   4   3
ENDBRANCH  10   9
BRANCH  12  13
ATOM     13  N   UNL     1      25.389  29.516  -2.392  0.00  0.00    -0.281 N 
ATOM     14  C   UNL     1      24.315  30.166  -1.806  0.00  0.00    +0.248 C 
ATOM     30  O   UNL     1      23.672  29.727  -0.865  0.00  0.00    -0.270 OA
ATOM     31  H   UNL     1      25.710  29.894  -3.283  0.00  0.00    +0.155 HD
BRANCH  14  15
ATOM     15  C   UNL     1      23.885  31.488  -2.355  0.00  0.00    +0.037 A 
ATOM     16  C   UNL     1      23.039  31.577  -3.548  0.00  0.00    +0.013 A 
ATOM     17  C   UNL     1      22.653  32.865  -4.067  0.00  0.00    +0.005 A 
ATOM     18  C   UNL     1      23.111  34.076  -3.390  0.00  0.00    -0.033 A 
ATOM     28  C   UNL     1      23.944  33.959  -2.205  0.00  0.00    +0.005 A 
ATOM     29  C   UNL     1      24.326  32.698  -1.695  0.00  0.00    +0.013 A 
BRANCH  18  19
ATOM     19  C   UNL     1      22.764  35.492  -3.886  0.00  0.00    +0.119 C 
BRANCH  19  20
ATOM     20  N   UNL     1      23.489  36.635  -3.253  0.00  0.00    -0.302 NA
ATOM     21  C   UNL     1      22.795  37.119  -1.977  0.00  0.00    +0.066 C 
ATOM     22  C   UNL     1      23.578  38.299  -1.315  0.00  0.00    -0.064 C 
ATOM     23  N   UNL     1      23.719  39.442  -2.322  0.00  0.00    +0.379 N 
ATOM     24  C   UNL     1      24.404  40.575  -1.684  0.00  0.00    -0.096 C 
ATOM     25  H   UNL     1      22.692  39.778  -2.597  0.00  0.00    -0.082 HD
ATOM     26  C   UNL     1      24.406  38.968  -3.595  0.00  0.00    -0.064 C 
ATOM     27  C   UNL     1      23.635  37.776  -4.228  0.00  0.00    +0.066 C 
ENDBRANCH  19  20
ENDBRANCH  18  19
ENDBRANCH  14  15
ENDBRANCH  12  13
TORSDOF 6
ENDMDL
MODEL 4
REMARK VINA RESULT:      -7.2     15.492     20.094
REMARK  Name = C:\Users\Docking\Desktop\test protocol\1iep_ligandH.pdb
REMARK  8 active torsions:
REMARK  status: ('A' for Active; 'I' for Inactive)
REMARK    1  A    between atoms: _5  and  _11
REMARK    2  A    between atoms: _19  and  _21
REMARK    3  A    between atoms: _22  and  _66
REMARK    4  A    between atoms: _27  and  _30
REMARK    5  A    between atoms: _32  and  _33
REMARK    6  A    between atoms: _38  and  _43
REMARK    7  A    between atoms: _43  and  _46
REMARK    8  A    between atoms: _53  and  _55
REMARK                            x       y       z     vdW  Elec       q    Type
REMARK                         _______ _______ _______ _____ _____    ______ ____
ROOT
ATOM     10  C   UNL     1      42.779  27.595  -6.707  0.00  0.00    +0.038 A 
ATOM     11  C   UNL     1      41.545  27.948  -7.310  0.00  0.00    +0.047 A 
ATOM     12  C   UNL     1      40.910  27.080  -8.289  0.00  0.00    +0.035 A 
ATOM     32  C   UNL     1      41.559  25.858  -8.630  0.00  0.00    +0.024 A 
ATOM     33  C   UNL     1      42.815  25.484  -8.028  0.00  0.00    +0.007 A 
ATOM     34  C   UNL     1      43.447  26.337  -7.063  0.00  0.00    -0.029 A 
ATOM     35  C   UNL     1      44.796  25.889  -6.454  0.00  0.00    +0.045 C 
ENDROOT
BRANCH  10   9
ATOM      4  C   UNL     1      44.922  31.724  -5.524  0.00  0.00    +0.077 A 
ATOM      5  C   UNL     1      44.943  32.172  -6.886  0.00  0.00    +0.048 A 
ATOM      6  C   UNL     1      44.399  31.307  -7.862  0.00  0.00    +0.116 A 
ATOM      7  N   UNL     1      43.875  30.087  -7.492  0.00  0.00    -0.223 NA
ATOM      8  C   UNL     1      43.872  29.685  -6.169  0.00  0.00    +0.220 A 
ATOM      9  N   UNL     1      43.344  28.466  -5.772  0.00  0.00    -0.283 N 
ATOM     36  H   UNL     1      43.367  28.203  -4.788  0.00  0.00    +0.155 HD
ATOM     37  N   UNL     1      44.387  30.492  -5.218  0.00  0.00    -0.214 NA
BRANCH   4   3
ATOM      1  C   UNL     1      46.837  34.406  -3.417  0.00  0.00    +0.020 A 
ATOM      2  C   UNL     1      46.349  33.664  -4.557  0.00  0.00    +0.013 A 
ATOM      3  C   UNL     1      45.457  32.526  -4.378  0.00  0.00    +0.019 A 
ATOM     38  C   UNL     1      45.074  32.161  -3.023  0.00  0.00    +0.120 A 
ATOM     39  N   UNL     1      45.560  32.893  -1.944  0.00  0.00    -0.263 NA
ATOM     40  C   UNL     1      46.421  33.990  -2.103  0.00  0.00    +0.111 A 
ENDBRANCH   4   3
ENDBRANCH  10   9
BRANCH  12  13
ATOM     13  N   UNL     1      39.661  27.390  -8.941  0.00  0.00    -0.281 N 
ATOM     14  C   UNL     1      38.385  27.007  -8.561  0.00  0.00    +0.248 C 
ATOM     30  O   UNL     1      38.141  26.157  -7.718  0.00  0.00    -0.270 OA
ATOM     31  H   UNL     1      39.726  27.961  -9.784  0.00  0.00    +0.155 HD
BRANCH  14  15
ATOM     15  C   UNL     1      37.211  27.652  -9.224  0.00  0.00    +0.037 A 
ATOM     16  C   UNL     1      36.779  29.004  -8.859  0.00  0.00    +0.013 A 
ATOM     17  C   UNL     1      35.633  29.595  -9.502  0.00  0.00    +0.005 A 
ATOM     18  C   UNL     1      34.911  28.835 -10.519  0.00  0.00    -0.033 A 
ATOM     28  C   UNL     1      35.364  27.499 -10.866  0.00  0.00    +0.005 A 
ATOM     29  C   UNL     1      36.486  26.915 -10.237  0.00  0.00    +0.013 A 
BRANCH  18  19
ATOM     19  C   UNL     1      33.664  29.380 -11.242  0.00  0.00    +0.119 C 
BRANCH  19  20
ATOM     20  N   UNL     1      32.333  28.908 -10.758  0.00  0.00    -0.302 NA
ATOM     21  C   UNL     1      31.833  27.694 -11.546  0.00  0.00    +0.066 C 
ATOM     22  C   UNL     1      30.449  27.199 -11.013  0.00  0.00    -0.064 C 
ATOM     23  N   UNL     1      29.438  28.346 -11.084  0.00  0.00    +0.379 N 
ATOM     24  C   UNL     1      28.122  27.868 -10.637  0.00  0.00    -0.096 C 
ATOM     25  H   UNL     1      29.344  28.647 -12.153  0.00  0.00    -0.082 HD
ATOM     26  C   UNL     1      29.929  29.558 -10.305  0.00  0.00    -0.064 C 
ATOM     27  C   UNL     1      31.318  30.023 -10.824  0.00  0.00    +0.066 C 
ENDBRANCH  19  20
ENDBRANCH  18  19
ENDBRANCH  14  15
ENDBRANCH  12  13
TORSDOF 6
ENDMDL
MODEL 5
REMARK VINA RESULT:      -7.1      2.607     12.045
REMARK  Name = C:\Users\Docking\Desktop\test protocol\1iep_ligandH.pdb
REMARK  8 active torsions:
REMARK  status: ('A' for Active; 'I' for Inactive)
REMARK    1  A    between atoms: _5  and  _11
REMARK    2  A    between atoms: _19  and  _21
REMARK    3  A    between atoms: _22  and  _66
REMARK    4  A    between atoms: _27  and  _30
REMARK    5  A    between atoms: _32  and  _33
REMARK    6  A    between atoms: _38  and  _43
REMARK    7  A    between atoms: _43  and  _46
REMARK    8  A    between atoms: _53  and  _55
REMARK                            x       y       z     vdW  Elec       q    Type
REMARK                         _______ _______ _______ _____ _____    ______ ____
ROOT
ATOM     10  C   UNL     1      27.378  27.018   0.118  0.00  0.00    +0.038 A 
ATOM     11  C   UNL     1      26.699  28.154  -0.390  0.00  0.00    +0.047 A 
ATOM     12  C   UNL     1      26.154  28.164  -1.739  0.00  0.00    +0.035 A 
ATOM     32  C   UNL     1      26.315  26.997  -2.541  0.00  0.00    +0.024 A 
ATOM     33  C   UNL     1      27.004  25.833  -2.040  0.00  0.00    +0.007 A 
ATOM     34  C   UNL     1      27.546  25.819  -0.712  0.00  0.00    -0.029 A 
ATOM     35  C   UNL     1      28.280  24.546  -0.230  0.00  0.00    +0.045 C 
ENDROOT
BRANCH  10   9
ATOM      4  C   UNL     1      27.053  26.096   4.818  0.00  0.00    +0.077 A 
ATOM      5  C   UNL     1      25.758  25.497   4.671  0.00  0.00    +0.048 A 
ATOM      6  C   UNL     1      25.207  25.452   3.370  0.00  0.00    +0.116 A 
ATOM      7  N   UNL     1      25.909  25.971   2.303  0.00  0.00    -0.223 NA
ATOM      8  C   UNL     1      27.155  26.543   2.480  0.00  0.00    +0.220 A 
ATOM      9  N   UNL     1      27.882  27.063   1.420  0.00  0.00    -0.283 N 
ATOM     36  H   UNL     1      28.795  27.484   1.593  0.00  0.00    +0.155 HD
ATOM     37  N   UNL     1      27.702  26.599   3.712  0.00  0.00    -0.214 NA
BRANCH   4   3
ATOM      1  C   UNL     1      28.161  27.301   8.370  0.00  0.00    +0.020 A 
ATOM      2  C   UNL     1      27.440  27.230   7.121  0.00  0.00    +0.013 A 
ATOM      3  C   UNL     1      27.768  26.215   6.127  0.00  0.00    +0.019 A 
ATOM     38  C   UNL     1      28.840  25.279   6.433  0.00  0.00    +0.120 A 
ATOM     39  N   UNL     1      29.519  25.373   7.644  0.00  0.00    -0.263 NA
ATOM     40  C   UNL     1      29.212  26.347   8.606  0.00  0.00    +0.111 A 
ENDBRANCH   4   3
ENDBRANCH  10   9
BRANCH  12  13
ATOM     13  N   UNL     1      25.462  29.292  -2.312  0.00  0.00    -0.281 N 
ATOM     14  C   UNL     1      24.262  29.852  -1.905  0.00  0.00    +0.248 C 
ATOM     30  O   UNL     1      23.491  29.332  -1.112  0.00  0.00    -0.270 OA
ATOM     31  H   UNL     1      25.911  29.730  -3.116  0.00  0.00    +0.155 HD
BRANCH  14  15
ATOM     15  C   UNL     1      23.854  31.174  -2.470  0.00  0.00    +0.037 A 
ATOM     16  C   UNL     1      22.995  31.261  -3.654  0.00  0.00    +0.013 A 
ATOM     17  C   UNL     1      22.629  32.548  -4.189  0.00  0.00    +0.005 A 
ATOM     18  C   UNL     1      23.123  33.760  -3.539  0.00  0.00    -0.033 A 
ATOM     28  C   UNL     1      23.969  33.645  -2.363  0.00  0.00    +0.005 A 
ATOM     29  C   UNL     1      24.330  32.385  -1.836  0.00  0.00    +0.013 A 
BRANCH  18  19
ATOM     19  C   UNL     1      22.801  35.176  -4.054  0.00  0.00    +0.119 C 
BRANCH  19  20
ATOM     20  N   UNL     1      23.040  36.315  -3.118  0.00  0.00    -0.302 NA
ATOM     21  C   UNL     1      21.781  36.685  -2.329  0.00  0.00    +0.066 C 
ATOM     22  C   UNL     1      22.055  37.863  -1.339  0.00  0.00    -0.064 C 
ATOM     23  N   UNL     1      22.580  39.070  -2.119  0.00  0.00    +0.379 N 
ATOM     24  C   UNL     1      22.783  40.198  -1.199  0.00  0.00    -0.096 C 
ATOM     25  H   UNL     1      21.793  39.367  -2.851  0.00  0.00    -0.082 HD
ATOM     26  C   UNL     1      23.830  38.710  -2.909  0.00  0.00    -0.064 C 
ATOM     27  C   UNL     1      23.555  37.519  -3.868  0.00  0.00    +0.066 C 
ENDBRANCH  19  20
ENDBRANCH  18  19
ENDBRANCH  14  15
ENDBRANCH  12  13
TORSDOF 6
ENDMDL
