MODEL 1
REMARK VINA RESULT:      -8.4      0.000      0.000
REMARK  Name = C:\Users\Docking\Desktop\test protocol\1iep_ligandH.pdb
REMARK  8 active torsions:
REMARK  status: ('A' for Active; 'I' for Inactive)
REMARK    1  A    between atoms: _5  and  _11
REMARK    2  A    between atoms: _19  and  _21
REMARK    3  A    between atoms: _22  and  _66
REMARK    4  A    between atoms: _27  and  _30
REMARK    5  A    between atoms: _32  and  _33
REMARK    6  A    between atoms: _38  and  _43
REMARK    7  A    between atoms: _43  and  _46
REMARK    8  A    between atoms: _53  and  _55
REMARK                            x       y       z     vdW  Elec       q    Type
REMARK                         _______ _______ _______ _____ _____    ______ ____
ROOT
ATOM     10  C   UNL     1      -7.338  40.542  12.435  0.00  0.00    +0.038 A 
ATOM     11  C   UNL     1      -6.037  40.672  11.887  0.00  0.00    +0.047 A 
ATOM     12  C   UNL     1      -5.129  41.714  12.342  0.00  0.00    +0.035 A 
ATOM     32  C   UNL     1      -5.580  42.605  13.359  0.00  0.00    +0.024 A 
ATOM     33  C   UNL     1      -6.900  42.488  13.927  0.00  0.00    +0.007 A 
ATOM     34  C   UNL     1      -7.800  41.464  13.480  0.00  0.00    -0.029 A 
ATOM     35  C   UNL     1      -9.206  41.389  14.120  0.00  0.00    +0.045 C 
ENDROOT
BRANCH  10   9
ATOM      4  C   UNL     1      -9.099  36.081  12.633  0.00  0.00    +0.077 A 
ATOM      5  C   UNL     1      -8.277  35.743  13.759  0.00  0.00    +0.048 A 
ATOM      6  C   UNL     1      -7.409  36.744  14.253  0.00  0.00    +0.116 A 
ATOM      7  N   UNL     1      -7.375  37.986  13.657  0.00  0.00    -0.223 NA
ATOM      8  C   UNL     1      -8.180  38.278  12.571  0.00  0.00    +0.220 A 
ATOM      9  N   UNL     1      -8.168  39.523  11.962  0.00  0.00    -0.283 N 
ATOM     36  H   UNL     1      -8.771  39.697  11.158  0.00  0.00    +0.155 HD
ATOM     37  N   UNL     1      -9.016  37.340  12.080  0.00  0.00    -0.214 NA
BRANCH   4   3
ATOM      1  C   UNL     1     -11.386  32.982  11.952  0.00  0.00    +0.020 A 
ATOM      2  C   UNL     1     -10.444  33.861  12.605  0.00  0.00    +0.013 A 
ATOM      3  C   UNL     1     -10.069  35.133  12.000  0.00  0.00    +0.019 A 
ATOM     38  C   UNL     1     -10.670  35.488  10.723  0.00  0.00    +0.120 A 
ATOM     39  N   UNL     1     -11.573  34.620  10.117  0.00  0.00    -0.263 NA
ATOM     40  C   UNL     1     -11.941  33.393  10.690  0.00  0.00    +0.111 A 
ENDBRANCH   4   3
ENDBRANCH  10   9
BRANCH  12  13
ATOM     13  N   UNL     1      -3.800  41.900  11.816  0.00  0.00    -0.281 N 
ATOM     14  C   UNL     1      -3.389  41.833  10.495  0.00  0.00    +0.248 C 
ATOM     30  O   UNL     1      -4.069  41.389   9.582  0.00  0.00    -0.270 OA
ATOM     31  H   UNL     1      -3.073  42.107  12.502  0.00  0.00    +0.155 HD
BRANCH  14  15
ATOM     15  C   UNL     1      -2.020  42.315  10.139  0.00  0.00    +0.037 A 
ATOM     16  C   UNL     1      -0.885  41.391  10.063  0.00  0.00    +0.013 A 
ATOM     17  C   UNL     1       0.429  41.885   9.734  0.00  0.00    +0.005 A 
ATOM     18  C   UNL     1       0.614  43.312   9.477  0.00  0.00    -0.033 A 
ATOM     28  C   UNL     1      -0.530  44.205   9.554  0.00  0.00    +0.005 A 
ATOM     29  C   UNL     1      -1.819  43.724   9.877  0.00  0.00    +0.013 A 
BRANCH  18  19
ATOM     19  C   UNL     1       1.984  43.930   9.140  0.00  0.00    +0.119 C 
BRANCH  19  20
ATOM     20  N   UNL     1       3.183  43.341   9.809  0.00  0.00    -0.302 NA
ATOM     21  C   UNL     1       3.351  43.855  11.242  0.00  0.00    +0.066 C 
ATOM     22  C   UNL     1       4.597  43.212  11.934  0.00  0.00    -0.064 C 
ATOM     23  N   UNL     1       5.847  43.506  11.102  0.00  0.00    +0.379 N 
ATOM     24  C   UNL     1       7.028  42.953  11.781  0.00  0.00    -0.096 C 
ATOM     25  H   UNL     1       5.970  44.613  11.057  0.00  0.00    -0.082 HD
ATOM     26  C   UNL     1       5.687  43.001   9.676  0.00  0.00    -0.064 C 
ATOM     27  C   UNL     1       4.429  43.624   9.007  0.00  0.00    +0.066 C 
ENDBRANCH  19  20
ENDBRANCH  18  19
ENDBRANCH  14  15
ENDBRANCH  12  13
TORSDOF 6
ENDMDL
MODEL 2
REMARK VINA RESULT:      -8.2      6.184     10.641
REMARK  Name = C:\Users\Docking\Desktop\test protocol\1iep_ligandH.pdb
REMARK  8 active torsions:
REMARK  status: ('A' for Active; 'I' for Inactive)
REMARK    1  A    between atoms: _5  and  _11
REMARK    2  A    between atoms: _19  and  _21
REMARK    3  A    between atoms: _22  and  _66
REMARK    4  A    between atoms: _27  and  _30
REMARK    5  A    between atoms: _32  and  _33
REMARK    6  A    between atoms: _38  and  _43
REMARK    7  A    between atoms: _43  and  _46
REMARK    8  A    between atoms: _53  and  _55
REMARK                            x       y       z     vdW  Elec       q    Type
REMARK                         _______ _______ _______ _____ _____    ______ ____
ROOT
ATOM     10  C   UNL     1      -0.085  42.926  10.504  0.00  0.00    +0.038 A 
ATOM     11  C   UNL     1      -0.896  43.790  11.283  0.00  0.00    +0.047 A 
ATOM     12  C   UNL     1      -1.210  45.137  10.833  0.00  0.00    +0.035 A 
ATOM     32  C   UNL     1      -0.682  45.571   9.582  0.00  0.00    +0.024 A 
ATOM     33  C   UNL     1       0.145  44.707   8.778  0.00  0.00    +0.007 A 
ATOM     34  C   UNL     1       0.460  43.378   9.218  0.00  0.00    -0.029 A 
ATOM     35  C   UNL     1       1.358  42.498   8.318  0.00  0.00    +0.045 C 
ENDROOT
BRANCH  10   9
ATOM      4  C   UNL     1      -1.210  38.294  11.065  0.00  0.00    +0.077 A 
ATOM      5  C   UNL     1      -2.452  38.450  10.365  0.00  0.00    +0.048 A 
ATOM      6  C   UNL     1      -2.767  39.740   9.883  0.00  0.00    +0.116 A 
ATOM      7  N   UNL     1      -1.898  40.789  10.090  0.00  0.00    -0.223 NA
ATOM      8  C   UNL     1      -0.708  40.604  10.771  0.00  0.00    +0.220 A 
ATOM      9  N   UNL     1       0.185  41.643  10.985  0.00  0.00    -0.283 N 
ATOM     36  H   UNL     1       1.048  41.468  11.498  0.00  0.00    +0.155 HD
ATOM     37  N   UNL     1      -0.385  39.383  11.243  0.00  0.00    -0.214 NA
BRANCH   4   3
ATOM      1  C   UNL     1       0.729  34.938  11.593  0.00  0.00    +0.020 A 
ATOM      2  C   UNL     1       0.306  36.188  11.004  0.00  0.00    +0.013 A 
ATOM      3  C   UNL     1      -0.734  36.993  11.632  0.00  0.00    +0.019 A 
ATOM     38  C   UNL     1      -1.330  36.501  12.865  0.00  0.00    +0.120 A 
ATOM     39  N   UNL     1      -0.904  35.293  13.408  0.00  0.00    -0.263 NA
ATOM     40  C   UNL     1       0.095  34.509  12.812  0.00  0.00    +0.111 A 
ENDBRANCH   4   3
ENDBRANCH  10   9
BRANCH  12  13
ATOM     13  N   UNL     1      -2.022  46.061  11.585  0.00  0.00    -0.281 N 
ATOM     14  C   UNL     1      -1.761  47.393  11.864  0.00  0.00    +0.248 C 
ATOM     30  O   UNL     1      -0.680  47.936  11.689  0.00  0.00    -0.270 OA
ATOM     31  H   UNL     1      -2.896  45.689  11.956  0.00  0.00    +0.155 HD
BRANCH  14  15
ATOM     15  C   UNL     1      -2.853  48.240  12.433  0.00  0.00    +0.037 A 
ATOM     16  C   UNL     1      -4.001  47.640  13.118  0.00  0.00    +0.013 A 
ATOM     17  C   UNL     1      -5.049  48.479  13.643  0.00  0.00    +0.005 A 
ATOM     18  C   UNL     1      -4.953  49.928  13.485  0.00  0.00    -0.033 A 
ATOM     28  C   UNL     1      -3.801  50.497  12.806  0.00  0.00    +0.005 A 
ATOM     29  C   UNL     1      -2.772  49.678  12.290  0.00  0.00    +0.013 A 
BRANCH  18  19
ATOM     19  C   UNL     1      -6.035  50.898  13.995  0.00  0.00    +0.119 C 
BRANCH  19  20
ATOM     20  N   UNL     1      -7.378  50.828  13.345  0.00  0.00    -0.302 NA
ATOM     21  C   UNL     1      -7.309  51.149  11.849  0.00  0.00    +0.066 C 
ATOM     22  C   UNL     1      -8.719  51.048  11.181  0.00  0.00    -0.064 C 
ATOM     23  N   UNL     1      -9.687  51.994  11.894  0.00  0.00    +0.379 N 
ATOM     24  C   UNL     1     -10.998  51.945  11.231  0.00  0.00    -0.096 C 
ATOM     25  H   UNL     1      -9.291  53.030  11.784  0.00  0.00    -0.082 HD
ATOM     26  C   UNL     1      -9.759  51.683  13.382  0.00  0.00    -0.064 C 
ATOM     27  C   UNL     1      -8.349  51.757  14.031  0.00  0.00    +0.066 C 
ENDBRANCH  19  20
ENDBRANCH  18  19
ENDBRANCH  14  15
ENDBRANCH  12  13
TORSDOF 6
ENDMDL
MODEL 3
REMARK VINA RESULT:      -8.1      7.555     13.728
REMARK  Name = C:\Users\Docking\Desktop\test protocol\1iep_ligandH.pdb
REMARK  8 active torsions:
REMARK  status: ('A' for Active; 'I' for Inactive)
REMARK    1  A    between atoms: _5  and  _11
REMARK    2  A    between atoms: _19  and  _21
REMARK    3  A    between atoms: _22  and  _66
REMARK    4  A    between atoms: _27  and  _30
REMARK    5  A    between atoms: _32  and  _33
REMARK    6  A    between atoms: _38  and  _43
REMARK    7  A    between atoms: _43  and  _46
REMARK    8  A    between atoms: _53  and  _55
REMARK                            x       y       z     vdW  Elec       q    Type
REMARK                         _______ _______ _______ _____ _____    ______ ____
ROOT
ATOM     10  C   UNL     1     -10.620  26.654  13.717  0.00  0.00    +0.038 A 
ATOM     11  C   UNL     1     -10.417  28.000  13.319  0.00  0.00    +0.047 A 
ATOM     12  C   UNL     1     -10.800  29.106  14.183  0.00  0.00    +0.035 A 
ATOM     32  C   UNL     1     -11.384  28.804  15.448  0.00  0.00    +0.024 A 
ATOM     33  C   UNL     1     -11.599  27.441  15.868  0.00  0.00    +0.007 A 
ATOM     34  C   UNL     1     -11.225  26.347  15.019  0.00  0.00    -0.029 A 
ATOM     35  C   UNL     1     -11.485  24.906  15.518  0.00  0.00    +0.045 C 
ENDROOT
BRANCH  10   9
ATOM      4  C   UNL     1      -7.284  24.169  11.322  0.00  0.00    +0.077 A 
ATOM      5  C   UNL     1      -6.224  24.994  11.824  0.00  0.00    +0.048 A 
ATOM      6  C   UNL     1      -6.580  26.053  12.690  0.00  0.00    +0.116 A 
ATOM      7  N   UNL     1      -7.901  26.260  13.023  0.00  0.00    -0.223 NA
ATOM      8  C   UNL     1      -8.899  25.446  12.520  0.00  0.00    +0.220 A 
ATOM      9  N   UNL     1     -10.234  25.631  12.848  0.00  0.00    -0.283 N 
ATOM     36  H   UNL     1     -10.941  25.013  12.450  0.00  0.00    +0.155 HD
ATOM     37  N   UNL     1      -8.585  24.429  11.690  0.00  0.00    -0.214 NA
BRANCH   4   3
ATOM      1  C   UNL     1      -5.593  21.344   9.210  0.00  0.00    +0.020 A 
ATOM      2  C   UNL     1      -5.747  22.466  10.108  0.00  0.00    +0.013 A 
ATOM      3  C   UNL     1      -7.068  23.009  10.400  0.00  0.00    +0.019 A 
ATOM     38  C   UNL     1      -8.220  22.389   9.764  0.00  0.00    +0.120 A 
ATOM     39  N   UNL     1      -8.040  21.311   8.902  0.00  0.00    -0.263 NA
ATOM     40  C   UNL     1      -6.775  20.781   8.612  0.00  0.00    +0.111 A 
ENDBRANCH   4   3
ENDBRANCH  10   9
BRANCH  12  13
ATOM     13  N   UNL     1     -10.625  30.493  13.830  0.00  0.00    -0.281 N 
ATOM     14  C   UNL     1     -11.176  31.173  12.756  0.00  0.00    +0.248 C 
ATOM     30  O   UNL     1     -11.734  30.637  11.810  0.00  0.00    -0.270 OA
ATOM     31  H   UNL     1     -10.023  31.039  14.446  0.00  0.00    +0.155 HD
BRANCH  14  15
ATOM     15  C   UNL     1     -11.079  32.664  12.720  0.00  0.00    +0.037 A 
ATOM     16  C   UNL     1     -11.251  33.466  13.934  0.00  0.00    +0.013 A 
ATOM     17  C   UNL     1     -11.170  34.904  13.868  0.00  0.00    +0.005 A 
ATOM     18  C   UNL     1     -10.914  35.549  12.583  0.00  0.00    -0.033 A 
ATOM     28  C   UNL     1     -10.743  34.729  11.395  0.00  0.00    +0.005 A 
ATOM     29  C   UNL     1     -10.822  33.319  11.455  0.00  0.00    +0.013 A 
BRANCH  18  19
ATOM     19  C   UNL     1     -10.833  37.078  12.415  0.00  0.00    +0.119 C 
BRANCH  19  20
ATOM     20  N   UNL     1      -9.475  37.676  12.251  0.00  0.00    -0.302 NA
ATOM     21  C   UNL     1      -9.043  37.728  10.783  0.00  0.00    +0.066 C 
ATOM     22  C   UNL     1      -7.630  38.378  10.627  0.00  0.00    -0.064 C 
ATOM     23  N   UNL     1      -6.616  37.593  11.462  0.00  0.00    +0.379 N 
ATOM     24  C   UNL     1      -5.276  38.166  11.272  0.00  0.00    -0.096 C 
ATOM     25  H   UNL     1      -6.596  36.548  11.074  0.00  0.00    -0.082 HD
ATOM     26  C   UNL     1      -7.039  37.534  12.923  0.00  0.00    -0.064 C 
ATOM     27  C   UNL     1      -8.457  36.914  13.064  0.00  0.00    +0.066 C 
ENDBRANCH  19  20
ENDBRANCH  18  19
ENDBRANCH  14  15
ENDBRANCH  12  13
TORSDOF 6
ENDMDL
MODEL 4
REMARK VINA RESULT:      -8.0      3.035     12.954
REMARK  Name = C:\Users\Docking\Desktop\test protocol\1iep_ligandH.pdb
REMARK  8 active torsions:
REMARK  status: ('A' for Active; 'I' for Inactive)
REMARK    1  A    between atoms: _5  and  _11
REMARK    2  A    between atoms: _19  and  _21
REMARK    3  A    between atoms: _22  and  _66
REMARK    4  A    between atoms: _27  and  _30
REMARK    5  A    between atoms: _32  and  _33
REMARK    6  A    between atoms: _38  and  _43
REMARK    7  A    between atoms: _43  and  _46
REMARK    8  A    between atoms: _53  and  _55
REMARK                            x       y       z     vdW  Elec       q    Type
REMARK                         _______ _______ _______ _____ _____    ______ ____
ROOT
ATOM     10  C   UNL     1      -1.470  40.563  10.107  0.00  0.00    +0.038 A 
ATOM     11  C   UNL     1      -2.520  39.641  10.347  0.00  0.00    +0.047 A 
ATOM     12  C   UNL     1      -3.897  40.089  10.493  0.00  0.00    +0.035 A 
ATOM     32  C   UNL     1      -4.168  41.484  10.386  0.00  0.00    +0.024 A 
ATOM     33  C   UNL     1      -3.112  42.436  10.143  0.00  0.00    +0.007 A 
ATOM     34  C   UNL     1      -1.753  42.000  10.000  0.00  0.00    -0.029 A 
ATOM     35  C   UNL     1      -0.660  43.065   9.747  0.00  0.00    +0.045 C 
ENDROOT
BRANCH  10   9
ATOM      4  C   UNL     1       2.834  39.446  11.913  0.00  0.00    +0.077 A 
ATOM      5  C   UNL     1       2.465  39.892  13.225  0.00  0.00    +0.048 A 
ATOM      6  C   UNL     1       1.160  40.409  13.392  0.00  0.00    +0.116 A 
ATOM      7  N   UNL     1       0.298  40.470  12.319  0.00  0.00    -0.223 NA
ATOM      8  C   UNL     1       0.686  40.033  11.066  0.00  0.00    +0.220 A 
ATOM      9  N   UNL     1      -0.167  40.078   9.974  0.00  0.00    -0.283 N 
ATOM     36  H   UNL     1       0.160  39.753   9.065  0.00  0.00    +0.155 HD
ATOM     37  N   UNL     1       1.927  39.537  10.880  0.00  0.00    -0.214 NA
BRANCH   4   3
ATOM      1  C   UNL     1       5.770  36.940  11.278  0.00  0.00    +0.020 A 
ATOM      2  C   UNL     1       4.457  37.443  11.611  0.00  0.00    +0.013 A 
ATOM      3  C   UNL     1       4.176  38.873  11.578  0.00  0.00    +0.019 A 
ATOM     38  C   UNL     1       5.254  39.774  11.202  0.00  0.00    +0.120 A 
ATOM     39  N   UNL     1       6.509  39.262  10.888  0.00  0.00    -0.263 NA
ATOM     40  C   UNL     1       6.792  37.888  10.918  0.00  0.00    +0.111 A 
ENDBRANCH   4   3
ENDBRANCH  10   9
BRANCH  12  13
ATOM     13  N   UNL     1      -5.003  39.200  10.747  0.00  0.00    -0.281 N 
ATOM     14  C   UNL     1      -5.685  39.006  11.937  0.00  0.00    +0.248 C 
ATOM     30  O   UNL     1      -5.306  39.415  13.025  0.00  0.00    -0.270 OA
ATOM     31  H   UNL     1      -5.323  38.646   9.952  0.00  0.00    +0.155 HD
BRANCH  14  15
ATOM     15  C   UNL     1      -6.965  38.235  11.919  0.00  0.00    +0.037 A 
ATOM     16  C   UNL     1      -7.376  37.417  13.063  0.00  0.00    +0.013 A 
ATOM     17  C   UNL     1      -8.607  36.670  13.012  0.00  0.00    +0.005 A 
ATOM     18  C   UNL     1      -9.438  36.739  11.813  0.00  0.00    -0.033 A 
ATOM     28  C   UNL     1      -9.010  37.563  10.695  0.00  0.00    +0.005 A 
ATOM     29  C   UNL     1      -7.803  38.296  10.740  0.00  0.00    +0.013 A 
BRANCH  18  19
ATOM     19  C   UNL     1     -10.758  35.958  11.663  0.00  0.00    +0.119 C 
BRANCH  19  20
ATOM     20  N   UNL     1     -10.690  34.623  10.999  0.00  0.00    -0.302 NA
ATOM     21  C   UNL     1     -11.835  34.418  10.002  0.00  0.00    +0.066 C 
ATOM     22  C   UNL     1     -11.736  33.025   9.300  0.00  0.00    -0.064 C 
ATOM     23  N   UNL     1     -11.737  31.922  10.359  0.00  0.00    +0.379 N 
ATOM     24  C   UNL     1     -11.702  30.608   9.700  0.00  0.00    -0.096 C 
ATOM     25  H   UNL     1     -12.697  31.993  10.921  0.00  0.00    -0.082 HD
ATOM     26  C   UNL     1     -10.603  32.119  11.356  0.00  0.00    -0.064 C 
ATOM     27  C   UNL     1     -10.694  33.518  12.026  0.00  0.00    +0.066 C 
ENDBRANCH  19  20
ENDBRANCH  18  19
ENDBRANCH  14  15
ENDBRANCH  12  13
TORSDOF 6
ENDMDL
MODEL 5
REMARK VINA RESULT:      -7.8      7.878     11.405
REMARK  Name = C:\Users\Docking\Desktop\test protocol\1iep_ligandH.pdb
REMARK  8 active torsions:
REMARK  status: ('A' for Active; 'I' for Inactive)
REMARK    1  A    between atoms: _5  and  _11
REMARK    2  A    between atoms: _19  and  _21
REMARK    3  A    between atoms: _22  and  _66
REMARK    4  A    between atoms: _27  and  _30
REMARK    5  A    between atoms: _32  and  _33
REMARK    6  A    between atoms: _38  and  _43
REMARK    7  A    between atoms: _43  and  _46
REMARK    8  A    between atoms: _53  and  _55
REMARK                            x       y       z     vdW  Elec       q    Type
REMARK                         _______ _______ _______ _____ _____    ______ ____
ROOT
ATOM     10  C   UNL     1      -1.627  45.671  11.098  0.00  0.00    +0.038 A 
ATOM     11  C   UNL     1      -2.182  46.394  12.185  0.00  0.00    +0.047 A 
ATOM     12  C   UNL     1      -1.747  47.749  12.487  0.00  0.00    +0.035 A 
ATOM     32  C   UNL     1      -0.746  48.338  11.660  0.00  0.00    +0.024 A 
ATOM     33  C   UNL     1      -0.171  47.616  10.553  0.00  0.00    +0.007 A 
ATOM     34  C   UNL     1      -0.594  46.279  10.251  0.00  0.00    -0.029 A 
ATOM     35  C   UNL     1       0.063  45.550   9.055  0.00  0.00    +0.045 C 
ENDROOT
BRANCH  10   9
ATOM      4  C   UNL     1      -1.299  40.908  11.590  0.00  0.00    +0.077 A 
ATOM      5  C   UNL     1      -0.106  41.012  12.380  0.00  0.00    +0.048 A 
ATOM      6  C   UNL     1       0.395  42.309  12.630  0.00  0.00    +0.116 A 
ATOM      7  N   UNL     1      -0.257  43.413  12.125  0.00  0.00    -0.223 NA
ATOM      8  C   UNL     1      -1.405  43.277  11.365  0.00  0.00    +0.220 A 
ATOM      9  N   UNL     1      -2.082  44.373  10.854  0.00  0.00    -0.283 N 
ATOM     36  H   UNL     1      -2.921  44.231  10.292  0.00  0.00    +0.155 HD
ATOM     37  N   UNL     1      -1.902  42.049  11.111  0.00  0.00    -0.214 NA
BRANCH   4   3
ATOM      1  C   UNL     1      -2.794  37.900   9.586  0.00  0.00    +0.020 A 
ATOM      2  C   UNL     1      -2.158  39.166   9.868  0.00  0.00    +0.013 A 
ATOM      3  C   UNL     1      -1.952  39.606  11.242  0.00  0.00    +0.019 A 
ATOM     38  C   UNL     1      -2.404  38.735  12.316  0.00  0.00    +0.120 A 
ATOM     39  N   UNL     1      -3.015  37.522  12.014  0.00  0.00    -0.263 NA
ATOM     40  C   UNL     1      -3.220  37.088  10.696  0.00  0.00    +0.111 A 
ENDBRANCH   4   3
ENDBRANCH  10   9
BRANCH  12  13
ATOM     13  N   UNL     1      -2.269  48.530  13.582  0.00  0.00    -0.281 N 
ATOM     14  C   UNL     1      -3.219  49.536  13.533  0.00  0.00    +0.248 C 
ATOM     30  O   UNL     1      -3.612  50.067  12.505  0.00  0.00    -0.270 OA
ATOM     31  H   UNL     1      -1.891  48.314  14.504  0.00  0.00    +0.155 HD
BRANCH  14  15
ATOM     15  C   UNL     1      -3.808  50.035  14.813  0.00  0.00    +0.037 A 
ATOM     16  C   UNL     1      -4.006  49.143  15.958  0.00  0.00    +0.013 A 
ATOM     17  C   UNL     1      -4.592  49.646  17.174  0.00  0.00    +0.005 A 
ATOM     18  C   UNL     1      -4.984  51.051  17.253  0.00  0.00    -0.033 A 
ATOM     28  C   UNL     1      -4.772  51.916  16.104  0.00  0.00    +0.005 A 
ATOM     29  C   UNL     1      -4.199  51.426  14.909  0.00  0.00    +0.013 A 
BRANCH  18  19
ATOM     19  C   UNL     1      -5.636  51.669  18.504  0.00  0.00    +0.119 C 
BRANCH  19  20
ATOM     20  N   UNL     1      -4.843  52.686  19.257  0.00  0.00    -0.302 NA
ATOM     21  C   UNL     1      -4.022  52.055  20.385  0.00  0.00    +0.066 C 
ATOM     22  C   UNL     1      -3.181  53.130  21.147  0.00  0.00    -0.064 C 
ATOM     23  N   UNL     1      -4.116  54.209  21.696  0.00  0.00    +0.379 N 
ATOM     24  C   UNL     1      -3.335  55.191  22.463  0.00  0.00    -0.096 C 
ATOM     25  H   UNL     1      -4.825  53.716  22.401  0.00  0.00    -0.082 HD
ATOM     26  C   UNL     1      -4.937  54.841  20.581  0.00  0.00    -0.064 C 
ATOM     27  C   UNL     1      -5.746  53.760  19.811  0.00  0.00    +0.066 C 
ENDBRANCH  19  20
ENDBRANCH  18  19
ENDBRANCH  14  15
ENDBRANCH  12  13
TORSDOF 6
ENDMDL
