MODEL 1
REMARK VINA RESULT:      -9.0      0.000      0.000
REMARK  Name = C:\Users\Docking\Desktop\test protocol\1iep_ligandH.pdb
REMARK  8 active torsions:
REMARK  status: ('A' for Active; 'I' for Inactive)
REMARK    1  A    between atoms: _5  and  _11
REMARK    2  A    between atoms: _19  and  _21
REMARK    3  A    between atoms: _22  and  _66
REMARK    4  A    between atoms: _27  and  _30
REMARK    5  A    between atoms: _32  and  _33
REMARK    6  A    between atoms: _38  and  _43
REMARK    7  A    between atoms: _43  and  _46
REMARK    8  A    between atoms: _53  and  _55
REMARK                            x       y       z     vdW  Elec       q    Type
REMARK                         _______ _______ _______ _____ _____    ______ ____
ROOT
ATOM     10  C   UNL     1      22.718  92.480  13.587  0.00  0.00    +0.038 A 
ATOM     11  C   UNL     1      23.272  92.607  14.887  0.00  0.00    +0.047 A 
ATOM     12  C   UNL     1      24.527  93.310  15.104  0.00  0.00    +0.035 A 
ATOM     32  C   UNL     1      25.189  93.874  13.976  0.00  0.00    +0.024 A 
ATOM     33  C   UNL     1      24.641  93.753  12.648  0.00  0.00    +0.007 A 
ATOM     34  C   UNL     1      23.405  93.059  12.427  0.00  0.00    -0.029 A 
ATOM     35  C   UNL     1      22.867  92.955  10.980  0.00  0.00    +0.045 C 
ENDROOT
BRANCH  10   9
ATOM      4  C   UNL     1      20.190  88.453  12.927  0.00  0.00    +0.077 A 
ATOM      5  C   UNL     1      21.377  87.651  12.850  0.00  0.00    +0.048 A 
ATOM      6  C   UNL     1      22.618  88.314  12.978  0.00  0.00    +0.116 A 
ATOM      7  N   UNL     1      22.658  89.678  13.169  0.00  0.00    -0.223 NA
ATOM      8  C   UNL     1      21.494  90.422  13.237  0.00  0.00    +0.220 A 
ATOM      9  N   UNL     1      21.510  91.794  13.436  0.00  0.00    -0.283 N 
ATOM     36  H   UNL     1      20.631  92.309  13.473  0.00  0.00    +0.155 HD
ATOM     37  N   UNL     1      20.297  89.813  13.116  0.00  0.00    -0.214 NA
BRANCH   4   3
ATOM      1  C   UNL     1      16.891  86.475  13.636  0.00  0.00    +0.020 A 
ATOM      2  C   UNL     1      18.235  86.982  13.793  0.00  0.00    +0.013 A 
ATOM      3  C   UNL     1      18.805  87.898  12.813  0.00  0.00    +0.019 A 
ATOM     38  C   UNL     1      17.981  88.285  11.677  0.00  0.00    +0.120 A 
ATOM     39  N   UNL     1      16.691  87.780  11.552  0.00  0.00    -0.263 NA
ATOM     40  C   UNL     1      16.133  86.896  12.488  0.00  0.00    +0.111 A 
ENDBRANCH   4   3
ENDBRANCH  10   9
BRANCH  12  13
ATOM     13  N   UNL     1      25.142  93.463  16.399  0.00  0.00    -0.281 N 
ATOM     14  C   UNL     1      24.963  94.492  17.310  0.00  0.00    +0.248 C 
ATOM     30  O   UNL     1      24.406  95.550  17.058  0.00  0.00    -0.270 OA
ATOM     31  H   UNL     1      25.787  92.725  16.678  0.00  0.00    +0.155 HD
BRANCH  14  15
ATOM     15  C   UNL     1      25.491  94.326  18.699  0.00  0.00    +0.037 A 
ATOM     16  C   UNL     1      26.911  94.061  18.945  0.00  0.00    +0.013 A 
ATOM     17  C   UNL     1      27.391  93.888  20.293  0.00  0.00    +0.005 A 
ATOM     18  C   UNL     1      26.450  93.983  21.406  0.00  0.00    -0.033 A 
ATOM     28  C   UNL     1      25.048  94.253  21.134  0.00  0.00    +0.005 A 
ATOM     29  C   UNL     1      24.573  94.421  19.814  0.00  0.00    +0.013 A 
BRANCH  18  19
ATOM     19  C   UNL     1      26.871  93.792  22.875  0.00  0.00    +0.119 C 
BRANCH  19  20
ATOM     20  N   UNL     1      27.083  95.024  23.692  0.00  0.00    -0.302 NA
ATOM     21  C   UNL     1      25.779  95.532  24.314  0.00  0.00    +0.066 C 
ATOM     22  C   UNL     1      26.023  96.809  25.183  0.00  0.00    -0.064 C 
ATOM     23  N   UNL     1      26.670  97.894  24.320  0.00  0.00    +0.379 N 
ATOM     24  C   UNL     1      26.847  99.115  25.119  0.00  0.00    -0.096 C 
ATOM     25  H   UNL     1      25.964  98.132  23.491  0.00  0.00    -0.082 HD
ATOM     26  C   UNL     1      27.965  97.396  23.695  0.00  0.00    -0.064 C 
ATOM     27  C   UNL     1      27.717  96.111  22.858  0.00  0.00    +0.066 C 
ENDBRANCH  19  20
ENDBRANCH  18  19
ENDBRANCH  14  15
ENDBRANCH  12  13
TORSDOF 6
ENDMDL
MODEL 2
REMARK VINA RESULT:      -8.7      2.025     12.669
REMARK  Name = C:\Users\Docking\Desktop\test protocol\1iep_ligandH.pdb
REMARK  8 active torsions:
REMARK  status: ('A' for Active; 'I' for Inactive)
REMARK    1  A    between atoms: _5  and  _11
REMARK    2  A    between atoms: _19  and  _21
REMARK    3  A    between atoms: _22  and  _66
REMARK    4  A    between atoms: _27  and  _30
REMARK    5  A    between atoms: _32  and  _33
REMARK    6  A    between atoms: _38  and  _43
REMARK    7  A    between atoms: _43  and  _46
REMARK    8  A    between atoms: _53  and  _55
REMARK                            x       y       z     vdW  Elec       q    Type
REMARK                         _______ _______ _______ _____ _____    ______ ____
ROOT
ATOM     10  C   UNL     1      27.300  95.380  17.027  0.00  0.00    +0.038 A 
ATOM     11  C   UNL     1      26.220  94.490  16.799  0.00  0.00    +0.047 A 
ATOM     12  C   UNL     1      26.185  93.634  15.623  0.00  0.00    +0.035 A 
ATOM     32  C   UNL     1      27.270  93.709  14.701  0.00  0.00    +0.024 A 
ATOM     33  C   UNL     1      28.375  94.609  14.917  0.00  0.00    +0.007 A 
ATOM     34  C   UNL     1      28.413  95.457  16.074  0.00  0.00    -0.029 A 
ATOM     35  C   UNL     1      29.621  96.408  16.251  0.00  0.00    +0.045 C 
ENDROOT
BRANCH  10   9
ATOM      4  C   UNL     1      27.438  95.951  21.791  0.00  0.00    +0.077 A 
ATOM      5  C   UNL     1      27.527  94.538  22.017  0.00  0.00    +0.048 A 
ATOM      6  C   UNL     1      27.527  93.697  20.881  0.00  0.00    +0.116 A 
ATOM      7  N   UNL     1      27.444  94.241  19.618  0.00  0.00    -0.223 NA
ATOM      8  C   UNL     1      27.358  95.609  19.435  0.00  0.00    +0.220 A 
ATOM      9  N   UNL     1      27.282  96.179  18.173  0.00  0.00    -0.283 N 
ATOM     36  H   UNL     1      27.212  97.192  18.080  0.00  0.00    +0.155 HD
ATOM     37  N   UNL     1      27.354  96.433  20.503  0.00  0.00    -0.214 NA
BRANCH   4   3
ATOM      1  C   UNL     1      28.551  98.286  24.726  0.00  0.00    +0.020 A 
ATOM      2  C   UNL     1      28.612  97.295  23.676  0.00  0.00    +0.013 A 
ATOM      3  C   UNL     1      27.429  96.969  22.889  0.00  0.00    +0.019 A 
ATOM     38  C   UNL     1      26.190  97.669  23.192  0.00  0.00    +0.120 A 
ATOM     39  N   UNL     1      26.161  98.617  24.210  0.00  0.00    -0.263 NA
ATOM     40  C   UNL     1      27.292  98.938  24.975  0.00  0.00    +0.111 A 
ENDBRANCH   4   3
ENDBRANCH  10   9
BRANCH  12  13
ATOM     13  N   UNL     1      25.111  92.717  15.334  0.00  0.00    -0.281 N 
ATOM     14  C   UNL     1      24.043  92.901  14.471  0.00  0.00    +0.248 C 
ATOM     30  O   UNL     1      23.732  93.973  13.975  0.00  0.00    -0.270 OA
ATOM     31  H   UNL     1      25.142  91.824  15.826  0.00  0.00    +0.155 HD
BRANCH  14  15
ATOM     15  C   UNL     1      23.188  91.726  14.121  0.00  0.00    +0.037 A 
ATOM     16  C   UNL     1      21.756  91.710  14.429  0.00  0.00    +0.013 A 
ATOM     17  C   UNL     1      20.957  90.557  14.095  0.00  0.00    +0.005 A 
ATOM     18  C   UNL     1      21.590  89.411  13.447  0.00  0.00    -0.033 A 
ATOM     28  C   UNL     1      23.012  89.456  13.148  0.00  0.00    +0.005 A 
ATOM     29  C   UNL     1      23.798  90.583  13.474  0.00  0.00    +0.013 A 
BRANCH  18  19
ATOM     19  C   UNL     1      20.820  88.130  13.074  0.00  0.00    +0.119 C 
BRANCH  19  20
ATOM     20  N   UNL     1      19.330  88.218  13.025  0.00  0.00    -0.302 NA
ATOM     21  C   UNL     1      18.661  86.999  13.667  0.00  0.00    +0.066 C 
ATOM     22  C   UNL     1      17.102  87.119  13.627  0.00  0.00    -0.064 C 
ATOM     23  N   UNL     1      16.643  87.289  12.178  0.00  0.00    +0.379 N 
ATOM     24  C   UNL     1      15.175  87.343  12.132  0.00  0.00    -0.096 C 
ATOM     25  H   UNL     1      16.966  86.384  11.613  0.00  0.00    -0.082 HD
ATOM     26  C   UNL     1      17.306  88.497  11.532  0.00  0.00    -0.064 C 
ATOM     27  C   UNL     1      18.854  88.382  11.603  0.00  0.00    +0.066 C 
ENDBRANCH  19  20
ENDBRANCH  18  19
ENDBRANCH  14  15
ENDBRANCH  12  13
TORSDOF 6
ENDMDL
MODEL 3
REMARK VINA RESULT:      -8.5      2.207      3.956
REMARK  Name = C:\Users\Docking\Desktop\test protocol\1iep_ligandH.pdb
REMARK  8 active torsions:
REMARK  status: ('A' for Active; 'I' for Inactive)
REMARK    1  A    between atoms: _5  and  _11
REMARK    2  A    between atoms: _19  and  _21
REMARK    3  A    between atoms: _22  and  _66
REMARK    4  A    between atoms: _27  and  _30
REMARK    5  A    between atoms: _32  and  _33
REMARK    6  A    between atoms: _38  and  _43
REMARK    7  A    between atoms: _43  and  _46
REMARK    8  A    between atoms: _53  and  _55
REMARK                            x       y       z     vdW  Elec       q    Type
REMARK                         _______ _______ _______ _____ _____    ______ ____
ROOT
ATOM     10  C   UNL     1      26.300  92.975  15.506  0.00  0.00    +0.038 A 
ATOM     11  C   UNL     1      26.055  93.343  16.853  0.00  0.00    +0.047 A 
ATOM     12  C   UNL     1      26.793  94.427  17.484  0.00  0.00    +0.035 A 
ATOM     32  C   UNL     1      27.772  95.117  16.711  0.00  0.00    +0.024 A 
ATOM     33  C   UNL     1      28.035  94.755  15.340  0.00  0.00    +0.007 A 
ATOM     34  C   UNL     1      27.312  93.685  14.714  0.00  0.00    -0.029 A 
ATOM     35  C   UNL     1      27.639  93.337  13.243  0.00  0.00    +0.045 C 
ENDROOT
BRANCH  10   9
ATOM      4  C   UNL     1      22.259  91.154  13.665  0.00  0.00    +0.077 A 
ATOM      5  C   UNL     1      21.549  92.387  13.849  0.00  0.00    +0.048 A 
ATOM      6  C   UNL     1      22.259  93.464  14.427  0.00  0.00    +0.116 A 
ATOM      7  N   UNL     1      23.579  93.308  14.790  0.00  0.00    -0.223 NA
ATOM      8  C   UNL     1      24.233  92.104  14.601  0.00  0.00    +0.220 A 
ATOM      9  N   UNL     1      25.563  91.927  14.951  0.00  0.00    -0.283 N 
ATOM     36  H   UNL     1      26.007  91.022  14.802  0.00  0.00    +0.155 HD
ATOM     37  N   UNL     1      23.577  91.060  14.052  0.00  0.00    -0.214 NA
BRANCH   4   3
ATOM      1  C   UNL     1      21.643  87.459  12.538  0.00  0.00    +0.020 A 
ATOM      2  C   UNL     1      22.275  88.613  13.134  0.00  0.00    +0.013 A 
ATOM      3  C   UNL     1      21.647  89.927  13.064  0.00  0.00    +0.019 A 
ATOM     38  C   UNL     1      20.369  90.039  12.379  0.00  0.00    +0.120 A 
ATOM     39  N   UNL     1      19.784  88.911  11.813  0.00  0.00    -0.263 NA
ATOM     40  C   UNL     1      20.379  87.642  11.872  0.00  0.00    +0.111 A 
ENDBRANCH   4   3
ENDBRANCH  10   9
BRANCH  12  13
ATOM     13  N   UNL     1      26.593  94.840  18.851  0.00  0.00    -0.281 N 
ATOM     14  C   UNL     1      27.097  94.253  20.000  0.00  0.00    +0.248 C 
ATOM     30  O   UNL     1      27.624  93.151  20.039  0.00  0.00    -0.270 OA
ATOM     31  H   UNL     1      26.010  95.665  18.988  0.00  0.00    +0.155 HD
BRANCH  14  15
ATOM     15  C   UNL     1      26.986  94.989  21.296  0.00  0.00    +0.037 A 
ATOM     16  C   UNL     1      27.906  96.079  21.631  0.00  0.00    +0.013 A 
ATOM     17  C   UNL     1      27.787  96.762  22.895  0.00  0.00    +0.005 A 
ATOM     18  C   UNL     1      26.742  96.357  23.833  0.00  0.00    -0.033 A 
ATOM     28  C   UNL     1      25.840  95.277  23.472  0.00  0.00    +0.005 A 
ATOM     29  C   UNL     1      25.954  94.604  22.235  0.00  0.00    +0.013 A 
BRANCH  18  19
ATOM     19  C   UNL     1      26.556  97.016  25.212  0.00  0.00    +0.119 C 
BRANCH  19  20
ATOM     20  N   UNL     1      25.576  98.139  25.307  0.00  0.00    -0.302 NA
ATOM     21  C   UNL     1      24.130  97.652  25.180  0.00  0.00    +0.066 C 
ATOM     22  C   UNL     1      23.117  98.837  25.304  0.00  0.00    -0.064 C 
ATOM     23  N   UNL     1      23.431  99.886  24.236  0.00  0.00    +0.379 N 
ATOM     24  C   UNL     1      22.445 100.974  24.312  0.00  0.00    -0.096 C 
ATOM     25  H   UNL     1      23.320  99.398  23.240  0.00  0.00    -0.082 HD
ATOM     26  C   UNL     1      24.868 100.374  24.353  0.00  0.00    -0.064 C 
ATOM     27  C   UNL     1      25.865  99.185  24.258  0.00  0.00    +0.066 C 
ENDBRANCH  19  20
ENDBRANCH  18  19
ENDBRANCH  14  15
ENDBRANCH  12  13
TORSDOF 6
ENDMDL
MODEL 4
REMARK VINA RESULT:      -8.5      6.163     11.526
REMARK  Name = C:\Users\Docking\Desktop\test protocol\1iep_ligandH.pdb
REMARK  8 active torsions:
REMARK  status: ('A' for Active; 'I' for Inactive)
REMARK    1  A    between atoms: _5  and  _11
REMARK    2  A    between atoms: _19  and  _21
REMARK    3  A    between atoms: _22  and  _66
REMARK    4  A    between atoms: _27  and  _30
REMARK    5  A    between atoms: _32  and  _33
REMARK    6  A    between atoms: _38  and  _43
REMARK    7  A    between atoms: _43  and  _46
REMARK    8  A    between atoms: _53  and  _55
REMARK                            x       y       z     vdW  Elec       q    Type
REMARK                         _______ _______ _______ _____ _____    ______ ____
ROOT
ATOM     10  C   UNL     1      13.809  84.859  12.295  0.00  0.00    +0.038 A 
ATOM     11  C   UNL     1      15.157  85.292  12.214  0.00  0.00    +0.047 A 
ATOM     12  C   UNL     1      15.695  86.258  13.159  0.00  0.00    +0.035 A 
ATOM     32  C   UNL     1      14.833  86.760  14.176  0.00  0.00    +0.024 A 
ATOM     33  C   UNL     1      13.460  86.331  14.273  0.00  0.00    +0.007 A 
ATOM     34  C   UNL     1      12.922  85.381  13.342  0.00  0.00    -0.029 A 
ATOM     35  C   UNL     1      11.441  84.962  13.489  0.00  0.00    +0.045 C 
ENDROOT
BRANCH  10   9
ATOM      4  C   UNL     1      13.223  80.358  10.733  0.00  0.00    +0.077 A 
ATOM      5  C   UNL     1      13.925  79.813  11.859  0.00  0.00    +0.048 A 
ATOM      6  C   UNL     1      14.427  80.726  12.814  0.00  0.00    +0.116 A 
ATOM      7  N   UNL     1      14.236  82.080  12.645  0.00  0.00    -0.223 NA
ATOM      8  C   UNL     1      13.555  82.572  11.547  0.00  0.00    +0.220 A 
ATOM      9  N   UNL     1      13.344  83.930  11.361  0.00  0.00    -0.283 N 
ATOM     36  H   UNL     1      12.844  84.254  10.534  0.00  0.00    +0.155 HD
ATOM     37  N   UNL     1      13.067  81.722  10.620  0.00  0.00    -0.214 NA
BRANCH   4   3
ATOM      1  C   UNL     1      11.945  79.134   7.245  0.00  0.00    +0.020 A 
ATOM      2  C   UNL     1      12.525  79.981   8.262  0.00  0.00    +0.013 A 
ATOM      3  C   UNL     1      12.630  79.523   9.641  0.00  0.00    +0.019 A 
ATOM     38  C   UNL     1      12.136  78.192   9.961  0.00  0.00    +0.120 A 
ATOM     39  N   UNL     1      11.581  77.400   8.961  0.00  0.00    -0.263 NA
ATOM     40  C   UNL     1      11.472  77.831   7.630  0.00  0.00    +0.111 A 
ENDBRANCH   4   3
ENDBRANCH  10   9
BRANCH  12  13
ATOM     13  N   UNL     1      17.053  86.740  13.121  0.00  0.00    -0.281 N 
ATOM     14  C   UNL     1      17.504  87.985  12.712  0.00  0.00    +0.248 C 
ATOM     30  O   UNL     1      16.823  88.804  12.113  0.00  0.00    -0.270 OA
ATOM     31  H   UNL     1      17.770  86.085  13.433  0.00  0.00    +0.155 HD
BRANCH  14  15
ATOM     15  C   UNL     1      18.919  88.371  12.999  0.00  0.00    +0.037 A 
ATOM     16  C   UNL     1      19.248  89.313  14.071  0.00  0.00    +0.013 A 
ATOM     17  C   UNL     1      20.620  89.681  14.315  0.00  0.00    +0.005 A 
ATOM     18  C   UNL     1      21.675  89.104  13.485  0.00  0.00    -0.033 A 
ATOM     28  C   UNL     1      21.321  88.168  12.431  0.00  0.00    +0.005 A 
ATOM     29  C   UNL     1      19.977  87.805  12.188  0.00  0.00    +0.013 A 
BRANCH  18  19
ATOM     19  C   UNL     1      23.164  89.456  13.660  0.00  0.00    +0.119 C 
BRANCH  19  20
ATOM     20  N   UNL     1      23.518  90.904  13.756  0.00  0.00    -0.302 NA
ATOM     21  C   UNL     1      23.236  91.652  12.450  0.00  0.00    +0.066 C 
ATOM     22  C   UNL     1      23.590  93.169  12.575  0.00  0.00    -0.064 C 
ATOM     23  N   UNL     1      25.059  93.315  12.976  0.00  0.00    +0.379 N 
ATOM     24  C   UNL     1      25.411  94.741  13.038  0.00  0.00    -0.096 C 
ATOM     25  H   UNL     1      25.677  92.849  12.174  0.00  0.00    -0.082 HD
ATOM     26  C   UNL     1      25.349  92.572  14.273  0.00  0.00    -0.064 C 
ATOM     27  C   UNL     1      24.966  91.071  14.147  0.00  0.00    +0.066 C 
ENDBRANCH  19  20
ENDBRANCH  18  19
ENDBRANCH  14  15
ENDBRANCH  12  13
TORSDOF 6
ENDMDL
MODEL 5
REMARK VINA RESULT:      -8.5     10.524     16.055
REMARK  Name = C:\Users\Docking\Desktop\test protocol\1iep_ligandH.pdb
REMARK  8 active torsions:
REMARK  status: ('A' for Active; 'I' for Inactive)
REMARK    1  A    between atoms: _5  and  _11
REMARK    2  A    between atoms: _19  and  _21
REMARK    3  A    between atoms: _22  and  _66
REMARK    4  A    between atoms: _27  and  _30
REMARK    5  A    between atoms: _32  and  _33
REMARK    6  A    between atoms: _38  and  _43
REMARK    7  A    between atoms: _43  and  _46
REMARK    8  A    between atoms: _53  and  _55
REMARK                            x       y       z     vdW  Elec       q    Type
REMARK                         _______ _______ _______ _____ _____    ______ ____
ROOT
ATOM     10  C   UNL     1      38.230  94.253  16.163  0.00  0.00    +0.038 A 
ATOM     11  C   UNL     1      36.814  94.246  16.247  0.00  0.00    +0.047 A 
ATOM     12  C   UNL     1      36.002  95.052  15.350  0.00  0.00    +0.035 A 
ATOM     32  C   UNL     1      36.666  95.854  14.375  0.00  0.00    +0.024 A 
ATOM     33  C   UNL     1      38.104  95.875  14.276  0.00  0.00    +0.007 A 
ATOM     34  C   UNL     1      38.910  95.083  15.161  0.00  0.00    -0.029 A 
ATOM     35  C   UNL     1      40.448  95.149  15.014  0.00  0.00    +0.045 C 
ENDROOT
BRANCH  10   9
ATOM      4  C   UNL     1      40.833  93.659  20.152  0.00  0.00    +0.077 A 
ATOM      5  C   UNL     1      40.754  95.053  20.482  0.00  0.00    +0.048 A 
ATOM      6  C   UNL     1      40.041  95.890  19.595  0.00  0.00    +0.116 A 
ATOM      7  N   UNL     1      39.453  95.362  18.466  0.00  0.00    -0.223 NA
ATOM      8  C   UNL     1      39.550  94.013  18.176  0.00  0.00    +0.220 A 
ATOM      9  N   UNL     1      38.960  93.459  17.050  0.00  0.00    -0.283 N 
ATOM     36  H   UNL     1      39.060  92.461  16.868  0.00  0.00    +0.155 HD
ATOM     37  N   UNL     1      40.227  93.193  19.006  0.00  0.00    -0.214 NA
BRANCH   4   3
ATOM      1  C   UNL     1      41.763  90.364  22.045  0.00  0.00    +0.020 A 
ATOM      2  C   UNL     1      41.032  91.304  21.226  0.00  0.00    +0.013 A 
ATOM      3  C   UNL     1      41.549  92.646  20.991  0.00  0.00    +0.019 A 
ATOM     38  C   UNL     1      42.818  93.009  21.603  0.00  0.00    +0.120 A 
ATOM     39  N   UNL     1      43.499  92.083  22.387  0.00  0.00    -0.263 NA
ATOM     40  C   UNL     1      43.011  90.789  22.622  0.00  0.00    +0.111 A 
ENDBRANCH   4   3
ENDBRANCH  10   9
BRANCH  12  13
ATOM     13  N   UNL     1      34.562  95.091  15.393  0.00  0.00    -0.281 N 
ATOM     14  C   UNL     1      33.667  94.275  14.720  0.00  0.00    +0.248 C 
ATOM     30  O   UNL     1      33.971  93.521  13.807  0.00  0.00    -0.270 OA
ATOM     31  H   UNL     1      34.152  95.807  15.993  0.00  0.00    +0.155 HD
BRANCH  14  15
ATOM     15  C   UNL     1      32.224  94.312  15.107  0.00  0.00    +0.037 A 
ATOM     16  C   UNL     1      31.740  93.618  16.303  0.00  0.00    +0.013 A 
ATOM     17  C   UNL     1      30.340  93.655  16.644  0.00  0.00    +0.005 A 
ATOM     18  C   UNL     1      29.414  94.393  15.788  0.00  0.00    -0.033 A 
ATOM     28  C   UNL     1      29.922  95.077  14.610  0.00  0.00    +0.005 A 
ATOM     29  C   UNL     1      31.293  95.041  14.272  0.00  0.00    +0.013 A 
BRANCH  18  19
ATOM     19  C   UNL     1      27.900  94.469  16.064  0.00  0.00    +0.119 C 
BRANCH  19  20
ATOM     20  N   UNL     1      27.461  95.258  17.253  0.00  0.00    -0.302 NA
ATOM     21  C   UNL     1      28.249  96.563  17.399  0.00  0.00    +0.066 C 
ATOM     22  C   UNL     1      27.761  97.387  18.635  0.00  0.00    -0.064 C 
ATOM     23  N   UNL     1      27.889  96.532  19.897  0.00  0.00    +0.379 N 
ATOM     24  C   UNL     1      27.485  97.324  21.069  0.00  0.00    -0.096 C 
ATOM     25  H   UNL     1      28.965  96.270  20.020  0.00  0.00    -0.082 HD
ATOM     26  C   UNL     1      27.110  95.232  19.759  0.00  0.00    -0.064 C 
ATOM     27  C   UNL     1      27.583  94.435  18.511  0.00  0.00    +0.066 C 
ENDBRANCH  19  20
ENDBRANCH  18  19
ENDBRANCH  14  15
ENDBRANCH  12  13
TORSDOF 6
ENDMDL
