MODEL 1
REMARK VINA RESULT:      -8.0      0.000      0.000
REMARK  Name = C:\Users\Docking\Desktop\test protocol\1iep_ligandH.pdb
REMARK  8 active torsions:
REMARK  status: ('A' for Active; 'I' for Inactive)
REMARK    1  A    between atoms: _5  and  _11
REMARK    2  A    between atoms: _19  and  _21
REMARK    3  A    between atoms: _22  and  _66
REMARK    4  A    between atoms: _27  and  _30
REMARK    5  A    between atoms: _32  and  _33
REMARK    6  A    between atoms: _38  and  _43
REMARK    7  A    between atoms: _43  and  _46
REMARK    8  A    between atoms: _53  and  _55
REMARK                            x       y       z     vdW  Elec       q    Type
REMARK                         _______ _______ _______ _____ _____    ______ ____
ROOT
ATOM     10  C   UNL     1      -3.241   8.602   0.998  0.00  0.00    +0.038 A 
ATOM     11  C   UNL     1      -3.983   9.346   1.951  0.00  0.00    +0.047 A 
ATOM     12  C   UNL     1      -4.350  10.731   1.703  0.00  0.00    +0.035 A 
ATOM     32  C   UNL     1      -3.946  11.327   0.473  0.00  0.00    +0.024 A 
ATOM     33  C   UNL     1      -3.190  10.586  -0.506  0.00  0.00    +0.007 A 
ATOM     34  C   UNL     1      -2.824   9.220  -0.266  0.00  0.00    -0.029 A 
ATOM     35  C   UNL     1      -2.007   8.475  -1.348  0.00  0.00    +0.045 C 
ENDROOT
BRANCH  10   9
ATOM      4  C   UNL     1      -0.388   5.271   2.948  0.00  0.00    +0.077 A 
ATOM      5  C   UNL     1       0.549   6.256   3.406  0.00  0.00    +0.048 A 
ATOM      6  C   UNL     1       0.264   7.609   3.112  0.00  0.00    +0.116 A 
ATOM      7  N   UNL     1      -0.877   7.939   2.414  0.00  0.00    -0.223 NA
ATOM      8  C   UNL     1      -1.759   6.964   1.985  0.00  0.00    +0.220 A 
ATOM      9  N   UNL     1      -2.916   7.274   1.288  0.00  0.00    -0.283 N 
ATOM     36  H   UNL     1      -3.537   6.525   0.983  0.00  0.00    +0.155 HD
ATOM     37  N   UNL     1      -1.508   5.665   2.252  0.00  0.00    -0.214 NA
BRANCH   4   3
ATOM      1  C   UNL     1      -0.592   1.698   4.529  0.00  0.00    +0.020 A 
ATOM      2  C   UNL     1      -0.776   3.120   4.349  0.00  0.00    +0.013 A 
ATOM      3  C   UNL     1      -0.227   3.801   3.183  0.00  0.00    +0.019 A 
ATOM     38  C   UNL     1       0.508   3.008   2.209  0.00  0.00    +0.120 A 
ATOM     39  N   UNL     1       0.670   1.640   2.409  0.00  0.00    -0.263 NA
ATOM     40  C   UNL     1       0.147   0.975   3.528  0.00  0.00    +0.111 A 
ENDBRANCH   4   3
ENDBRANCH  10   9
BRANCH  12  13
ATOM     13  N   UNL     1      -5.095  11.539   2.637  0.00  0.00    -0.281 N 
ATOM     14  C   UNL     1      -4.643  12.615   3.382  0.00  0.00    +0.248 C 
ATOM     30  O   UNL     1      -3.466  12.915   3.520  0.00  0.00    -0.270 OA
ATOM     31  H   UNL     1      -6.076  11.286   2.763  0.00  0.00    +0.155 HD
BRANCH  14  15
ATOM     15  C   UNL     1      -5.641  13.475   4.089  0.00  0.00    +0.037 A 
ATOM     16  C   UNL     1      -5.396  14.903   4.306  0.00  0.00    +0.013 A 
ATOM     17  C   UNL     1      -6.368  15.705   5.005  0.00  0.00    +0.005 A 
ATOM     18  C   UNL     1      -7.596  15.081   5.491  0.00  0.00    -0.033 A 
ATOM     28  C   UNL     1      -7.816  13.663   5.258  0.00  0.00    +0.005 A 
ATOM     29  C   UNL     1      -6.865  12.873   4.574  0.00  0.00    +0.013 A 
BRANCH  18  19
ATOM     19  C   UNL     1      -8.678  15.856   6.266  0.00  0.00    +0.119 C 
BRANCH  19  20
ATOM     20  N   UNL     1      -9.669  15.053   7.044  0.00  0.00    -0.302 NA
ATOM     21  C   UNL     1     -11.112  15.409   6.675  0.00  0.00    +0.066 C 
ATOM     22  C   UNL     1     -12.136  14.544   7.481  0.00  0.00    -0.064 C 
ATOM     23  N   UNL     1     -11.896  14.740   8.979  0.00  0.00    +0.379 N 
ATOM     24  C   UNL     1     -12.893  13.974   9.740  0.00  0.00    -0.096 C 
ATOM     25  H   UNL     1     -12.052  15.820   9.208  0.00  0.00    -0.082 HD
ATOM     26  C   UNL     1     -10.462  14.391   9.354  0.00  0.00    -0.064 C 
ATOM     27  C   UNL     1      -9.453  15.235   8.526  0.00  0.00    +0.066 C 
ENDBRANCH  19  20
ENDBRANCH  18  19
ENDBRANCH  14  15
ENDBRANCH  12  13
TORSDOF 6
ENDMDL
MODEL 2
REMARK VINA RESULT:      -7.9      5.483     10.019
REMARK  Name = C:\Users\Docking\Desktop\test protocol\1iep_ligandH.pdb
REMARK  8 active torsions:
REMARK  status: ('A' for Active; 'I' for Inactive)
REMARK    1  A    between atoms: _5  and  _11
REMARK    2  A    between atoms: _19  and  _21
REMARK    3  A    between atoms: _22  and  _66
REMARK    4  A    between atoms: _27  and  _30
REMARK    5  A    between atoms: _32  and  _33
REMARK    6  A    between atoms: _38  and  _43
REMARK    7  A    between atoms: _43  and  _46
REMARK    8  A    between atoms: _53  and  _55
REMARK                            x       y       z     vdW  Elec       q    Type
REMARK                         _______ _______ _______ _____ _____    ______ ____
ROOT
ATOM     10  C   UNL     1      -9.020  14.635   5.562  0.00  0.00    +0.038 A 
ATOM     11  C   UNL     1      -9.478  13.821   6.629  0.00  0.00    +0.047 A 
ATOM     12  C   UNL     1     -10.136  14.402   7.789  0.00  0.00    +0.035 A 
ATOM     32  C   UNL     1     -10.314  15.815   7.828  0.00  0.00    +0.024 A 
ATOM     33  C   UNL     1      -9.854  16.658   6.752  0.00  0.00    +0.007 A 
ATOM     34  C   UNL     1      -9.202  16.091   5.606  0.00  0.00    -0.029 A 
ATOM     35  C   UNL     1      -8.723  17.043   4.485  0.00  0.00    +0.045 C 
ENDROOT
BRANCH  10   9
ATOM      4  C   UNL     1      -5.106  13.418   3.064  0.00  0.00    +0.077 A 
ATOM      5  C   UNL     1      -4.235  14.078   3.994  0.00  0.00    +0.048 A 
ATOM      6  C   UNL     1      -4.835  14.724   5.098  0.00  0.00    +0.116 A 
ATOM      7  N   UNL     1      -6.205  14.706   5.251  0.00  0.00    -0.223 NA
ATOM      8  C   UNL     1      -7.016  14.062   4.334  0.00  0.00    +0.220 A 
ATOM      9  N   UNL     1      -8.395  14.025   4.472  0.00  0.00    -0.283 N 
ATOM     36  H   UNL     1      -8.959  13.546   3.770  0.00  0.00    +0.155 HD
ATOM     37  N   UNL     1      -6.467  13.439   3.271  0.00  0.00    -0.214 NA
BRANCH   4   3
ATOM      1  C   UNL     1      -2.815  11.600   0.466  0.00  0.00    +0.020 A 
ATOM      2  C   UNL     1      -3.230  12.304   1.658  0.00  0.00    +0.013 A 
ATOM      3  C   UNL     1      -4.623  12.689   1.849  0.00  0.00    +0.019 A 
ATOM     38  C   UNL     1      -5.579  12.342   0.808  0.00  0.00    +0.120 A 
ATOM     39  N   UNL     1      -5.150  11.665  -0.329  0.00  0.00    -0.263 NA
ATOM     40  C   UNL     1      -3.812  11.291  -0.525  0.00  0.00    +0.111 A 
ENDBRANCH   4   3
ENDBRANCH  10   9
BRANCH  12  13
ATOM     13  N   UNL     1     -10.615  13.626   8.907  0.00  0.00    -0.281 N 
ATOM     14  C   UNL     1     -11.685  12.747   8.937  0.00  0.00    +0.248 C 
ATOM     30  O   UNL     1     -12.529  12.655   8.058  0.00  0.00    -0.270 OA
ATOM     31  H   UNL     1     -10.103  13.739   9.781  0.00  0.00    +0.155 HD
BRANCH  14  15
ATOM     15  C   UNL     1     -11.849  11.851  10.122  0.00  0.00    +0.037 A 
ATOM     16  C   UNL     1     -12.337  12.367  11.404  0.00  0.00    +0.013 A 
ATOM     17  C   UNL     1     -12.470  11.484  12.535  0.00  0.00    +0.005 A 
ATOM     18  C   UNL     1     -12.116  10.074  12.389  0.00  0.00    -0.033 A 
ATOM     28  C   UNL     1     -11.640   9.588  11.105  0.00  0.00    +0.005 A 
ATOM     29  C   UNL     1     -11.508  10.450   9.994  0.00  0.00    +0.013 A 
BRANCH  18  19
ATOM     19  C   UNL     1     -12.207   9.064  13.549  0.00  0.00    +0.119 C 
BRANCH  19  20
ATOM     20  N   UNL     1     -10.974   8.846  14.363  0.00  0.00    -0.302 NA
ATOM     21  C   UNL     1     -10.267   7.538  13.996  0.00  0.00    +0.066 C 
ATOM     22  C   UNL     1      -8.968   7.337  14.841  0.00  0.00    -0.064 C 
ATOM     23  N   UNL     1      -9.322   7.361  16.329  0.00  0.00    +0.379 N 
ATOM     24  C   UNL     1      -8.111   7.114  17.126  0.00  0.00    -0.096 C 
ATOM     25  H   UNL     1     -10.031   6.523  16.522  0.00  0.00    -0.082 HD
ATOM     26  C   UNL     1     -10.027   8.657  16.702  0.00  0.00    -0.064 C 
ATOM     27  C   UNL     1     -11.301   8.863  15.836  0.00  0.00    +0.066 C 
ENDBRANCH  19  20
ENDBRANCH  18  19
ENDBRANCH  14  15
ENDBRANCH  12  13
TORSDOF 6
ENDMDL
MODEL 3
REMARK VINA RESULT:      -7.9     10.830     17.794
REMARK  Name = C:\Users\Docking\Desktop\test protocol\1iep_ligandH.pdb
REMARK  8 active torsions:
REMARK  status: ('A' for Active; 'I' for Inactive)
REMARK    1  A    between atoms: _5  and  _11
REMARK    2  A    between atoms: _19  and  _21
REMARK    3  A    between atoms: _22  and  _66
REMARK    4  A    between atoms: _27  and  _30
REMARK    5  A    between atoms: _32  and  _33
REMARK    6  A    between atoms: _38  and  _43
REMARK    7  A    between atoms: _43  and  _46
REMARK    8  A    between atoms: _53  and  _55
REMARK                            x       y       z     vdW  Elec       q    Type
REMARK                         _______ _______ _______ _____ _____    ______ ____
ROOT
ATOM     10  C   UNL     1     -10.447  23.639  -2.643  0.00  0.00    +0.038 A 
ATOM     11  C   UNL     1     -10.257  22.545  -1.760  0.00  0.00    +0.047 A 
ATOM     12  C   UNL     1      -9.881  21.232  -2.260  0.00  0.00    +0.035 A 
ATOM     32  C   UNL     1      -9.703  21.069  -3.665  0.00  0.00    +0.024 A 
ATOM     33  C   UNL     1      -9.893  22.170  -4.576  0.00  0.00    +0.007 A 
ATOM     34  C   UNL     1     -10.267  23.467  -4.089  0.00  0.00    -0.029 A 
ATOM     35  C   UNL     1     -10.464  24.609  -5.113  0.00  0.00    +0.045 C 
ENDROOT
BRANCH  10   9
ATOM      4  C   UNL     1     -13.713  26.967  -1.504  0.00  0.00    +0.077 A 
ATOM      5  C   UNL     1     -14.787  26.183  -2.042  0.00  0.00    +0.048 A 
ATOM      6  C   UNL     1     -14.455  24.932  -2.610  0.00  0.00    +0.116 A 
ATOM      7  N   UNL     1     -13.145  24.507  -2.632  0.00  0.00    -0.223 NA
ATOM      8  C   UNL     1     -12.133  25.289  -2.105  0.00  0.00    +0.220 A 
ATOM      9  N   UNL     1     -10.809  24.878  -2.109  0.00  0.00    -0.283 N 
ATOM     36  H   UNL     1     -10.091  25.487  -1.717  0.00  0.00    +0.155 HD
ATOM     37  N   UNL     1     -12.423  26.488  -1.559  0.00  0.00    -0.214 NA
BRANCH   4   3
ATOM      1  C   UNL     1     -14.962  30.596  -0.746  0.00  0.00    +0.020 A 
ATOM      2  C   UNL     1     -14.814  29.315  -1.399  0.00  0.00    +0.013 A 
ATOM      3  C   UNL     1     -13.903  28.309  -0.868  0.00  0.00    +0.019 A 
ATOM     38  C   UNL     1     -13.152  28.632   0.336  0.00  0.00    +0.120 A 
ATOM     39  N   UNL     1     -13.313  29.874   0.942  0.00  0.00    -0.263 NA
ATOM     40  C   UNL     1     -14.185  30.851   0.439  0.00  0.00    +0.111 A 
ENDBRANCH   4   3
ENDBRANCH  10   9
BRANCH  12  13
ATOM     13  N   UNL     1      -9.682  20.082  -1.413  0.00  0.00    -0.281 N 
ATOM     14  C   UNL     1      -8.825  19.013  -1.616  0.00  0.00    +0.248 C 
ATOM     30  O   UNL     1      -8.253  18.776  -2.669  0.00  0.00    -0.270 OA
ATOM     31  H   UNL     1     -10.240  20.053  -0.560  0.00  0.00    +0.155 HD
BRANCH  14  15
ATOM     15  C   UNL     1      -8.581  18.059  -0.491  0.00  0.00    +0.037 A 
ATOM     16  C   UNL     1      -9.692  17.469   0.259  0.00  0.00    +0.013 A 
ATOM     17  C   UNL     1      -9.428  16.565   1.351  0.00  0.00    +0.005 A 
ATOM     18  C   UNL     1      -8.045  16.246   1.698  0.00  0.00    -0.033 A 
ATOM     28  C   UNL     1      -6.962  16.842   0.934  0.00  0.00    +0.005 A 
ATOM     29  C   UNL     1      -7.217  17.729  -0.136  0.00  0.00    +0.013 A 
BRANCH  18  19
ATOM     19  C   UNL     1      -7.669  15.309   2.861  0.00  0.00    +0.119 C 
BRANCH  19  20
ATOM     20  N   UNL     1      -8.535  15.348   4.078  0.00  0.00    -0.302 NA
ATOM     21  C   UNL     1      -8.342  16.640   4.878  0.00  0.00    +0.066 C 
ATOM     22  C   UNL     1      -9.271  16.674   6.135  0.00  0.00    -0.064 C 
ATOM     23  N   UNL     1      -8.990  15.449   7.007  0.00  0.00    +0.379 N 
ATOM     24  C   UNL     1      -9.821  15.509   8.219  0.00  0.00    -0.096 C 
ATOM     25  H   UNL     1      -7.923  15.499   7.326  0.00  0.00    -0.082 HD
ATOM     26  C   UNL     1      -9.177  14.161   6.219  0.00  0.00    -0.064 C 
ATOM     27  C   UNL     1      -8.271  14.150   4.956  0.00  0.00    +0.066 C 
ENDBRANCH  19  20
ENDBRANCH  18  19
ENDBRANCH  14  15
ENDBRANCH  12  13
TORSDOF 6
ENDMDL
MODEL 4
REMARK VINA RESULT:      -7.8     10.226     14.611
REMARK  Name = C:\Users\Docking\Desktop\test protocol\1iep_ligandH.pdb
REMARK  8 active torsions:
REMARK  status: ('A' for Active; 'I' for Inactive)
REMARK    1  A    between atoms: _5  and  _11
REMARK    2  A    between atoms: _19  and  _21
REMARK    3  A    between atoms: _22  and  _66
REMARK    4  A    between atoms: _27  and  _30
REMARK    5  A    between atoms: _32  and  _33
REMARK    6  A    between atoms: _38  and  _43
REMARK    7  A    between atoms: _43  and  _46
REMARK    8  A    between atoms: _53  and  _55
REMARK                            x       y       z     vdW  Elec       q    Type
REMARK                         _______ _______ _______ _____ _____    ______ ____
ROOT
ATOM     10  C   UNL     1     -11.045  16.387   0.603  0.00  0.00    +0.038 A 
ATOM     11  C   UNL     1     -11.044  17.745   0.195  0.00  0.00    +0.047 A 
ATOM     12  C   UNL     1     -10.749  18.118  -1.180  0.00  0.00    +0.035 A 
ATOM     32  C   UNL     1     -10.462  17.080  -2.114  0.00  0.00    +0.024 A 
ATOM     33  C   UNL     1     -10.457  15.694  -1.716  0.00  0.00    +0.007 A 
ATOM     34  C   UNL     1     -10.745  15.321  -0.361  0.00  0.00    -0.029 A 
ATOM     35  C   UNL     1     -10.720  13.820   0.011  0.00  0.00    +0.045 C 
ENDROOT
BRANCH  10   9
ATOM      4  C   UNL     1      -9.727  15.641   5.158  0.00  0.00    +0.077 A 
ATOM      5  C   UNL     1      -8.340  15.841   4.851  0.00  0.00    +0.048 A 
ATOM      6  C   UNL     1      -8.007  16.126   3.508  0.00  0.00    +0.116 A 
ATOM      7  N   UNL     1      -8.995  16.205   2.551  0.00  0.00    -0.223 NA
ATOM      8  C   UNL     1     -10.324  16.005   2.880  0.00  0.00    +0.220 A 
ATOM      9  N   UNL     1     -11.335  16.086   1.936  0.00  0.00    -0.283 N 
ATOM     36  H   UNL     1     -12.302  15.925   2.217  0.00  0.00    +0.155 HD
ATOM     37  N   UNL     1     -10.667  15.729   4.156  0.00  0.00    -0.214 NA
BRANCH   4   3
ATOM      1  C   UNL     1      -9.915  14.970   9.007  0.00  0.00    +0.020 A 
ATOM      2  C   UNL     1      -9.371  15.269   7.702  0.00  0.00    +0.013 A 
ATOM      3  C   UNL     1     -10.237  15.335   6.531  0.00  0.00    +0.019 A 
ATOM     38  C   UNL     1     -11.660  15.092   6.717  0.00  0.00    +0.120 A 
ATOM     39  N   UNL     1     -12.155  14.805   7.986  0.00  0.00    -0.263 NA
ATOM     40  C   UNL     1     -11.331  14.737   9.119  0.00  0.00    +0.111 A 
ENDBRANCH   4   3
ENDBRANCH  10   9
BRANCH  12  13
ATOM     13  N   UNL     1     -10.725  19.480  -1.651  0.00  0.00    -0.281 N 
ATOM     14  C   UNL     1      -9.632  20.325  -1.759  0.00  0.00    +0.248 C 
ATOM     30  O   UNL     1      -8.537  20.105  -1.264  0.00  0.00    -0.270 OA
ATOM     31  H   UNL     1     -11.623  19.870  -1.939  0.00  0.00    +0.155 HD
BRANCH  14  15
ATOM     15  C   UNL     1      -9.782  21.606  -2.515  0.00  0.00    +0.037 A 
ATOM     16  C   UNL     1      -9.924  22.887  -1.818  0.00  0.00    +0.013 A 
ATOM     17  C   UNL     1     -10.083  24.106  -2.571  0.00  0.00    +0.005 A 
ATOM     18  C   UNL     1     -10.101  24.049  -4.031  0.00  0.00    -0.033 A 
ATOM     28  C   UNL     1      -9.953  22.765  -4.696  0.00  0.00    +0.005 A 
ATOM     29  C   UNL     1      -9.797  21.568  -3.961  0.00  0.00    +0.013 A 
BRANCH  18  19
ATOM     19  C   UNL     1     -10.288  25.296  -4.914  0.00  0.00    +0.119 C 
BRANCH  19  20
ATOM     20  N   UNL     1     -10.197  25.107  -6.393  0.00  0.00    -0.302 NA
ATOM     21  C   UNL     1      -9.148  26.024  -7.026  0.00  0.00    +0.066 C 
ATOM     22  C   UNL     1      -9.051  25.797  -8.570  0.00  0.00    -0.064 C 
ATOM     23  N   UNL     1     -10.424  26.026  -9.204  0.00  0.00    +0.379 N 
ATOM     24  C   UNL     1     -10.323  25.870 -10.662  0.00  0.00    -0.096 C 
ATOM     25  H   UNL     1     -10.721  27.080  -8.996  0.00  0.00    -0.082 HD
ATOM     26  C   UNL     1     -11.474  25.119  -8.578  0.00  0.00    -0.064 C 
ATOM     27  C   UNL     1     -11.542  25.332  -7.040  0.00  0.00    +0.066 C 
ENDBRANCH  19  20
ENDBRANCH  18  19
ENDBRANCH  14  15
ENDBRANCH  12  13
TORSDOF 6
ENDMDL
MODEL 5
REMARK VINA RESULT:      -7.7      8.319     12.879
REMARK  Name = C:\Users\Docking\Desktop\test protocol\1iep_ligandH.pdb
REMARK  8 active torsions:
REMARK  status: ('A' for Active; 'I' for Inactive)
REMARK    1  A    between atoms: _5  and  _11
REMARK    2  A    between atoms: _19  and  _21
REMARK    3  A    between atoms: _22  and  _66
REMARK    4  A    between atoms: _27  and  _30
REMARK    5  A    between atoms: _32  and  _33
REMARK    6  A    between atoms: _38  and  _43
REMARK    7  A    between atoms: _43  and  _46
REMARK    8  A    between atoms: _53  and  _55
REMARK                            x       y       z     vdW  Elec       q    Type
REMARK                         _______ _______ _______ _____ _____    ______ ____
ROOT
ATOM     10  C   UNL     1      -7.320  17.707   0.343  0.00  0.00    +0.038 A 
ATOM     11  C   UNL     1      -7.942  17.294   1.549  0.00  0.00    +0.047 A 
ATOM     12  C   UNL     1      -7.631  16.007   2.152  0.00  0.00    +0.035 A 
ATOM     32  C   UNL     1      -6.680  15.168   1.502  0.00  0.00    +0.024 A 
ATOM     33  C   UNL     1      -6.040  15.572   0.275  0.00  0.00    +0.007 A 
ATOM     34  C   UNL     1      -6.344  16.839  -0.326  0.00  0.00    -0.029 A 
ATOM     35  C   UNL     1      -5.632  17.218  -1.646  0.00  0.00    +0.045 C 
ENDROOT
BRANCH  10   9
ATOM      4  C   UNL     1     -10.085  20.543  -2.369  0.00  0.00    +0.077 A 
ATOM      5  C   UNL     1     -10.915  19.446  -2.775  0.00  0.00    +0.048 A 
ATOM      6  C   UNL     1     -10.592  18.167  -2.269  0.00  0.00    +0.116 A 
ATOM      7  N   UNL     1      -9.517  18.008  -1.421  0.00  0.00    -0.223 NA
ATOM      8  C   UNL     1      -8.736  19.088  -1.051  0.00  0.00    +0.220 A 
ATOM      9  N   UNL     1      -7.656  18.953  -0.193  0.00  0.00    -0.283 N 
ATOM     36  H   UNL     1      -7.100  19.772   0.050  0.00  0.00    +0.155 HD
ATOM     37  N   UNL     1      -9.023  20.319  -1.521  0.00  0.00    -0.214 NA
BRANCH   4   3
ATOM      1  C   UNL     1     -10.284  24.449  -2.434  0.00  0.00    +0.020 A 
ATOM      2  C   UNL     1     -10.061  23.105  -1.953  0.00  0.00    +0.013 A 
ATOM      3  C   UNL     1     -10.299  21.956  -2.816  0.00  0.00    +0.019 A 
ATOM     38  C   UNL     1     -10.766  22.202  -4.172  0.00  0.00    +0.120 A 
ATOM     39  N   UNL     1     -10.973  23.508  -4.608  0.00  0.00    -0.263 NA
ATOM     40  C   UNL     1     -10.749  24.622  -3.785  0.00  0.00    +0.111 A 
ENDBRANCH   4   3
ENDBRANCH  10   9
BRANCH  12  13
ATOM     13  N   UNL     1      -8.236  15.530   3.371  0.00  0.00    -0.281 N 
ATOM     14  C   UNL     1      -7.778  15.689   4.668  0.00  0.00    +0.248 C 
ATOM     30  O   UNL     1      -6.660  16.086   4.963  0.00  0.00    -0.270 OA
ATOM     31  H   UNL     1      -9.108  15.011   3.264  0.00  0.00    +0.155 HD
BRANCH  14  15
ATOM     15  C   UNL     1      -8.689  15.346   5.803  0.00  0.00    +0.037 A 
ATOM     16  C   UNL     1      -8.971  13.952   6.155  0.00  0.00    +0.013 A 
ATOM     17  C   UNL     1      -9.866  13.648   7.243  0.00  0.00    +0.005 A 
ATOM     18  C   UNL     1     -10.485  14.741   7.989  0.00  0.00    -0.033 A 
ATOM     28  C   UNL     1     -10.183  16.115   7.621  0.00  0.00    +0.005 A 
ATOM     29  C   UNL     1      -9.307  16.417   6.555  0.00  0.00    +0.013 A 
BRANCH  18  19
ATOM     19  C   UNL     1     -11.469  14.510   9.151  0.00  0.00    +0.119 C 
BRANCH  19  20
ATOM     20  N   UNL     1     -11.673  13.102   9.604  0.00  0.00    -0.302 NA
ATOM     21  C   UNL     1     -13.014  12.535   9.130  0.00  0.00    +0.066 C 
ATOM     22  C   UNL     1     -13.201  11.053   9.593  0.00  0.00    -0.064 C 
ATOM     23  N   UNL     1     -13.091  10.981  11.117  0.00  0.00    +0.379 N 
ATOM     24  C   UNL     1     -13.324   9.599  11.561  0.00  0.00    -0.096 C 
ATOM     25  H   UNL     1     -13.902  11.615  11.545  0.00  0.00    -0.082 HD
ATOM     26  C   UNL     1     -11.761  11.546  11.597  0.00  0.00    -0.064 C 
ATOM     27  C   UNL     1     -11.572  13.008  11.106  0.00  0.00    +0.066 C 
ENDBRANCH  19  20
ENDBRANCH  18  19
ENDBRANCH  14  15
ENDBRANCH  12  13
TORSDOF 6
ENDMDL
