MODEL 1
REMARK VINA RESULT:     -10.4      0.000      0.000
REMARK  Name = C:\Users\Docking\Desktop\test protocol\1iep_ligandH.pdb
REMARK  8 active torsions:
REMARK  status: ('A' for Active; 'I' for Inactive)
REMARK    1  A    between atoms: _5  and  _11
REMARK    2  A    between atoms: _19  and  _21
REMARK    3  A    between atoms: _22  and  _66
REMARK    4  A    between atoms: _27  and  _30
REMARK    5  A    between atoms: _32  and  _33
REMARK    6  A    between atoms: _38  and  _43
REMARK    7  A    between atoms: _43  and  _46
REMARK    8  A    between atoms: _53  and  _55
REMARK                            x       y       z     vdW  Elec       q    Type
REMARK                         _______ _______ _______ _____ _____    ______ ____
ROOT
ATOM     10  C   UNL     1      17.244  34.726  15.589  0.00  0.00    +0.038 A 
ATOM     11  C   UNL     1      16.596  35.616  14.695  0.00  0.00    +0.047 A 
ATOM     12  C   UNL     1      16.596  37.051  14.930  0.00  0.00    +0.035 A 
ATOM     32  C   UNL     1      17.268  37.547  16.085  0.00  0.00    +0.024 A 
ATOM     33  C   UNL     1      17.931  36.657  17.005  0.00  0.00    +0.007 A 
ATOM     34  C   UNL     1      17.933  35.239  16.779  0.00  0.00    -0.029 A 
ATOM     35  C   UNL     1      18.654  34.332  17.802  0.00  0.00    +0.045 C 
ENDROOT
BRANCH  10   9
ATOM      4  C   UNL     1      15.332  30.352  16.085  0.00  0.00    +0.077 A 
ATOM      5  C   UNL     1      14.326  30.830  16.989  0.00  0.00    +0.048 A 
ATOM      6  C   UNL     1      14.340  32.206  17.307  0.00  0.00    +0.116 A 
ATOM      7  N   UNL     1      15.293  33.034  16.755  0.00  0.00    -0.223 NA
ATOM      8  C   UNL     1      16.250  32.541  15.887  0.00  0.00    +0.220 A 
ATOM      9  N   UNL     1      17.213  33.357  15.314  0.00  0.00    -0.283 N 
ATOM     36  H   UNL     1      17.907  32.953  14.685  0.00  0.00    +0.155 HD
ATOM     37  N   UNL     1      16.259  31.230  15.570  0.00  0.00    -0.214 NA
BRANCH   4   3
ATOM      1  C   UNL     1      16.107  27.135  13.999  0.00  0.00    +0.020 A 
ATOM      2  C   UNL     1      16.019  28.528  14.370  0.00  0.00    +0.013 A 
ATOM      3  C   UNL     1      15.447  28.924  15.651  0.00  0.00    +0.019 A 
ATOM     38  C   UNL     1      14.969  27.876  16.541  0.00  0.00    +0.120 A 
ATOM     39  N   UNL     1      15.065  26.542  16.156  0.00  0.00    -0.263 NA
ATOM     40  C   UNL     1      15.613  26.150  14.925  0.00  0.00    +0.111 A 
ENDBRANCH   4   3
ENDBRANCH  10   9
BRANCH  12  13
ATOM     13  N   UNL     1      15.948  38.003  14.062  0.00  0.00    -0.281 N 
ATOM     14  C   UNL     1      16.443  38.571  12.900  0.00  0.00    +0.248 C 
ATOM     30  O   UNL     1      17.611  38.508  12.543  0.00  0.00    -0.270 OA
ATOM     31  H   UNL     1      15.009  38.292  14.337  0.00  0.00    +0.155 HD
BRANCH  14  15
ATOM     15  C   UNL     1      15.511  39.330  12.012  0.00  0.00    +0.037 A 
ATOM     16  C   UNL     1      15.222  38.878  10.649  0.00  0.00    +0.013 A 
ATOM     17  C   UNL     1      14.332  39.639   9.808  0.00  0.00    +0.005 A 
ATOM     18  C   UNL     1      13.723  40.860  10.330  0.00  0.00    -0.033 A 
ATOM     28  C   UNL     1      14.023  41.283  11.688  0.00  0.00    +0.005 A 
ATOM     29  C   UNL     1      14.896  40.540  12.514  0.00  0.00    +0.013 A 
BRANCH  18  19
ATOM     19  C   UNL     1      12.778  41.745   9.496  0.00  0.00    +0.119 C 
BRANCH  19  20
ATOM     20  N   UNL     1      11.317  41.443   9.567  0.00  0.00    -0.302 NA
ATOM     21  C   UNL     1      10.924  40.288   8.642  0.00  0.00    +0.066 C 
ATOM     22  C   UNL     1       9.397  39.970   8.746  0.00  0.00    -0.064 C 
ATOM     23  N   UNL     1       8.593  41.229   8.413  0.00  0.00    +0.379 N 
ATOM     24  C   UNL     1       7.157  40.918   8.454  0.00  0.00    -0.096 C 
ATOM     25  H   UNL     1       8.846  41.525   7.369  0.00  0.00    -0.082 HD
ATOM     26  C   UNL     1       8.980  42.383   9.327  0.00  0.00    -0.064 C 
ATOM     27  C   UNL     1      10.505  42.671   9.238  0.00  0.00    +0.066 C 
ENDBRANCH  19  20
ENDBRANCH  18  19
ENDBRANCH  14  15
ENDBRANCH  12  13
TORSDOF 6
ENDMDL
MODEL 2
REMARK VINA RESULT:     -10.0      4.402      7.038
REMARK  Name = C:\Users\Docking\Desktop\test protocol\1iep_ligandH.pdb
REMARK  8 active torsions:
REMARK  status: ('A' for Active; 'I' for Inactive)
REMARK    1  A    between atoms: _5  and  _11
REMARK    2  A    between atoms: _19  and  _21
REMARK    3  A    between atoms: _22  and  _66
REMARK    4  A    between atoms: _27  and  _30
REMARK    5  A    between atoms: _32  and  _33
REMARK    6  A    between atoms: _38  and  _43
REMARK    7  A    between atoms: _43  and  _46
REMARK    8  A    between atoms: _53  and  _55
REMARK                            x       y       z     vdW  Elec       q    Type
REMARK                         _______ _______ _______ _____ _____    ______ ____
ROOT
ATOM     10  C   UNL     1      17.278  37.684  16.951  0.00  0.00    +0.038 A 
ATOM     11  C   UNL     1      16.571  38.546  16.075  0.00  0.00    +0.047 A 
ATOM     12  C   UNL     1      16.139  38.095  14.761  0.00  0.00    +0.035 A 
ATOM     32  C   UNL     1      16.444  36.757  14.373  0.00  0.00    +0.024 A 
ATOM     33  C   UNL     1      17.163  35.868  15.251  0.00  0.00    +0.007 A 
ATOM     34  C   UNL     1      17.593  36.308  16.547  0.00  0.00    -0.029 A 
ATOM     35  C   UNL     1      18.366  35.314  17.444  0.00  0.00    +0.045 C 
ENDROOT
BRANCH  10   9
ATOM      4  C   UNL     1      16.531  38.386  21.640  0.00  0.00    +0.077 A 
ATOM      5  C   UNL     1      15.243  37.756  21.590  0.00  0.00    +0.048 A 
ATOM      6  C   UNL     1      14.807  37.271  20.336  0.00  0.00    +0.116 A 
ATOM      7  N   UNL     1      15.607  37.411  19.223  0.00  0.00    -0.223 NA
ATOM      8  C   UNL     1      16.843  38.025  19.306  0.00  0.00    +0.220 A 
ATOM      9  N   UNL     1      17.668  38.169  18.201  0.00  0.00    -0.283 N 
ATOM     36  H   UNL     1      18.569  38.635  18.302  0.00  0.00    +0.155 HD
ATOM     37  N   UNL     1      17.282  38.498  20.491  0.00  0.00    -0.214 NA
BRANCH   4   3
ATOM      1  C   UNL     1      19.013  40.027  24.179  0.00  0.00    +0.020 A 
ATOM      2  C   UNL     1      18.480  39.498  22.945  0.00  0.00    +0.013 A 
ATOM      3  C   UNL     1      17.132  38.946  22.892  0.00  0.00    +0.019 A 
ATOM     38  C   UNL     1      16.343  38.945  24.115  0.00  0.00    +0.120 A 
ATOM     39  N   UNL     1      16.884  39.460  25.289  0.00  0.00    -0.263 NA
ATOM     40  C   UNL     1      18.180  39.992  25.352  0.00  0.00    +0.111 A 
ENDBRANCH   4   3
ENDBRANCH  10   9
BRANCH  12  13
ATOM     13  N   UNL     1      15.425  38.927  13.825  0.00  0.00    -0.281 N 
ATOM     14  C   UNL     1      15.827  39.325  12.561  0.00  0.00    +0.248 C 
ATOM     30  O   UNL     1      16.961  39.199  12.124  0.00  0.00    -0.270 OA
ATOM     31  H   UNL     1      14.513  39.264  14.133  0.00  0.00    +0.155 HD
BRANCH  14  15
ATOM     15  C   UNL     1      14.827  39.969  11.655  0.00  0.00    +0.037 A 
ATOM     16  C   UNL     1      13.996  41.086  12.112  0.00  0.00    +0.013 A 
ATOM     17  C   UNL     1      13.028  41.678  11.224  0.00  0.00    +0.005 A 
ATOM     18  C   UNL     1      12.886  41.154   9.867  0.00  0.00    -0.033 A 
ATOM     28  C   UNL     1      13.727  40.048   9.438  0.00  0.00    +0.005 A 
ATOM     29  C   UNL     1      14.676  39.465  10.307  0.00  0.00    +0.013 A 
BRANCH  18  19
ATOM     19  C   UNL     1      11.864  41.710   8.858  0.00  0.00    +0.119 C 
BRANCH  19  20
ATOM     20  N   UNL     1      10.420  41.622   9.229  0.00  0.00    -0.302 NA
ATOM     21  C   UNL     1       9.758  40.362   8.667  0.00  0.00    +0.066 C 
ATOM     22  C   UNL     1       8.253  40.275   9.083  0.00  0.00    -0.064 C 
ATOM     23  N   UNL     1       7.521  41.530   8.605  0.00  0.00    +0.379 N 
ATOM     24  C   UNL     1       6.095  41.425   8.944  0.00  0.00    -0.096 C 
ATOM     25  H   UNL     1       7.603  41.566   7.494  0.00  0.00    -0.082 HD
ATOM     26  C   UNL     1       8.175  42.788   9.158  0.00  0.00    -0.064 C 
ATOM     27  C   UNL     1       9.677  42.850   8.763  0.00  0.00    +0.066 C 
ENDBRANCH  19  20
ENDBRANCH  18  19
ENDBRANCH  14  15
ENDBRANCH  12  13
TORSDOF 6
ENDMDL
MODEL 3
REMARK VINA RESULT:      -9.9      2.875     11.776
REMARK  Name = C:\Users\Docking\Desktop\test protocol\1iep_ligandH.pdb
REMARK  8 active torsions:
REMARK  status: ('A' for Active; 'I' for Inactive)
REMARK    1  A    between atoms: _5  and  _11
REMARK    2  A    between atoms: _19  and  _21
REMARK    3  A    between atoms: _22  and  _66
REMARK    4  A    between atoms: _27  and  _30
REMARK    5  A    between atoms: _32  and  _33
REMARK    6  A    between atoms: _38  and  _43
REMARK    7  A    between atoms: _43  and  _46
REMARK    8  A    between atoms: _53  and  _55
REMARK                            x       y       z     vdW  Elec       q    Type
REMARK                         _______ _______ _______ _____ _____    ______ ____
ROOT
ATOM     10  C   UNL     1      17.063  36.226  15.883  0.00  0.00    +0.038 A 
ATOM     11  C   UNL     1      16.724  34.859  15.714  0.00  0.00    +0.047 A 
ATOM     12  C   UNL     1      17.314  33.828  16.553  0.00  0.00    +0.035 A 
ATOM     32  C   UNL     1      18.245  34.225  17.557  0.00  0.00    +0.024 A 
ATOM     33  C   UNL     1      18.601  35.609  17.743  0.00  0.00    +0.007 A 
ATOM     34  C   UNL     1      18.024  36.631  16.917  0.00  0.00    -0.029 A 
ATOM     35  C   UNL     1      18.448  38.098  17.156  0.00  0.00    +0.045 C 
ENDROOT
BRANCH  10   9
ATOM      4  C   UNL     1      16.862  38.748  11.804  0.00  0.00    +0.077 A 
ATOM      5  C   UNL     1      18.063  38.144  11.303  0.00  0.00    +0.048 A 
ATOM      6  C   UNL     1      18.706  37.194  12.128  0.00  0.00    +0.116 A 
ATOM      7  N   UNL     1      18.178  36.880  13.362  0.00  0.00    -0.223 NA
ATOM      8  C   UNL     1      17.019  37.482  13.816  0.00  0.00    +0.220 A 
ATOM      9  N   UNL     1      16.466  37.175  15.050  0.00  0.00    -0.283 N 
ATOM     36  H   UNL     1      15.614  37.646  15.352  0.00  0.00    +0.155 HD
ATOM     37  N   UNL     1      16.387  38.393  13.047  0.00  0.00    -0.214 NA
BRANCH   4   3
ATOM      1  C   UNL     1      15.649  42.112  10.220  0.00  0.00    +0.020 A 
ATOM      2  C   UNL     1      16.452  41.169  10.965  0.00  0.00    +0.013 A 
ATOM      3  C   UNL     1      16.067  39.766  11.048  0.00  0.00    +0.019 A 
ATOM     38  C   UNL     1      14.855  39.346  10.361  0.00  0.00    +0.120 A 
ATOM     39  N   UNL     1      14.101  40.277   9.654  0.00  0.00    -0.263 NA
ATOM     40  C   UNL     1      14.460  41.630   9.568  0.00  0.00    +0.111 A 
ENDBRANCH   4   3
ENDBRANCH  10   9
BRANCH  12  13
ATOM     13  N   UNL     1      17.015  32.424  16.422  0.00  0.00    -0.281 N 
ATOM     14  C   UNL     1      15.796  31.792  16.610  0.00  0.00    +0.248 C 
ATOM     30  O   UNL     1      14.821  32.312  17.130  0.00  0.00    -0.270 OA
ATOM     31  H   UNL     1      17.796  31.822  16.158  0.00  0.00    +0.155 HD
BRANCH  14  15
ATOM     15  C   UNL     1      15.644  30.372  16.168  0.00  0.00    +0.037 A 
ATOM     16  C   UNL     1      15.359  29.304  17.130  0.00  0.00    +0.013 A 
ATOM     17  C   UNL     1      15.234  27.940  16.680  0.00  0.00    +0.005 A 
ATOM     18  C   UNL     1      15.392  27.637  15.260  0.00  0.00    -0.033 A 
ATOM     28  C   UNL     1      15.669  28.716  14.327  0.00  0.00    +0.005 A 
ATOM     29  C   UNL     1      15.794  30.054  14.764  0.00  0.00    +0.013 A 
BRANCH  18  19
ATOM     19  C   UNL     1      15.296  26.208  14.694  0.00  0.00    +0.119 C 
BRANCH  19  20
ATOM     20  N   UNL     1      13.935  25.599  14.602  0.00  0.00    -0.302 NA
ATOM     21  C   UNL     1      12.858  26.643  14.300  0.00  0.00    +0.066 C 
ATOM     22  C   UNL     1      11.444  25.986  14.185  0.00  0.00    -0.064 C 
ATOM     23  N   UNL     1      11.125  25.238  15.482  0.00  0.00    +0.379 N 
ATOM     24  C   UNL     1       9.773  24.668  15.399  0.00  0.00    -0.096 C 
ATOM     25  H   UNL     1      11.128  25.984  16.311  0.00  0.00    -0.082 HD
ATOM     26  C   UNL     1      12.194  24.199  15.791  0.00  0.00    -0.064 C 
ATOM     27  C   UNL     1      13.599  24.859  15.874  0.00  0.00    +0.066 C 
ENDBRANCH  19  20
ENDBRANCH  18  19
ENDBRANCH  14  15
ENDBRANCH  12  13
TORSDOF 6
ENDMDL
MODEL 4
REMARK VINA RESULT:      -9.8      4.543     12.209
REMARK  Name = C:\Users\Docking\Desktop\test protocol\1iep_ligandH.pdb
REMARK  8 active torsions:
REMARK  status: ('A' for Active; 'I' for Inactive)
REMARK    1  A    between atoms: _5  and  _11
REMARK    2  A    between atoms: _19  and  _21
REMARK    3  A    between atoms: _22  and  _66
REMARK    4  A    between atoms: _27  and  _30
REMARK    5  A    between atoms: _32  and  _33
REMARK    6  A    between atoms: _38  and  _43
REMARK    7  A    between atoms: _43  and  _46
REMARK    8  A    between atoms: _53  and  _55
REMARK                            x       y       z     vdW  Elec       q    Type
REMARK                         _______ _______ _______ _____ _____    ______ ____
ROOT
ATOM     10  C   UNL     1      16.607  38.188  11.926  0.00  0.00    +0.038 A 
ATOM     11  C   UNL     1      16.582  37.901  13.314  0.00  0.00    +0.047 A 
ATOM     12  C   UNL     1      17.812  37.667  14.056  0.00  0.00    +0.035 A 
ATOM     32  C   UNL     1      19.049  37.735  13.352  0.00  0.00    +0.024 A 
ATOM     33  C   UNL     1      19.092  38.024  11.940  0.00  0.00    +0.007 A 
ATOM     34  C   UNL     1      17.882  38.254  11.203  0.00  0.00    -0.029 A 
ATOM     35  C   UNL     1      17.988  38.554   9.689  0.00  0.00    +0.045 C 
ENDROOT
BRANCH  10   9
ATOM      4  C   UNL     1      12.926  40.989  10.645  0.00  0.00    +0.077 A 
ATOM      5  C   UNL     1      13.444  42.107  11.380  0.00  0.00    +0.048 A 
ATOM      6  C   UNL     1      14.657  41.918  12.079  0.00  0.00    +0.116 A 
ATOM      7  N   UNL     1      15.295  40.697  12.040  0.00  0.00    -0.223 NA
ATOM      8  C   UNL     1      14.767  39.639  11.323  0.00  0.00    +0.220 A 
ATOM      9  N   UNL     1      15.396  38.405  11.263  0.00  0.00    -0.283 N 
ATOM     36  H   UNL     1      14.971  37.648  10.730  0.00  0.00    +0.155 HD
ATOM     37  N   UNL     1      13.609  39.794  10.648  0.00  0.00    -0.214 NA
BRANCH   4   3
ATOM      1  C   UNL     1       9.639  42.234   8.927  0.00  0.00    +0.020 A 
ATOM      2  C   UNL     1      10.857  42.244   9.704  0.00  0.00    +0.013 A 
ATOM      3  C   UNL     1      11.656  41.034   9.853  0.00  0.00    +0.019 A 
ATOM     38  C   UNL     1      11.191  39.821   9.197  0.00  0.00    +0.120 A 
ATOM     39  N   UNL     1      10.013  39.841   8.457  0.00  0.00    -0.263 NA
ATOM     40  C   UNL     1       9.236  40.999   8.308  0.00  0.00    +0.111 A 
ENDBRANCH   4   3
ENDBRANCH  10   9
BRANCH  12  13
ATOM     13  N   UNL     1      17.848  37.363  15.465  0.00  0.00    -0.281 N 
ATOM     14  C   UNL     1      17.926  36.117  16.066  0.00  0.00    +0.248 C 
ATOM     30  O   UNL     1      17.760  35.057  15.482  0.00  0.00    -0.270 OA
ATOM     31  H   UNL     1      17.813  38.164  16.096  0.00  0.00    +0.155 HD
BRANCH  14  15
ATOM     15  C   UNL     1      18.217  36.039  17.530  0.00  0.00    +0.037 A 
ATOM     16  C   UNL     1      18.911  34.885  18.106  0.00  0.00    +0.013 A 
ATOM     17  C   UNL     1      19.164  34.826  19.524  0.00  0.00    +0.005 A 
ATOM     18  C   UNL     1      18.722  35.928  20.376  0.00  0.00    -0.033 A 
ATOM     28  C   UNL     1      18.040  37.063  19.778  0.00  0.00    +0.005 A 
ATOM     29  C   UNL     1      17.789  37.123  18.388  0.00  0.00    +0.013 A 
BRANCH  18  19
ATOM     19  C   UNL     1      18.930  35.941  21.902  0.00  0.00    +0.119 C 
BRANCH  19  20
ATOM     20  N   UNL     1      18.227  37.004  22.680  0.00  0.00    -0.302 NA
ATOM     21  C   UNL     1      19.208  37.960  23.364  0.00  0.00    +0.066 C 
ATOM     22  C   UNL     1      18.455  39.079  24.154  0.00  0.00    -0.064 C 
ATOM     23  N   UNL     1      17.522  38.435  25.180  0.00  0.00    +0.379 N 
ATOM     24  C   UNL     1      16.856  39.486  25.964  0.00  0.00    -0.096 C 
ATOM     25  H   UNL     1      18.150  37.837  25.881  0.00  0.00    -0.082 HD
ATOM     26  C   UNL     1      16.544  37.482  24.509  0.00  0.00    -0.064 C 
ATOM     27  C   UNL     1      17.302  36.391  23.702  0.00  0.00    +0.066 C 
ENDBRANCH  19  20
ENDBRANCH  18  19
ENDBRANCH  14  15
ENDBRANCH  12  13
TORSDOF 6
ENDMDL
MODEL 5
REMARK VINA RESULT:      -9.5      3.877     12.785
REMARK  Name = C:\Users\Docking\Desktop\test protocol\1iep_ligandH.pdb
REMARK  8 active torsions:
REMARK  status: ('A' for Active; 'I' for Inactive)
REMARK    1  A    between atoms: _5  and  _11
REMARK    2  A    between atoms: _19  and  _21
REMARK    3  A    between atoms: _22  and  _66
REMARK    4  A    between atoms: _27  and  _30
REMARK    5  A    between atoms: _32  and  _33
REMARK    6  A    between atoms: _38  and  _43
REMARK    7  A    between atoms: _43  and  _46
REMARK    8  A    between atoms: _53  and  _55
REMARK                            x       y       z     vdW  Elec       q    Type
REMARK                         _______ _______ _______ _____ _____    ______ ____
ROOT
ATOM     10  C   UNL     1      16.514  34.460  15.927  0.00  0.00    +0.038 A 
ATOM     11  C   UNL     1      15.753  33.344  15.493  0.00  0.00    +0.047 A 
ATOM     12  C   UNL     1      15.905  32.040  16.120  0.00  0.00    +0.035 A 
ATOM     32  C   UNL     1      16.840  31.909  17.187  0.00  0.00    +0.024 A 
ATOM     33  C   UNL     1      17.623  33.032  17.640  0.00  0.00    +0.007 A 
ATOM     34  C   UNL     1      17.479  34.320  17.024  0.00  0.00    -0.029 A 
ATOM     35  C   UNL     1      18.349  35.487  17.545  0.00  0.00    +0.045 C 
ENDROOT
BRANCH  10   9
ATOM      4  C   UNL     1      17.682  37.730  12.613  0.00  0.00    +0.077 A 
ATOM      5  C   UNL     1      18.773  36.934  12.127  0.00  0.00    +0.048 A 
ATOM      6  C   UNL     1      19.005  35.694  12.762  0.00  0.00    +0.116 A 
ATOM      7  N   UNL     1      18.198  35.288  13.804  0.00  0.00    -0.223 NA
ATOM      8  C   UNL     1      17.156  36.080  14.249  0.00  0.00    +0.220 A 
ATOM      9  N   UNL     1      16.328  35.689  15.289  0.00  0.00    -0.283 N 
ATOM     36  H   UNL     1      15.574  36.304  15.593  0.00  0.00    +0.155 HD
ATOM     37  N   UNL     1      16.915  37.270  13.660  0.00  0.00    -0.214 NA
BRANCH   4   3
ATOM      1  C   UNL     1      17.844  41.191  10.798  0.00  0.00    +0.020 A 
ATOM      2  C   UNL     1      18.255  39.912  11.330  0.00  0.00    +0.013 A 
ATOM      3  C   UNL     1      17.309  39.063  12.043  0.00  0.00    +0.019 A 
ATOM     38  C   UNL     1      15.944  39.540  12.201  0.00  0.00    +0.120 A 
ATOM     39  N   UNL     1      15.577  40.777  11.679  0.00  0.00    -0.263 NA
ATOM     40  C   UNL     1      16.479  41.604  10.993  0.00  0.00    +0.111 A 
ENDBRANCH   4   3
ENDBRANCH  10   9
BRANCH  12  13
ATOM     13  N   UNL     1      15.165  30.870  15.718  0.00  0.00    -0.281 N 
ATOM     14  C   UNL     1      15.615  29.793  14.971  0.00  0.00    +0.248 C 
ATOM     30  O   UNL     1      16.668  29.774  14.351  0.00  0.00    -0.270 OA
ATOM     31  H   UNL     1      14.192  30.830  16.020  0.00  0.00    +0.155 HD
BRANCH  14  15
ATOM     15  C   UNL     1      14.765  28.566  14.889  0.00  0.00    +0.037 A 
ATOM     16  C   UNL     1      13.311  28.658  14.740  0.00  0.00    +0.013 A 
ATOM     17  C   UNL     1      12.513  27.458  14.681  0.00  0.00    +0.005 A 
ATOM     18  C   UNL     1      13.170  26.156  14.769  0.00  0.00    -0.033 A 
ATOM     28  C   UNL     1      14.615  26.095  14.911  0.00  0.00    +0.005 A 
ATOM     29  C   UNL     1      15.400  27.268  14.971  0.00  0.00    +0.013 A 
BRANCH  18  19
ATOM     19  C   UNL     1      12.396  24.825  14.736  0.00  0.00    +0.119 C 
BRANCH  19  20
ATOM     20  N   UNL     1      12.560  23.909  15.904  0.00  0.00    -0.302 NA
ATOM     21  C   UNL     1      11.901  22.548  15.663  0.00  0.00    +0.066 C 
ATOM     22  C   UNL     1      12.102  21.595  16.886  0.00  0.00    -0.064 C 
ATOM     23  N   UNL     1      11.535  22.256  18.144  0.00  0.00    +0.379 N 
ATOM     24  C   UNL     1      11.670  21.339  19.284  0.00  0.00    -0.096 C 
ATOM     25  H   UNL     1      10.446  22.428  17.974  0.00  0.00    -0.082 HD
ATOM     26  C   UNL     1      12.183  23.612  18.388  0.00  0.00    -0.064 C 
ATOM     27  C   UNL     1      12.003  24.541  17.156  0.00  0.00    +0.066 C 
ENDBRANCH  19  20
ENDBRANCH  18  19
ENDBRANCH  14  15
ENDBRANCH  12  13
TORSDOF 6
ENDMDL
