MODEL 1
REMARK VINA RESULT:      -7.9      0.000      0.000
REMARK  Name = C:\Users\Docking\Desktop\test protocol\1iep_ligandH.pdb
REMARK  8 active torsions:
REMARK  status: ('A' for Active; 'I' for Inactive)
REMARK    1  A    between atoms: _5  and  _11
REMARK    2  A    between atoms: _19  and  _21
REMARK    3  A    between atoms: _22  and  _66
REMARK    4  A    between atoms: _27  and  _30
REMARK    5  A    between atoms: _32  and  _33
REMARK    6  A    between atoms: _38  and  _43
REMARK    7  A    between atoms: _43  and  _46
REMARK    8  A    between atoms: _53  and  _55
REMARK                            x       y       z     vdW  Elec       q    Type
REMARK                         _______ _______ _______ _____ _____    ______ ____
ROOT
ATOM     10  C   UNL     1      -3.200  38.031  10.211  0.00  0.00    +0.038 A 
ATOM     11  C   UNL     1      -3.316  36.722  10.745  0.00  0.00    +0.047 A 
ATOM     12  C   UNL     1      -3.733  35.604   9.912  0.00  0.00    +0.035 A 
ATOM     32  C   UNL     1      -4.021  35.856   8.539  0.00  0.00    +0.024 A 
ATOM     33  C   UNL     1      -3.909  37.180   7.980  0.00  0.00    +0.007 A 
ATOM     34  C   UNL     1      -3.501  38.287   8.798  0.00  0.00    -0.029 A 
ATOM     35  C   UNL     1      -3.404  39.687   8.147  0.00  0.00    +0.045 C 
ENDROOT
BRANCH  10   9
ATOM      4  C   UNL     1      -4.117  41.459  13.443  0.00  0.00    +0.077 A 
ATOM      5  C   UNL     1      -5.524  41.181  13.427  0.00  0.00    +0.048 A 
ATOM      6  C   UNL     1      -5.972  40.152  12.567  0.00  0.00    +0.116 A 
ATOM      7  N   UNL     1      -5.071  39.460  11.788  0.00  0.00    -0.223 NA
ATOM      8  C   UNL     1      -3.721  39.755  11.826  0.00  0.00    +0.220 A 
ATOM      9  N   UNL     1      -2.796  39.067  11.056  0.00  0.00    -0.283 N 
ATOM     36  H   UNL     1      -1.809  39.319  11.108  0.00  0.00    +0.155 HD
ATOM     37  N   UNL     1      -3.268  40.734  12.637  0.00  0.00    -0.214 NA
BRANCH   4   3
ATOM      1  C   UNL     1      -3.594  44.317  16.061  0.00  0.00    +0.020 A 
ATOM      2  C   UNL     1      -4.248  43.311  15.257  0.00  0.00    +0.013 A 
ATOM      3  C   UNL     1      -3.490  42.514  14.301  0.00  0.00    +0.019 A 
ATOM     38  C   UNL     1      -2.061  42.761  14.183  0.00  0.00    +0.120 A 
ATOM     39  N   UNL     1      -1.458  43.737  14.970  0.00  0.00    -0.263 NA
ATOM     40  C   UNL     1      -2.178  44.512  15.892  0.00  0.00    +0.111 A 
ENDBRANCH   4   3
ENDBRANCH  10   9
BRANCH  12  13
ATOM     13  N   UNL     1      -3.877  34.255  10.399  0.00  0.00    -0.281 N 
ATOM     14  C   UNL     1      -4.908  33.730  11.162  0.00  0.00    +0.248 C 
ATOM     30  O   UNL     1      -5.762  34.399  11.723  0.00  0.00    -0.270 OA
ATOM     31  H   UNL     1      -3.127  33.608  10.153  0.00  0.00    +0.155 HD
BRANCH  14  15
ATOM     15  C   UNL     1      -4.993  32.248  11.338  0.00  0.00    +0.037 A 
ATOM     16  C   UNL     1      -4.434  31.590  12.521  0.00  0.00    +0.013 A 
ATOM     17  C   UNL     1      -4.515  30.157  12.658  0.00  0.00    +0.005 A 
ATOM     18  C   UNL     1      -5.160  29.373  11.608  0.00  0.00    -0.033 A 
ATOM     28  C   UNL     1      -5.712  30.052  10.447  0.00  0.00    +0.005 A 
ATOM     29  C   UNL     1      -5.633  31.456  10.309  0.00  0.00    +0.013 A 
BRANCH  18  19
ATOM     19  C   UNL     1      -5.273  27.838  11.661  0.00  0.00    +0.119 C 
BRANCH  19  20
ATOM     20  N   UNL     1      -6.450  27.215  10.983  0.00  0.00    -0.302 NA
ATOM     21  C   UNL     1      -7.265  26.339  11.938  0.00  0.00    +0.066 C 
ATOM     22  C   UNL     1      -8.504  25.714  11.219  0.00  0.00    -0.064 C 
ATOM     23  N   UNL     1      -8.034  24.904  10.009  0.00  0.00    +0.379 N 
ATOM     24  C   UNL     1      -9.191  24.267   9.365  0.00  0.00    -0.096 C 
ATOM     25  H   UNL     1      -7.367  24.093  10.384  0.00  0.00    -0.082 HD
ATOM     26  C   UNL     1      -7.220  25.767   9.056  0.00  0.00    -0.064 C 
ATOM     27  C   UNL     1      -6.007  26.407   9.788  0.00  0.00    +0.066 C 
ENDBRANCH  19  20
ENDBRANCH  18  19
ENDBRANCH  14  15
ENDBRANCH  12  13
TORSDOF 6
ENDMDL
MODEL 2
REMARK VINA RESULT:      -7.4     43.830     46.396
REMARK  Name = C:\Users\Docking\Desktop\test protocol\1iep_ligandH.pdb
REMARK  8 active torsions:
REMARK  status: ('A' for Active; 'I' for Inactive)
REMARK    1  A    between atoms: _5  and  _11
REMARK    2  A    between atoms: _19  and  _21
REMARK    3  A    between atoms: _22  and  _66
REMARK    4  A    between atoms: _27  and  _30
REMARK    5  A    between atoms: _32  and  _33
REMARK    6  A    between atoms: _38  and  _43
REMARK    7  A    between atoms: _43  and  _46
REMARK    8  A    between atoms: _53  and  _55
REMARK                            x       y       z     vdW  Elec       q    Type
REMARK                         _______ _______ _______ _____ _____    ______ ____
ROOT
ATOM     10  C   UNL     1     -29.053   1.907  -8.146  0.00  0.00    +0.038 A 
ATOM     11  C   UNL     1     -29.168   3.099  -8.907  0.00  0.00    +0.047 A 
ATOM     12  C   UNL     1     -28.808   3.129 -10.316  0.00  0.00    +0.035 A 
ATOM     32  C   UNL     1     -28.339   1.926 -10.920  0.00  0.00    +0.024 A 
ATOM     33  C   UNL     1     -28.215   0.706 -10.161  0.00  0.00    +0.007 A 
ATOM     34  C   UNL     1     -28.566   0.671  -8.770  0.00  0.00    -0.029 A 
ATOM     35  C   UNL     1     -28.407  -0.663  -8.004  0.00  0.00    +0.045 C 
ENDROOT
BRANCH  10   9
ATOM      4  C   UNL     1     -32.229   1.303  -4.598  0.00  0.00    +0.077 A 
ATOM      5  C   UNL     1     -33.268   0.926  -5.512  0.00  0.00    +0.048 A 
ATOM      6  C   UNL     1     -32.946   0.907  -6.888  0.00  0.00    +0.116 A 
ATOM      7  N   UNL     1     -31.677   1.242  -7.307  0.00  0.00    -0.223 NA
ATOM      8  C   UNL     1     -30.698   1.602  -6.399  0.00  0.00    +0.220 A 
ATOM      9  N   UNL     1     -29.413   1.935  -6.797  0.00  0.00    -0.283 N 
ATOM     36  H   UNL     1     -28.721   2.203  -6.097  0.00  0.00    +0.155 HD
ATOM     37  N   UNL     1     -30.981   1.630  -5.080  0.00  0.00    -0.214 NA
BRANCH   4   3
ATOM      1  C   UNL     1     -33.644   0.799  -0.986  0.00  0.00    +0.020 A 
ATOM      2  C   UNL     1     -33.512   0.706  -2.422  0.00  0.00    +0.013 A 
ATOM      3  C   UNL     1     -32.413   1.368  -3.113  0.00  0.00    +0.019 A 
ATOM     38  C   UNL     1     -31.456   2.121  -2.317  0.00  0.00    +0.120 A 
ATOM     39  N   UNL     1     -31.610   2.195  -0.936  0.00  0.00    -0.263 NA
ATOM     40  C   UNL     1     -32.664   1.563  -0.259  0.00  0.00    +0.111 A 
ENDBRANCH   4   3
ENDBRANCH  10   9
BRANCH  12  13
ATOM     13  N   UNL     1     -28.896   4.311 -11.137  0.00  0.00    -0.281 N 
ATOM     14  C   UNL     1     -30.033   5.012 -11.502  0.00  0.00    +0.248 C 
ATOM     30  O   UNL     1     -31.175   4.604 -11.352  0.00  0.00    -0.270 OA
ATOM     31  H   UNL     1     -28.012   4.675 -11.493  0.00  0.00    +0.155 HD
BRANCH  14  15
ATOM     15  C   UNL     1     -29.880   6.356 -12.139  0.00  0.00    +0.037 A 
ATOM     16  C   UNL     1     -31.015   7.030 -12.775  0.00  0.00    +0.013 A 
ATOM     17  C   UNL     1     -30.836   8.318 -13.397  0.00  0.00    +0.005 A 
ATOM     18  C   UNL     1     -29.515   8.941 -13.384  0.00  0.00    -0.033 A 
ATOM     28  C   UNL     1     -28.408   8.253 -12.742  0.00  0.00    +0.005 A 
ATOM     29  C   UNL     1     -28.579   6.990 -12.132  0.00  0.00    +0.013 A 
BRANCH  18  19
ATOM     19  C   UNL     1     -29.228  10.304 -14.042  0.00  0.00    +0.119 C 
BRANCH  19  20
ATOM     20  N   UNL     1     -30.327  10.923 -14.841  0.00  0.00    -0.302 NA
ATOM     21  C   UNL     1     -29.831  11.444 -16.193  0.00  0.00    +0.066 C 
ATOM     22  C   UNL     1     -30.999  12.068 -17.025  0.00  0.00    -0.064 C 
ATOM     23  N   UNL     1     -31.652  13.192 -16.218  0.00  0.00    +0.379 N 
ATOM     24  C   UNL     1     -32.712  13.819 -17.021  0.00  0.00    -0.096 C 
ATOM     25  H   UNL     1     -30.873  13.965 -16.023  0.00  0.00    -0.082 HD
ATOM     26  C   UNL     1     -32.145  12.683 -14.871  0.00  0.00    -0.064 C 
ATOM     27  C   UNL     1     -30.983  12.039 -14.065  0.00  0.00    +0.066 C 
ENDBRANCH  19  20
ENDBRANCH  18  19
ENDBRANCH  14  15
ENDBRANCH  12  13
TORSDOF 6
ENDMDL
MODEL 3
REMARK VINA RESULT:      -7.4     20.182     28.124
REMARK  Name = C:\Users\Docking\Desktop\test protocol\1iep_ligandH.pdb
REMARK  8 active torsions:
REMARK  status: ('A' for Active; 'I' for Inactive)
REMARK    1  A    between atoms: _5  and  _11
REMARK    2  A    between atoms: _19  and  _21
REMARK    3  A    between atoms: _22  and  _66
REMARK    4  A    between atoms: _27  and  _30
REMARK    5  A    between atoms: _32  and  _33
REMARK    6  A    between atoms: _38  and  _43
REMARK    7  A    between atoms: _43  and  _46
REMARK    8  A    between atoms: _53  and  _55
REMARK                            x       y       z     vdW  Elec       q    Type
REMARK                         _______ _______ _______ _____ _____    ______ ____
ROOT
ATOM     10  C   UNL     1       3.311   9.981  12.465  0.00  0.00    +0.038 A 
ATOM     11  C   UNL     1       3.990  10.710  13.473  0.00  0.00    +0.047 A 
ATOM     12  C   UNL     1       4.445  12.072  13.240  0.00  0.00    +0.035 A 
ATOM     32  C   UNL     1       4.188  12.662  11.969  0.00  0.00    +0.024 A 
ATOM     33  C   UNL     1       3.499  11.935  10.931  0.00  0.00    +0.007 A 
ATOM     34  C   UNL     1       3.051  10.590  11.154  0.00  0.00    -0.029 A 
ATOM     35  C   UNL     1       2.323   9.856  10.004  0.00  0.00    +0.045 C 
ENDROOT
BRANCH  10   9
ATOM      4  C   UNL     1       0.108   6.823  14.140  0.00  0.00    +0.077 A 
ATOM      5  C   UNL     1      -0.807   7.862  14.518  0.00  0.00    +0.048 A 
ATOM      6  C   UNL     1      -0.412   9.196  14.271  0.00  0.00    +0.116 A 
ATOM      7  N   UNL     1       0.809   9.460  13.688  0.00  0.00    -0.223 NA
ATOM      8  C   UNL     1       1.668   8.435  13.337  0.00  0.00    +0.220 A 
ATOM      9  N   UNL     1       2.896   8.676  12.742  0.00  0.00    -0.283 N 
ATOM     36  H   UNL     1       3.505   7.893  12.505  0.00  0.00    +0.155 HD
ATOM     37  N   UNL     1       1.314   7.152  13.564  0.00  0.00    -0.214 NA
BRANCH   4   3
ATOM      1  C   UNL     1      -1.494   3.448  15.300  0.00  0.00    +0.020 A 
ATOM      2  C   UNL     1      -1.271   4.868  15.146  0.00  0.00    +0.013 A 
ATOM      3  C   UNL     1      -0.168   5.365  14.334  0.00  0.00    +0.019 A 
ATOM     38  C   UNL     1       0.698   4.391  13.685  0.00  0.00    +0.120 A 
ATOM     39  N   UNL     1       0.460   3.031  13.853  0.00  0.00    -0.263 NA
ATOM     40  C   UNL     1      -0.598   2.541  14.634  0.00  0.00    +0.111 A 
ENDBRANCH   4   3
ENDBRANCH  10   9
BRANCH  12  13
ATOM     13  N   UNL     1       5.147  12.859  14.224  0.00  0.00    -0.281 N 
ATOM     14  C   UNL     1       6.506  12.875  14.489  0.00  0.00    +0.248 C 
ATOM     30  O   UNL     1       7.303  12.053  14.062  0.00  0.00    -0.270 OA
ATOM     31  H   UNL     1       4.571  13.479  14.794  0.00  0.00    +0.155 HD
BRANCH  14  15
ATOM     15  C   UNL     1       7.058  13.952  15.367  0.00  0.00    +0.037 A 
ATOM     16  C   UNL     1       8.439  14.420  15.219  0.00  0.00    +0.013 A 
ATOM     17  C   UNL     1       8.951  15.448  16.090  0.00  0.00    +0.005 A 
ATOM     18  C   UNL     1       8.080  16.017  17.116  0.00  0.00    -0.033 A 
ATOM     28  C   UNL     1       6.713  15.538  17.237  0.00  0.00    +0.005 A 
ATOM     29  C   UNL     1       6.208  14.530  16.386  0.00  0.00    +0.013 A 
BRANCH  18  19
ATOM     19  C   UNL     1       8.549  17.102  18.103  0.00  0.00    +0.119 C 
BRANCH  19  20
ATOM     20  N   UNL     1       7.931  18.456  17.974  0.00  0.00    -0.302 NA
ATOM     21  C   UNL     1       8.790  19.401  17.129  0.00  0.00    +0.066 C 
ATOM     22  C   UNL     1       8.118  20.805  16.986  0.00  0.00    -0.064 C 
ATOM     23  N   UNL     1       7.873  21.394  18.376  0.00  0.00    +0.379 N 
ATOM     24  C   UNL     1       7.294  22.739  18.244  0.00  0.00    -0.096 C 
ATOM     25  H   UNL     1       8.863  21.499  18.878  0.00  0.00    -0.082 HD
ATOM     26  C   UNL     1       7.022  20.460  19.224  0.00  0.00    -0.064 C 
ATOM     27  C   UNL     1       7.685  19.058  19.336  0.00  0.00    +0.066 C 
ENDBRANCH  19  20
ENDBRANCH  18  19
ENDBRANCH  14  15
ENDBRANCH  12  13
TORSDOF 6
ENDMDL
MODEL 4
REMARK VINA RESULT:      -7.4     14.938     20.260
REMARK  Name = C:\Users\Docking\Desktop\test protocol\1iep_ligandH.pdb
REMARK  8 active torsions:
REMARK  status: ('A' for Active; 'I' for Inactive)
REMARK    1  A    between atoms: _5  and  _11
REMARK    2  A    between atoms: _19  and  _21
REMARK    3  A    between atoms: _22  and  _66
REMARK    4  A    between atoms: _27  and  _30
REMARK    5  A    between atoms: _32  and  _33
REMARK    6  A    between atoms: _38  and  _43
REMARK    7  A    between atoms: _43  and  _46
REMARK    8  A    between atoms: _53  and  _55
REMARK                            x       y       z     vdW  Elec       q    Type
REMARK                         _______ _______ _______ _____ _____    ______ ____
ROOT
ATOM     10  C   UNL     1       1.578  37.944  -2.708  0.00  0.00    +0.038 A 
ATOM     11  C   UNL     1       0.971  39.052  -2.065  0.00  0.00    +0.047 A 
ATOM     12  C   UNL     1       1.773  40.078  -1.416  0.00  0.00    +0.035 A 
ATOM     32  C   UNL     1       3.192  39.944  -1.444  0.00  0.00    +0.024 A 
ATOM     33  C   UNL     1       3.826  38.823  -2.092  0.00  0.00    +0.007 A 
ATOM     34  C   UNL     1       3.040  37.807  -2.732  0.00  0.00    -0.029 A 
ATOM     35  C   UNL     1       3.773  36.624  -3.406  0.00  0.00    +0.045 C 
ENDROOT
BRANCH  10   9
ATOM      4  C   UNL     1      -0.527  36.010  -6.564  0.00  0.00    +0.077 A 
ATOM      5  C   UNL     1       0.029  37.002  -7.438  0.00  0.00    +0.048 A 
ATOM      6  C   UNL     1       0.845  37.997  -6.855  0.00  0.00    +0.116 A 
ATOM      7  N   UNL     1       1.082  37.990  -5.497  0.00  0.00    -0.223 NA
ATOM      8  C   UNL     1       0.529  37.019  -4.682  0.00  0.00    +0.220 A 
ATOM      9  N   UNL     1       0.760  36.989  -3.315  0.00  0.00    -0.283 N 
ATOM     36  H   UNL     1       0.328  36.261  -2.747  0.00  0.00    +0.155 HD
ATOM     37  N   UNL     1      -0.255  36.059  -5.215  0.00  0.00    -0.214 NA
BRANCH   4   3
ATOM      1  C   UNL     1      -2.059  33.100  -8.682  0.00  0.00    +0.020 A 
ATOM      2  C   UNL     1      -1.180  34.172  -8.277  0.00  0.00    +0.013 A 
ATOM      3  C   UNL     1      -1.407  34.892  -7.030  0.00  0.00    +0.019 A 
ATOM     38  C   UNL     1      -2.541  34.497  -6.208  0.00  0.00    +0.120 A 
ATOM     39  N   UNL     1      -3.371  33.461  -6.624  0.00  0.00    -0.263 NA
ATOM     40  C   UNL     1      -3.164  32.763  -7.823  0.00  0.00    +0.111 A 
ENDBRANCH   4   3
ENDBRANCH  10   9
BRANCH  12  13
ATOM     13  N   UNL     1       1.212  41.221  -0.740  0.00  0.00    -0.281 N 
ATOM     14  C   UNL     1       1.019  42.498  -1.243  0.00  0.00    +0.248 C 
ATOM     30  O   UNL     1       1.499  42.908  -2.289  0.00  0.00    -0.270 OA
ATOM     31  H   UNL     1       0.922  41.072   0.227  0.00  0.00    +0.155 HD
BRANCH  14  15
ATOM     15  C   UNL     1       0.184  43.462  -0.464  0.00  0.00    +0.037 A 
ATOM     16  C   UNL     1      -0.651  44.461  -1.137  0.00  0.00    +0.013 A 
ATOM     17  C   UNL     1      -1.433  45.390  -0.361  0.00  0.00    +0.005 A 
ATOM     18  C   UNL     1      -1.386  45.324   1.097  0.00  0.00    -0.033 A 
ATOM     28  C   UNL     1      -0.554  44.320   1.739  0.00  0.00    +0.005 A 
ATOM     29  C   UNL     1       0.216  43.408   0.982  0.00  0.00    +0.013 A 
BRANCH  18  19
ATOM     19  C   UNL     1      -2.172  46.289   2.005  0.00  0.00    +0.119 C 
BRANCH  19  20
ATOM     20  N   UNL     1      -1.514  47.582   2.359  0.00  0.00    -0.302 NA
ATOM     21  C   UNL     1       0.003  47.435   2.502  0.00  0.00    +0.066 C 
ATOM     22  C   UNL     1       0.678  48.802   2.851  0.00  0.00    -0.064 C 
ATOM     23  N   UNL     1       0.064  49.356   4.137  0.00  0.00    +0.379 N 
ATOM     24  C   UNL     1       0.736  50.613   4.499  0.00  0.00    -0.096 C 
ATOM     25  H   UNL     1       0.261  48.620   4.951  0.00  0.00    -0.082 HD
ATOM     26  C   UNL     1      -1.445  49.503   4.005  0.00  0.00    -0.064 C 
ATOM     27  C   UNL     1      -2.102  48.146   3.629  0.00  0.00    +0.066 C 
ENDBRANCH  19  20
ENDBRANCH  18  19
ENDBRANCH  14  15
ENDBRANCH  12  13
TORSDOF 6
ENDMDL
MODEL 5
REMARK VINA RESULT:      -7.2     26.798     36.029
REMARK  Name = C:\Users\Docking\Desktop\test protocol\1iep_ligandH.pdb
REMARK  8 active torsions:
REMARK  status: ('A' for Active; 'I' for Inactive)
REMARK    1  A    between atoms: _5  and  _11
REMARK    2  A    between atoms: _19  and  _21
REMARK    3  A    between atoms: _22  and  _66
REMARK    4  A    between atoms: _27  and  _30
REMARK    5  A    between atoms: _32  and  _33
REMARK    6  A    between atoms: _38  and  _43
REMARK    7  A    between atoms: _43  and  _46
REMARK    8  A    between atoms: _53  and  _55
REMARK                            x       y       z     vdW  Elec       q    Type
REMARK                         _______ _______ _______ _____ _____    ______ ____
ROOT
ATOM     10  C   UNL     1      -1.017  -1.368  13.813  0.00  0.00    +0.038 A 
ATOM     11  C   UNL     1      -1.182   0.037  13.913  0.00  0.00    +0.047 A 
ATOM     12  C   UNL     1      -1.422   0.678  15.196  0.00  0.00    +0.035 A 
ATOM     32  C   UNL     1      -1.484  -0.143  16.360  0.00  0.00    +0.024 A 
ATOM     33  C   UNL     1      -1.319  -1.573  16.277  0.00  0.00    +0.007 A 
ATOM     34  C   UNL     1      -1.085  -2.211  15.013  0.00  0.00    -0.029 A 
ATOM     35  C   UNL     1      -0.922  -3.749  14.983  0.00  0.00    +0.045 C 
ENDROOT
BRANCH  10   9
ATOM      4  C   UNL     1       1.904  -3.002  10.373  0.00  0.00    +0.077 A 
ATOM      5  C   UNL     1       3.077  -2.683  11.135  0.00  0.00    +0.048 A 
ATOM      6  C   UNL     1       2.885  -2.093  12.405  0.00  0.00    +0.116 A 
ATOM      7  N   UNL     1       1.611  -1.845  12.868  0.00  0.00    -0.223 NA
ATOM      8  C   UNL     1       0.501  -2.164  12.106  0.00  0.00    +0.220 A 
ATOM      9  N   UNL     1      -0.789  -1.931  12.555  0.00  0.00    -0.283 N 
ATOM     36  H   UNL     1      -1.582  -2.173  11.961  0.00  0.00    +0.155 HD
ATOM     37  N   UNL     1       0.658  -2.726  10.890  0.00  0.00    -0.214 NA
BRANCH   4   3
ATOM      1  C   UNL     1       2.493  -3.606   6.553  0.00  0.00    +0.020 A 
ATOM      2  C   UNL     1       2.478  -2.953   7.842  0.00  0.00    +0.013 A 
ATOM      3  C   UNL     1       1.943  -3.631   9.015  0.00  0.00    +0.019 A 
ATOM     38  C   UNL     1       1.426  -4.982   8.849  0.00  0.00    +0.120 A 
ATOM     39  N   UNL     1       1.452  -5.585   7.596  0.00  0.00    -0.263 NA
ATOM     40  C   UNL     1       1.963  -4.941   6.459  0.00  0.00    +0.111 A 
ENDBRANCH   4   3
ENDBRANCH  10   9
BRANCH  12  13
ATOM     13  N   UNL     1      -1.605   2.099  15.357  0.00  0.00    -0.281 N 
ATOM     14  C   UNL     1      -0.869   2.969  16.144  0.00  0.00    +0.248 C 
ATOM     30  O   UNL     1      -0.069   2.619  16.999  0.00  0.00    -0.270 OA
ATOM     31  H   UNL     1      -2.372   2.514  14.827  0.00  0.00    +0.155 HD
BRANCH  14  15
ATOM     15  C   UNL     1      -1.058   4.441  15.966  0.00  0.00    +0.037 A 
ATOM     16  C   UNL     1      -1.717   4.983  14.775  0.00  0.00    +0.013 A 
ATOM     17  C   UNL     1      -1.872   6.408  14.620  0.00  0.00    +0.005 A 
ATOM     18  C   UNL     1      -1.368   7.300  15.661  0.00  0.00    -0.033 A 
ATOM     28  C   UNL     1      -0.723   6.735  16.835  0.00  0.00    +0.005 A 
ATOM     29  C   UNL     1      -0.569   5.339  16.989  0.00  0.00    +0.013 A 
BRANCH  18  19
ATOM     19  C   UNL     1      -1.471   8.834  15.569  0.00  0.00    +0.119 C 
BRANCH  19  20
ATOM     20  N   UNL     1      -0.280   9.570  15.049  0.00  0.00    -0.302 NA
ATOM     21  C   UNL     1       0.509   8.740  14.033  0.00  0.00    +0.066 C 
ATOM     22  C   UNL     1       1.739   9.533  13.483  0.00  0.00    -0.064 C 
ATOM     23  N   UNL     1       2.634   9.955  14.650  0.00  0.00    +0.379 N 
ATOM     24  C   UNL     1       3.821  10.650  14.131  0.00  0.00    -0.096 C 
ATOM     25  H   UNL     1       2.982   9.027  15.161  0.00  0.00    -0.082 HD
ATOM     26  C   UNL     1       1.856  10.779  15.666  0.00  0.00    -0.064 C 
ATOM     27  C   UNL     1       0.620   9.993  16.184  0.00  0.00    +0.066 C 
ENDBRANCH  19  20
ENDBRANCH  18  19
ENDBRANCH  14  15
ENDBRANCH  12  13
TORSDOF 6
ENDMDL
