MODEL 1
REMARK VINA RESULT:     -10.5      0.000      0.000
REMARK  Name = C:\Users\Docking\Desktop\test protocol\1iep_ligandH.pdb
REMARK  8 active torsions:
REMARK  status: ('A' for Active; 'I' for Inactive)
REMARK    1  A    between atoms: _5  and  _11
REMARK    2  A    between atoms: _19  and  _21
REMARK    3  A    between atoms: _22  and  _66
REMARK    4  A    between atoms: _27  and  _30
REMARK    5  A    between atoms: _32  and  _33
REMARK    6  A    between atoms: _38  and  _43
REMARK    7  A    between atoms: _43  and  _46
REMARK    8  A    between atoms: _53  and  _55
REMARK                            x       y       z     vdW  Elec       q    Type
REMARK                         _______ _______ _______ _____ _____    ______ ____
ROOT
ATOM     10  C   UNL     1       6.136   4.101  28.936  0.00  0.00    +0.038 A 
ATOM     11  C   UNL     1       6.210   3.833  30.327  0.00  0.00    +0.047 A 
ATOM     12  C   UNL     1       7.392   3.222  30.914  0.00  0.00    +0.035 A 
ATOM     32  C   UNL     1       8.483   2.899  30.055  0.00  0.00    +0.024 A 
ATOM     33  C   UNL     1       8.425   3.164  28.639  0.00  0.00    +0.007 A 
ATOM     34  C   UNL     1       7.260   3.764  28.054  0.00  0.00    -0.029 A 
ATOM     35  C   UNL     1       7.251   4.019  26.528  0.00  0.00    +0.045 C 
ENDROOT
BRANCH  10   9
ATOM      4  C   UNL     1       3.518   7.937  27.723  0.00  0.00    +0.077 A 
ATOM      5  C   UNL     1       4.535   8.846  28.168  0.00  0.00    +0.048 A 
ATOM      6  C   UNL     1       5.713   8.286  28.710  0.00  0.00    +0.116 A 
ATOM      7  N   UNL     1       5.854   6.917  28.795  0.00  0.00    -0.223 NA
ATOM      8  C   UNL     1       4.854   6.069  28.357  0.00  0.00    +0.220 A 
ATOM      9  N   UNL     1       4.977   4.690  28.425  0.00  0.00    -0.283 N 
ATOM     36  H   UNL     1       4.213   4.099  28.099  0.00  0.00    +0.155 HD
ATOM     37  N   UNL     1       3.718   6.579  27.837  0.00  0.00    -0.214 NA
BRANCH   4   3
ATOM      1  C   UNL     1       0.043   9.653  27.191  0.00  0.00    +0.020 A 
ATOM      2  C   UNL     1       1.286   9.259  27.814  0.00  0.00    +0.013 A 
ATOM      3  C   UNL     1       2.218   8.375  27.124  0.00  0.00    +0.019 A 
ATOM     38  C   UNL     1       1.859   7.905  25.795  0.00  0.00    +0.120 A 
ATOM     39  N   UNL     1       0.655   8.300  25.221  0.00  0.00    -0.263 NA
ATOM     40  C   UNL     1      -0.250   9.148  25.876  0.00  0.00    +0.111 A 
ENDBRANCH   4   3
ENDBRANCH  10   9
BRANCH  12  13
ATOM     13  N   UNL     1       7.520   2.919  32.318  0.00  0.00    -0.281 N 
ATOM     14  C   UNL     1       8.156   1.835  32.900  0.00  0.00    +0.248 C 
ATOM     30  O   UNL     1       8.530   0.843  32.291  0.00  0.00    -0.270 OA
ATOM     31  H   UNL     1       7.090   3.584  32.960  0.00  0.00    +0.155 HD
BRANCH  14  15
ATOM     15  C   UNL     1       8.400   1.847  34.375  0.00  0.00    +0.037 A 
ATOM     16  C   UNL     1       9.040   0.715  35.049  0.00  0.00    +0.013 A 
ATOM     17  C   UNL     1       9.248   0.745  36.475  0.00  0.00    +0.005 A 
ATOM     18  C   UNL     1       8.816   1.915  37.237  0.00  0.00    -0.033 A 
ATOM     28  C   UNL     1       8.188   3.026  36.542  0.00  0.00    +0.005 A 
ATOM     29  C   UNL     1       7.982   3.000  35.144  0.00  0.00    +0.013 A 
BRANCH  18  19
ATOM     19  C   UNL     1       8.978   2.024  38.764  0.00  0.00    +0.119 C 
BRANCH  19  20
ATOM     20  N   UNL     1      10.370   2.076  39.302  0.00  0.00    -0.302 NA
ATOM     21  C   UNL     1      11.255   3.046  38.513  0.00  0.00    +0.066 C 
ATOM     22  C   UNL     1      12.702   3.104  39.103  0.00  0.00    -0.064 C 
ATOM     23  N   UNL     1      13.306   1.699  39.105  0.00  0.00    +0.379 N 
ATOM     24  C   UNL     1      14.687   1.760  39.605  0.00  0.00    -0.096 C 
ATOM     25  H   UNL     1      13.344   1.346  38.048  0.00  0.00    -0.082 HD
ATOM     26  C   UNL     1      12.431   0.728  39.885  0.00  0.00    -0.064 C 
ATOM     27  C   UNL     1      10.988   0.699  39.309  0.00  0.00    +0.066 C 
ENDBRANCH  19  20
ENDBRANCH  18  19
ENDBRANCH  14  15
ENDBRANCH  12  13
TORSDOF 6
ENDMDL
MODEL 2
REMARK VINA RESULT:     -10.1      4.970      8.888
REMARK  Name = C:\Users\Docking\Desktop\test protocol\1iep_ligandH.pdb
REMARK  8 active torsions:
REMARK  status: ('A' for Active; 'I' for Inactive)
REMARK    1  A    between atoms: _5  and  _11
REMARK    2  A    between atoms: _19  and  _21
REMARK    3  A    between atoms: _22  and  _66
REMARK    4  A    between atoms: _27  and  _30
REMARK    5  A    between atoms: _32  and  _33
REMARK    6  A    between atoms: _38  and  _43
REMARK    7  A    between atoms: _43  and  _46
REMARK    8  A    between atoms: _53  and  _55
REMARK                            x       y       z     vdW  Elec       q    Type
REMARK                         _______ _______ _______ _____ _____    ______ ____
ROOT
ATOM     10  C   UNL     1       6.672   4.901  36.737  0.00  0.00    +0.038 A 
ATOM     11  C   UNL     1       7.790   4.822  37.607  0.00  0.00    +0.047 A 
ATOM     12  C   UNL     1       7.623   4.864  39.051  0.00  0.00    +0.035 A 
ATOM     32  C   UNL     1       6.303   4.985  39.576  0.00  0.00    +0.024 A 
ATOM     33  C   UNL     1       5.156   5.068  38.706  0.00  0.00    +0.007 A 
ATOM     34  C   UNL     1       5.315   5.030  37.280  0.00  0.00    -0.029 A 
ATOM     35  C   UNL     1       4.050   5.129  36.395  0.00  0.00    +0.045 C 
ENDROOT
BRANCH  10   9
ATOM      4  C   UNL     1       7.726   2.539  32.694  0.00  0.00    +0.077 A 
ATOM      5  C   UNL     1       7.881   1.295  33.391  0.00  0.00    +0.048 A 
ATOM      6  C   UNL     1       7.688   1.307  34.791  0.00  0.00    +0.116 A 
ATOM      7  N   UNL     1       7.364   2.482  35.434  0.00  0.00    -0.223 NA
ATOM      8  C   UNL     1       7.224   3.665  34.732  0.00  0.00    +0.220 A 
ATOM      9  N   UNL     1       6.891   4.856  35.358  0.00  0.00    -0.283 N 
ATOM     36  H   UNL     1       6.804   5.709  34.805  0.00  0.00    +0.155 HD
ATOM     37  N   UNL     1       7.404   3.679  33.395  0.00  0.00    -0.214 NA
BRANCH   4   3
ATOM      1  C   UNL     1       8.749   1.908  28.971  0.00  0.00    +0.020 A 
ATOM      2  C   UNL     1       8.616   1.719  30.397  0.00  0.00    +0.013 A 
ATOM      3  C   UNL     1       7.894   2.687  31.213  0.00  0.00    +0.019 A 
ATOM     38  C   UNL     1       7.312   3.844  30.550  0.00  0.00    +0.120 A 
ATOM     39  N   UNL     1       7.458   4.001  29.175  0.00  0.00    -0.263 NA
ATOM     40  C   UNL     1       8.153   3.077  28.380  0.00  0.00    +0.111 A 
ENDBRANCH   4   3
ENDBRANCH  10   9
BRANCH  12  13
ATOM     13  N   UNL     1       8.720   4.796  39.984  0.00  0.00    -0.281 N 
ATOM     14  C   UNL     1       9.613   5.799  40.324  0.00  0.00    +0.248 C 
ATOM     30  O   UNL     1       9.735   6.851  39.715  0.00  0.00    -0.270 OA
ATOM     31  H   UNL     1       8.855   3.899  40.450  0.00  0.00    +0.155 HD
BRANCH  14  15
ATOM     15  C   UNL     1      10.510   5.599  41.503  0.00  0.00    +0.037 A 
ATOM     16  C   UNL     1      11.691   4.736  41.421  0.00  0.00    +0.013 A 
ATOM     17  C   UNL     1      12.530   4.546  42.577  0.00  0.00    +0.005 A 
ATOM     18  C   UNL     1      12.191   5.223  43.827  0.00  0.00    -0.033 A 
ATOM     28  C   UNL     1      11.016   6.078  43.879  0.00  0.00    +0.005 A 
ATOM     29  C   UNL     1      10.191   6.265  42.747  0.00  0.00    +0.013 A 
BRANCH  18  19
ATOM     19  C   UNL     1      13.017   5.062  45.116  0.00  0.00    +0.119 C 
BRANCH  19  20
ATOM     20  N   UNL     1      12.605   3.982  46.062  0.00  0.00    -0.302 NA
ATOM     21  C   UNL     1      11.997   4.547  47.349  0.00  0.00    +0.066 C 
ATOM     22  C   UNL     1      11.551   3.403  48.317  0.00  0.00    -0.064 C 
ATOM     23  N   UNL     1      12.751   2.508  48.632  0.00  0.00    +0.379 N 
ATOM     24  C   UNL     1      12.348   1.466  49.588  0.00  0.00    -0.096 C 
ATOM     25  H   UNL     1      13.523   3.142  49.127  0.00  0.00    -0.082 HD
ATOM     26  C   UNL     1      13.363   1.945  47.358  0.00  0.00    -0.064 C 
ATOM     27  C   UNL     1      13.776   3.089  46.390  0.00  0.00    +0.066 C 
ENDBRANCH  19  20
ENDBRANCH  18  19
ENDBRANCH  14  15
ENDBRANCH  12  13
TORSDOF 6
ENDMDL
MODEL 3
REMARK VINA RESULT:      -9.9      1.647      2.339
REMARK  Name = C:\Users\Docking\Desktop\test protocol\1iep_ligandH.pdb
REMARK  8 active torsions:
REMARK  status: ('A' for Active; 'I' for Inactive)
REMARK    1  A    between atoms: _5  and  _11
REMARK    2  A    between atoms: _19  and  _21
REMARK    3  A    between atoms: _22  and  _66
REMARK    4  A    between atoms: _27  and  _30
REMARK    5  A    between atoms: _32  and  _33
REMARK    6  A    between atoms: _38  and  _43
REMARK    7  A    between atoms: _43  and  _46
REMARK    8  A    between atoms: _53  and  _55
REMARK                            x       y       z     vdW  Elec       q    Type
REMARK                         _______ _______ _______ _____ _____    ______ ____
ROOT
ATOM     10  C   UNL     1       6.229   4.020  28.899  0.00  0.00    +0.038 A 
ATOM     11  C   UNL     1       6.222   3.859  30.308  0.00  0.00    +0.047 A 
ATOM     12  C   UNL     1       7.356   3.269  31.003  0.00  0.00    +0.035 A 
ATOM     32  C   UNL     1       8.482   2.858  30.232  0.00  0.00    +0.024 A 
ATOM     33  C   UNL     1       8.505   3.014  28.799  0.00  0.00    +0.007 A 
ATOM     34  C   UNL     1       7.388   3.593  28.107  0.00  0.00    -0.029 A 
ATOM     35  C   UNL     1       7.465   3.730  26.569  0.00  0.00    +0.045 C 
ENDROOT
BRANCH  10   9
ATOM      4  C   UNL     1       3.617   7.817  27.558  0.00  0.00    +0.077 A 
ATOM      5  C   UNL     1       4.539   8.738  28.157  0.00  0.00    +0.048 A 
ATOM      6  C   UNL     1       5.669   8.194  28.807  0.00  0.00    +0.116 A 
ATOM      7  N   UNL     1       5.853   6.829  28.848  0.00  0.00    -0.223 NA
ATOM      8  C   UNL     1       4.944   5.968  28.261  0.00  0.00    +0.220 A 
ATOM      9  N   UNL     1       5.113   4.592  28.284  0.00  0.00    -0.283 N 
ATOM     36  H   UNL     1       4.416   3.991  27.845  0.00  0.00    +0.155 HD
ATOM     37  N   UNL     1       3.855   6.463  27.636  0.00  0.00    -0.214 NA
BRANCH   4   3
ATOM      1  C   UNL     1       0.123   9.367  26.725  0.00  0.00    +0.020 A 
ATOM      2  C   UNL     1       1.299   8.984  27.471  0.00  0.00    +0.013 A 
ATOM      3  C   UNL     1       2.377   8.239  26.832  0.00  0.00    +0.019 A 
ATOM     38  C   UNL     1       2.232   7.896  25.425  0.00  0.00    +0.120 A 
ATOM     39  N   UNL     1       1.088   8.277  24.732  0.00  0.00    -0.263 NA
ATOM     40  C   UNL     1       0.043   8.993  25.337  0.00  0.00    +0.111 A 
ENDBRANCH   4   3
ENDBRANCH  10   9
BRANCH  12  13
ATOM     13  N   UNL     1       7.403   3.072  32.431  0.00  0.00    -0.281 N 
ATOM     14  C   UNL     1       7.985   2.025  33.127  0.00  0.00    +0.248 C 
ATOM     30  O   UNL     1       8.370   0.984  32.616  0.00  0.00    -0.270 OA
ATOM     31  H   UNL     1       6.953   3.792  32.997  0.00  0.00    +0.155 HD
BRANCH  14  15
ATOM     15  C   UNL     1       8.149   2.147  34.608  0.00  0.00    +0.037 A 
ATOM     16  C   UNL     1       7.685   3.334  35.329  0.00  0.00    +0.013 A 
ATOM     17  C   UNL     1       7.872   3.433  36.755  0.00  0.00    +0.005 A 
ATOM     18  C   UNL     1       8.525   2.339  37.470  0.00  0.00    -0.033 A 
ATOM     28  C   UNL     1       8.971   1.170  36.730  0.00  0.00    +0.005 A 
ATOM     29  C   UNL     1       8.791   1.070  35.332  0.00  0.00    +0.013 A 
BRANCH  18  19
ATOM     19  C   UNL     1       8.785   2.368  38.988  0.00  0.00    +0.119 C 
BRANCH  19  20
ATOM     20  N   UNL     1       9.017   3.703  39.616  0.00  0.00    -0.302 NA
ATOM     21  C   UNL     1      10.461   3.867  40.098  0.00  0.00    +0.066 C 
ATOM     22  C   UNL     1      10.693   5.277  40.732  0.00  0.00    -0.064 C 
ATOM     23  N   UNL     1       9.710   5.482  41.886  0.00  0.00    +0.379 N 
ATOM     24  C   UNL     1       9.964   6.783  42.522  0.00  0.00    -0.096 C 
ATOM     25  H   UNL     1       9.910   4.690  42.645  0.00  0.00    -0.082 HD
ATOM     26  C   UNL     1       8.272   5.318  41.416  0.00  0.00    -0.064 C 
ATOM     27  C   UNL     1       8.060   3.924  40.761  0.00  0.00    +0.066 C 
ENDBRANCH  19  20
ENDBRANCH  18  19
ENDBRANCH  14  15
ENDBRANCH  12  13
TORSDOF 6
ENDMDL
MODEL 4
REMARK VINA RESULT:      -9.0      2.905      4.095
REMARK  Name = C:\Users\Docking\Desktop\test protocol\1iep_ligandH.pdb
REMARK  8 active torsions:
REMARK  status: ('A' for Active; 'I' for Inactive)
REMARK    1  A    between atoms: _5  and  _11
REMARK    2  A    between atoms: _19  and  _21
REMARK    3  A    between atoms: _22  and  _66
REMARK    4  A    between atoms: _27  and  _30
REMARK    5  A    between atoms: _32  and  _33
REMARK    6  A    between atoms: _38  and  _43
REMARK    7  A    between atoms: _43  and  _46
REMARK    8  A    between atoms: _53  and  _55
REMARK                            x       y       z     vdW  Elec       q    Type
REMARK                         _______ _______ _______ _____ _____    ______ ____
ROOT
ATOM     10  C   UNL     1       6.604   4.238  28.344  0.00  0.00    +0.038 A 
ATOM     11  C   UNL     1       6.384   4.301  29.744  0.00  0.00    +0.047 A 
ATOM     12  C   UNL     1       7.371   3.795  30.685  0.00  0.00    +0.035 A 
ATOM     32  C   UNL     1       8.573   3.232  30.165  0.00  0.00    +0.024 A 
ATOM     33  C   UNL     1       8.812   3.158  28.745  0.00  0.00    +0.007 A 
ATOM     34  C   UNL     1       7.841   3.654  27.812  0.00  0.00    -0.029 A 
ATOM     35  C   UNL     1       8.149   3.543  26.301  0.00  0.00    +0.045 C 
ENDROOT
BRANCH  10   9
ATOM      4  C   UNL     1       3.774   7.775  26.759  0.00  0.00    +0.077 A 
ATOM      5  C   UNL     1       4.273   8.695  27.741  0.00  0.00    +0.048 A 
ATOM      6  C   UNL     1       5.253   8.216  28.639  0.00  0.00    +0.116 A 
ATOM      7  N   UNL     1       5.693   6.912  28.553  0.00  0.00    -0.223 NA
ATOM      8  C   UNL     1       5.189   6.051  27.596  0.00  0.00    +0.220 A 
ATOM      9  N   UNL     1       5.622   4.739  27.486  0.00  0.00    -0.283 N 
ATOM     36  H   UNL     1       5.220   4.133  26.771  0.00  0.00    +0.155 HD
ATOM     37  N   UNL     1       4.252   6.484  26.727  0.00  0.00    -0.214 NA
BRANCH   4   3
ATOM      1  C   UNL     1       0.788   9.506  24.917  0.00  0.00    +0.020 A 
ATOM      2  C   UNL     1       1.767   9.201  25.936  0.00  0.00    +0.013 A 
ATOM      3  C   UNL     1       2.739   8.133  25.738  0.00  0.00    +0.019 A 
ATOM     38  C   UNL     1       2.695   7.389  24.488  0.00  0.00    +0.120 A 
ATOM     39  N   UNL     1       1.740   7.705  23.526  0.00  0.00    -0.263 NA
ATOM     40  C   UNL     1       0.798   8.729  23.706  0.00  0.00    +0.111 A 
ENDBRANCH   4   3
ENDBRANCH  10   9
BRANCH  12  13
ATOM     13  N   UNL     1       7.199   3.825  32.116  0.00  0.00    -0.281 N 
ATOM     14  C   UNL     1       7.527   2.841  33.034  0.00  0.00    +0.248 C 
ATOM     30  O   UNL     1       7.825   1.693  32.740  0.00  0.00    -0.270 OA
ATOM     31  H   UNL     1       6.784   4.675  32.499  0.00  0.00    +0.155 HD
BRANCH  14  15
ATOM     15  C   UNL     1       7.509   3.178  34.490  0.00  0.00    +0.037 A 
ATOM     16  C   UNL     1       8.244   4.332  35.013  0.00  0.00    +0.013 A 
ATOM     17  C   UNL     1       8.224   4.625  36.424  0.00  0.00    +0.005 A 
ATOM     18  C   UNL     1       7.463   3.760  37.324  0.00  0.00    -0.033 A 
ATOM     28  C   UNL     1       6.738   2.625  36.778  0.00  0.00    +0.005 A 
ATOM     29  C   UNL     1       6.757   2.335  35.395  0.00  0.00    +0.013 A 
BRANCH  18  19
ATOM     19  C   UNL     1       7.402   3.984  38.846  0.00  0.00    +0.119 C 
BRANCH  19  20
ATOM     20  N   UNL     1       6.122   4.508  39.410  0.00  0.00    -0.302 NA
ATOM     21  C   UNL     1       5.599   5.714  38.624  0.00  0.00    +0.066 C 
ATOM     22  C   UNL     1       4.248   6.235  39.214  0.00  0.00    -0.064 C 
ATOM     23  N   UNL     1       4.442   6.591  40.689  0.00  0.00    +0.379 N 
ATOM     24  C   UNL     1       3.188   7.135  41.231  0.00  0.00    -0.096 C 
ATOM     25  H   UNL     1       5.212   7.395  40.744  0.00  0.00    -0.082 HD
ATOM     26  C   UNL     1       4.964   5.398  41.476  0.00  0.00    -0.064 C 
ATOM     27  C   UNL     1       6.292   4.870  40.865  0.00  0.00    +0.066 C 
ENDBRANCH  19  20
ENDBRANCH  18  19
ENDBRANCH  14  15
ENDBRANCH  12  13
TORSDOF 6
ENDMDL
MODEL 5
REMARK VINA RESULT:      -9.0      6.226      9.788
REMARK  Name = C:\Users\Docking\Desktop\test protocol\1iep_ligandH.pdb
REMARK  8 active torsions:
REMARK  status: ('A' for Active; 'I' for Inactive)
REMARK    1  A    between atoms: _5  and  _11
REMARK    2  A    between atoms: _19  and  _21
REMARK    3  A    between atoms: _22  and  _66
REMARK    4  A    between atoms: _27  and  _30
REMARK    5  A    between atoms: _32  and  _33
REMARK    6  A    between atoms: _38  and  _43
REMARK    7  A    between atoms: _43  and  _46
REMARK    8  A    between atoms: _53  and  _55
REMARK                            x       y       z     vdW  Elec       q    Type
REMARK                         _______ _______ _______ _____ _____    ______ ____
ROOT
ATOM     10  C   UNL     1       6.656   5.012  36.673  0.00  0.00    +0.038 A 
ATOM     11  C   UNL     1       7.625   5.719  37.428  0.00  0.00    +0.047 A 
ATOM     12  C   UNL     1       7.466   5.916  38.861  0.00  0.00    +0.035 A 
ATOM     32  C   UNL     1       6.307   5.376  39.492  0.00  0.00    +0.024 A 
ATOM     33  C   UNL     1       5.312   4.655  38.739  0.00  0.00    +0.007 A 
ATOM     34  C   UNL     1       5.463   4.460  37.325  0.00  0.00    -0.029 A 
ATOM     35  C   UNL     1       4.360   3.684  36.567  0.00  0.00    +0.045 C 
ENDROOT
BRANCH  10   9
ATOM      4  C   UNL     1       7.996   2.412  32.866  0.00  0.00    +0.077 A 
ATOM      5  C   UNL     1       8.344   1.286  33.684  0.00  0.00    +0.048 A 
ATOM      6  C   UNL     1       8.170   1.419  35.080  0.00  0.00    +0.116 A 
ATOM      7  N   UNL     1       7.683   2.595  35.608  0.00  0.00    -0.223 NA
ATOM      8  C   UNL     1       7.359   3.663  34.791  0.00  0.00    +0.220 A 
ATOM      9  N   UNL     1       6.860   4.852  35.300  0.00  0.00    -0.283 N 
ATOM     36  H   UNL     1       6.640   5.619  34.665  0.00  0.00    +0.155 HD
ATOM     37  N   UNL     1       7.517   3.561  33.455  0.00  0.00    -0.214 NA
BRANCH   4   3
ATOM      1  C   UNL     1       7.758   3.474  29.109  0.00  0.00    +0.020 A 
ATOM      2  C   UNL     1       7.611   3.511  30.546  0.00  0.00    +0.013 A 
ATOM      3  C   UNL     1       8.120   2.425  31.374  0.00  0.00    +0.019 A 
ATOM     38  C   UNL     1       8.777   1.308  30.712  0.00  0.00    +0.120 A 
ATOM     39  N   UNL     1       8.902   1.300  29.327  0.00  0.00    -0.263 NA
ATOM     40  C   UNL     1       8.415   2.338  28.519  0.00  0.00    +0.111 A 
ENDBRANCH   4   3
ENDBRANCH  10   9
BRANCH  12  13
ATOM     13  N   UNL     1       8.412   6.633  39.679  0.00  0.00    -0.281 N 
ATOM     14  C   UNL     1       8.410   7.980  40.003  0.00  0.00    +0.248 C 
ATOM     30  O   UNL     1       7.708   8.820  39.460  0.00  0.00    -0.270 OA
ATOM     31  H   UNL     1       9.177   6.080  40.066  0.00  0.00    +0.155 HD
BRANCH  14  15
ATOM     15  C   UNL     1       9.331   8.466  41.074  0.00  0.00    +0.037 A 
ATOM     16  C   UNL     1      10.457   7.651  41.536  0.00  0.00    +0.013 A 
ATOM     17  C   UNL     1      11.321   8.137  42.583  0.00  0.00    +0.005 A 
ATOM     18  C   UNL     1      11.061   9.448  43.175  0.00  0.00    -0.033 A 
ATOM     28  C   UNL     1       9.940  10.238  42.694  0.00  0.00    +0.005 A 
ATOM     29  C   UNL     1       9.092   9.764  41.668  0.00  0.00    +0.013 A 
BRANCH  18  19
ATOM     19  C   UNL     1      11.918  10.037  44.311  0.00  0.00    +0.119 C 
BRANCH  19  20
ATOM     20  N   UNL     1      12.891  11.110  43.948  0.00  0.00    -0.302 NA
ATOM     21  C   UNL     1      13.272  11.062  42.466  0.00  0.00    +0.066 C 
ATOM     22  C   UNL     1      14.273  12.205  42.099  0.00  0.00    -0.064 C 
ATOM     23  N   UNL     1      15.517  12.094  42.982  0.00  0.00    +0.379 N 
ATOM     24  C   UNL     1      16.485  13.132  42.600  0.00  0.00    -0.096 C 
ATOM     25  H   UNL     1      15.987  11.103  42.780  0.00  0.00    -0.082 HD
ATOM     26  C   UNL     1      15.147  12.137  44.458  0.00  0.00    -0.064 C 
ATOM     27  C   UNL     1      14.129  11.015  44.806  0.00  0.00    +0.066 C 
ENDBRANCH  19  20
ENDBRANCH  18  19
ENDBRANCH  14  15
ENDBRANCH  12  13
TORSDOF 6
ENDMDL
