MODEL 1
REMARK VINA RESULT:      -9.1      0.000      0.000
REMARK  Name = C:\Users\Docking\Desktop\test protocol\1iep_ligandH.pdb
REMARK  8 active torsions:
REMARK  status: ('A' for Active; 'I' for Inactive)
REMARK    1  A    between atoms: _5  and  _11
REMARK    2  A    between atoms: _19  and  _21
REMARK    3  A    between atoms: _22  and  _66
REMARK    4  A    between atoms: _27  and  _30
REMARK    5  A    between atoms: _32  and  _33
REMARK    6  A    between atoms: _38  and  _43
REMARK    7  A    between atoms: _43  and  _46
REMARK    8  A    between atoms: _53  and  _55
REMARK                            x       y       z     vdW  Elec       q    Type
REMARK                         _______ _______ _______ _____ _____    ______ ____
ROOT
ATOM     10  C   UNL     1       6.242   5.356  36.903  0.00  0.00    +0.038 A 
ATOM     11  C   UNL     1       7.281   5.615  37.834  0.00  0.00    +0.047 A 
ATOM     12  C   UNL     1       6.994   5.812  39.246  0.00  0.00    +0.035 A 
ATOM     32  C   UNL     1       5.638   5.736  39.677  0.00  0.00    +0.024 A 
ATOM     33  C   UNL     1       4.569   5.474  38.745  0.00  0.00    +0.007 A 
ATOM     34  C   UNL     1       4.846   5.282  37.350  0.00  0.00    -0.029 A 
ATOM     35  C   UNL     1       3.661   5.011  36.394  0.00  0.00    +0.045 C 
ENDROOT
BRANCH  10   9
ATOM      4  C   UNL     1       7.604   2.605  33.213  0.00  0.00    +0.077 A 
ATOM      5  C   UNL     1       7.686   1.435  34.039  0.00  0.00    +0.048 A 
ATOM      6  C   UNL     1       7.377   1.585  35.410  0.00  0.00    +0.116 A 
ATOM      7  N   UNL     1       7.013   2.818  35.906  0.00  0.00    -0.223 NA
ATOM      8  C   UNL     1       6.946   3.927  35.083  0.00  0.00    +0.220 A 
ATOM      9  N   UNL     1       6.575   5.175  35.559  0.00  0.00    -0.283 N 
ATOM     36  H   UNL     1       6.544   5.970  34.920  0.00  0.00    +0.155 HD
ATOM     37  N   UNL     1       7.238   3.810  33.770  0.00  0.00    -0.214 NA
BRANCH   4   3
ATOM      1  C   UNL     1       7.777   3.629  29.442  0.00  0.00    +0.020 A 
ATOM      2  C   UNL     1       7.468   3.675  30.853  0.00  0.00    +0.013 A 
ATOM      3  C   UNL     1       7.897   2.606  31.745  0.00  0.00    +0.019 A 
ATOM     38  C   UNL     1       8.645   1.496  31.175  0.00  0.00    +0.120 A 
ATOM     39  N   UNL     1       8.927   1.477  29.812  0.00  0.00    -0.263 NA
ATOM     40  C   UNL     1       8.518   2.500  28.943  0.00  0.00    +0.111 A 
ENDBRANCH   4   3
ENDBRANCH  10   9
BRANCH  12  13
ATOM     13  N   UNL     1       8.006   6.086  40.236  0.00  0.00    -0.281 N 
ATOM     14  C   UNL     1       8.499   7.319  40.631  0.00  0.00    +0.248 C 
ATOM     30  O   UNL     1       8.294   8.368  40.038  0.00  0.00    -0.270 OA
ATOM     31  H   UNL     1       8.408   5.273  40.701  0.00  0.00    +0.155 HD
BRANCH  14  15
ATOM     15  C   UNL     1       9.354   7.396  41.855  0.00  0.00    +0.037 A 
ATOM     16  C   UNL     1       8.926   6.796  43.121  0.00  0.00    +0.013 A 
ATOM     17  C   UNL     1       9.762   6.900  44.290  0.00  0.00    +0.005 A 
ATOM     18  C   UNL     1      11.038   7.606  44.198  0.00  0.00    -0.033 A 
ATOM     28  C   UNL     1      11.441   8.187  42.928  0.00  0.00    +0.005 A 
ATOM     29  C   UNL     1      10.623   8.089  41.780  0.00  0.00    +0.013 A 
BRANCH  18  19
ATOM     19  C   UNL     1      11.984   7.784  45.400  0.00  0.00    +0.119 C 
BRANCH  19  20
ATOM     20  N   UNL     1      12.352   6.557  46.167  0.00  0.00    -0.302 NA
ATOM     21  C   UNL     1      13.243   6.878  47.371  0.00  0.00    +0.066 C 
ATOM     22  C   UNL     1      13.600   5.585  48.175  0.00  0.00    -0.064 C 
ATOM     23  N   UNL     1      14.285   4.582  47.246  0.00  0.00    +0.379 N 
ATOM     24  C   UNL     1      14.674   3.390  48.013  0.00  0.00    -0.096 C 
ATOM     25  H   UNL     1      15.218   5.058  46.864  0.00  0.00    -0.082 HD
ATOM     26  C   UNL     1      13.407   4.260  46.045  0.00  0.00    -0.064 C 
ATOM     27  C   UNL     1      13.034   5.554  45.270  0.00  0.00    +0.066 C 
ENDBRANCH  19  20
ENDBRANCH  18  19
ENDBRANCH  14  15
ENDBRANCH  12  13
TORSDOF 6
ENDMDL
MODEL 2
REMARK VINA RESULT:      -8.7      5.074      8.914
REMARK  Name = C:\Users\Docking\Desktop\test protocol\1iep_ligandH.pdb
REMARK  8 active torsions:
REMARK  status: ('A' for Active; 'I' for Inactive)
REMARK    1  A    between atoms: _5  and  _11
REMARK    2  A    between atoms: _19  and  _21
REMARK    3  A    between atoms: _22  and  _66
REMARK    4  A    between atoms: _27  and  _30
REMARK    5  A    between atoms: _32  and  _33
REMARK    6  A    between atoms: _38  and  _43
REMARK    7  A    between atoms: _43  and  _46
REMARK    8  A    between atoms: _53  and  _55
REMARK                            x       y       z     vdW  Elec       q    Type
REMARK                         _______ _______ _______ _____ _____    ______ ____
ROOT
ATOM     10  C   UNL     1       7.379   5.297  37.366  0.00  0.00    +0.038 A 
ATOM     11  C   UNL     1       6.113   5.660  37.891  0.00  0.00    +0.047 A 
ATOM     12  C   UNL     1       5.893   5.759  39.325  0.00  0.00    +0.035 A 
ATOM     32  C   UNL     1       6.987   5.484  40.197  0.00  0.00    +0.024 A 
ATOM     33  C   UNL     1       8.281   5.113  39.680  0.00  0.00    +0.007 A 
ATOM     34  C   UNL     1       8.503   5.011  38.266  0.00  0.00    -0.029 A 
ATOM     35  C   UNL     1       9.909   4.602  37.769  0.00  0.00    +0.045 C 
ENDROOT
BRANCH  10   9
ATOM      4  C   UNL     1       7.629   2.805  33.272  0.00  0.00    +0.077 A 
ATOM      5  C   UNL     1       7.464   1.554  33.954  0.00  0.00    +0.048 A 
ATOM      6  C   UNL     1       7.326   1.595  35.360  0.00  0.00    +0.116 A 
ATOM      7  N   UNL     1       7.351   2.802  36.023  0.00  0.00    -0.223 NA
ATOM      8  C   UNL     1       7.514   3.991  35.334  0.00  0.00    +0.220 A 
ATOM      9  N   UNL     1       7.534   5.217  35.980  0.00  0.00    -0.283 N 
ATOM     36  H   UNL     1       7.663   6.071  35.437  0.00  0.00    +0.155 HD
ATOM     37  N   UNL     1       7.650   3.978  33.992  0.00  0.00    -0.214 NA
BRANCH   4   3
ATOM      1  C   UNL     1       7.436   4.120  29.593  0.00  0.00    +0.020 A 
ATOM      2  C   UNL     1       7.258   4.050  31.025  0.00  0.00    +0.013 A 
ATOM      3  C   UNL     1       7.785   2.926  31.787  0.00  0.00    +0.019 A 
ATOM     38  C   UNL     1       8.494   1.880  31.065  0.00  0.00    +0.120 A 
ATOM     39  N   UNL     1       8.649   1.973  29.686  0.00  0.00    -0.263 NA
ATOM     40  C   UNL     1       8.144   3.050  28.941  0.00  0.00    +0.111 A 
ENDBRANCH   4   3
ENDBRANCH  10   9
BRANCH  12  13
ATOM     13  N   UNL     1       4.628   6.116  39.917  0.00  0.00    -0.281 N 
ATOM     14  C   UNL     1       3.919   7.296  39.765  0.00  0.00    +0.248 C 
ATOM     30  O   UNL     1       4.372   8.315  39.264  0.00  0.00    -0.270 OA
ATOM     31  H   UNL     1       4.202   5.412  40.521  0.00  0.00    +0.155 HD
BRANCH  14  15
ATOM     15  C   UNL     1       2.508   7.359  40.253  0.00  0.00    +0.037 A 
ATOM     16  C   UNL     1       1.379   7.330  39.320  0.00  0.00    +0.013 A 
ATOM     17  C   UNL     1       0.028   7.409  39.816  0.00  0.00    +0.005 A 
ATOM     18  C   UNL     1      -0.202   7.517  41.255  0.00  0.00    -0.033 A 
ATOM     28  C   UNL     1       0.937   7.539  42.159  0.00  0.00    +0.005 A 
ATOM     29  C   UNL     1       2.262   7.462  41.676  0.00  0.00    +0.013 A 
BRANCH  18  19
ATOM     19  C   UNL     1      -1.609   7.628  41.872  0.00  0.00    +0.119 C 
BRANCH  19  20
ATOM     20  N   UNL     1      -2.007   6.580  42.859  0.00  0.00    -0.302 NA
ATOM     21  C   UNL     1      -2.507   5.306  42.173  0.00  0.00    +0.066 C 
ATOM     22  C   UNL     1      -2.898   4.212  43.221  0.00  0.00    -0.064 C 
ATOM     23  N   UNL     1      -3.963   4.773  44.165  0.00  0.00    +0.379 N 
ATOM     24  C   UNL     1      -4.374   3.729  45.115  0.00  0.00    -0.096 C 
ATOM     25  H   UNL     1      -4.853   5.041  43.550  0.00  0.00    -0.082 HD
ATOM     26  C   UNL     1      -3.475   6.042  44.849  0.00  0.00    -0.064 C 
ATOM     27  C   UNL     1      -3.061   7.111  43.799  0.00  0.00    +0.066 C 
ENDBRANCH  19  20
ENDBRANCH  18  19
ENDBRANCH  14  15
ENDBRANCH  12  13
TORSDOF 6
ENDMDL
MODEL 3
REMARK VINA RESULT:      -8.5      5.361      9.473
REMARK  Name = C:\Users\Docking\Desktop\test protocol\1iep_ligandH.pdb
REMARK  8 active torsions:
REMARK  status: ('A' for Active; 'I' for Inactive)
REMARK    1  A    between atoms: _5  and  _11
REMARK    2  A    between atoms: _19  and  _21
REMARK    3  A    between atoms: _22  and  _66
REMARK    4  A    between atoms: _27  and  _30
REMARK    5  A    between atoms: _32  and  _33
REMARK    6  A    between atoms: _38  and  _43
REMARK    7  A    between atoms: _43  and  _46
REMARK    8  A    between atoms: _53  and  _55
REMARK                            x       y       z     vdW  Elec       q    Type
REMARK                         _______ _______ _______ _____ _____    ______ ____
ROOT
ATOM     10  C   UNL     1       7.222   5.438  37.154  0.00  0.00    +0.038 A 
ATOM     11  C   UNL     1       5.946   5.703  37.714  0.00  0.00    +0.047 A 
ATOM     12  C   UNL     1       5.761   5.800  39.153  0.00  0.00    +0.035 A 
ATOM     32  C   UNL     1       6.898   5.625  39.994  0.00  0.00    +0.024 A 
ATOM     33  C   UNL     1       8.203   5.354  39.442  0.00  0.00    +0.007 A 
ATOM     34  C   UNL     1       8.390   5.254  38.023  0.00  0.00    -0.029 A 
ATOM     35  C   UNL     1       9.810   4.956  37.487  0.00  0.00    +0.045 C 
ENDROOT
BRANCH  10   9
ATOM      4  C   UNL     1       7.577   2.928  33.078  0.00  0.00    +0.077 A 
ATOM      5  C   UNL     1       7.547   1.676  33.778  0.00  0.00    +0.048 A 
ATOM      6  C   UNL     1       7.447   1.722  35.186  0.00  0.00    +0.116 A 
ATOM      7  N   UNL     1       7.382   2.935  35.837  0.00  0.00    -0.223 NA
ATOM      8  C   UNL     1       7.414   4.124  35.132  0.00  0.00    +0.220 A 
ATOM      9  N   UNL     1       7.342   5.355  35.765  0.00  0.00    -0.283 N 
ATOM     36  H   UNL     1       7.376   6.210  35.210  0.00  0.00    +0.155 HD
ATOM     37  N   UNL     1       7.511   4.107  33.786  0.00  0.00    -0.214 NA
BRANCH   4   3
ATOM      1  C   UNL     1       7.165   4.182  29.396  0.00  0.00    +0.020 A 
ATOM      2  C   UNL     1       7.037   4.115  30.833  0.00  0.00    +0.013 A 
ATOM      3  C   UNL     1       7.677   3.045  31.589  0.00  0.00    +0.019 A 
ATOM     38  C   UNL     1       8.445   2.051  30.854  0.00  0.00    +0.120 A 
ATOM     39  N   UNL     1       8.549   2.141  29.470  0.00  0.00    -0.263 NA
ATOM     40  C   UNL     1       7.937   3.165  28.732  0.00  0.00    +0.111 A 
ENDBRANCH   4   3
ENDBRANCH  10   9
BRANCH  12  13
ATOM     13  N   UNL     1       4.488   6.059  39.779  0.00  0.00    -0.281 N 
ATOM     14  C   UNL     1       3.859   7.280  39.957  0.00  0.00    +0.248 C 
ATOM     30  O   UNL     1       4.397   8.365  39.793  0.00  0.00    -0.270 OA
ATOM     31  H   UNL     1       3.990   5.242  40.135  0.00  0.00    +0.155 HD
BRANCH  14  15
ATOM     15  C   UNL     1       2.429   7.300  40.393  0.00  0.00    +0.037 A 
ATOM     16  C   UNL     1       1.337   7.327  39.416  0.00  0.00    +0.013 A 
ATOM     17  C   UNL     1      -0.033   7.362  39.864  0.00  0.00    +0.005 A 
ATOM     18  C   UNL     1      -0.318   7.369  41.297  0.00  0.00    -0.033 A 
ATOM     28  C   UNL     1       0.784   7.336  42.244  0.00  0.00    +0.005 A 
ATOM     29  C   UNL     1       2.128   7.303  41.809  0.00  0.00    +0.013 A 
BRANCH  18  19
ATOM     19  C   UNL     1      -1.748   7.428  41.864  0.00  0.00    +0.119 C 
BRANCH  19  20
ATOM     20  N   UNL     1      -2.523   8.684  41.638  0.00  0.00    -0.302 NA
ATOM     21  C   UNL     1      -1.907   9.879  42.372  0.00  0.00    +0.066 C 
ATOM     22  C   UNL     1      -2.717  11.189  42.107  0.00  0.00    -0.064 C 
ATOM     23  N   UNL     1      -4.171  10.982  42.534  0.00  0.00    +0.379 N 
ATOM     24  C   UNL     1      -4.922  12.231  42.340  0.00  0.00    -0.096 C 
ATOM     25  H   UNL     1      -4.173  10.752  43.625  0.00  0.00    -0.082 HD
ATOM     26  C   UNL     1      -4.790   9.795  41.811  0.00  0.00    -0.064 C 
ATOM     27  C   UNL     1      -3.961   8.504  42.058  0.00  0.00    +0.066 C 
ENDBRANCH  19  20
ENDBRANCH  18  19
ENDBRANCH  14  15
ENDBRANCH  12  13
TORSDOF 6
ENDMDL
MODEL 4
REMARK VINA RESULT:      -8.2      6.066      9.110
REMARK  Name = C:\Users\Docking\Desktop\test protocol\1iep_ligandH.pdb
REMARK  8 active torsions:
REMARK  status: ('A' for Active; 'I' for Inactive)
REMARK    1  A    between atoms: _5  and  _11
REMARK    2  A    between atoms: _19  and  _21
REMARK    3  A    between atoms: _22  and  _66
REMARK    4  A    between atoms: _27  and  _30
REMARK    5  A    between atoms: _32  and  _33
REMARK    6  A    between atoms: _38  and  _43
REMARK    7  A    between atoms: _43  and  _46
REMARK    8  A    between atoms: _53  and  _55
REMARK                            x       y       z     vdW  Elec       q    Type
REMARK                         _______ _______ _______ _____ _____    ______ ____
ROOT
ATOM     10  C   UNL     1       8.091   6.385  37.762  0.00  0.00    +0.038 A 
ATOM     11  C   UNL     1       7.120   7.396  37.977  0.00  0.00    +0.047 A 
ATOM     12  C   UNL     1       6.853   7.911  39.310  0.00  0.00    +0.035 A 
ATOM     32  C   UNL     1       7.595   7.375  40.403  0.00  0.00    +0.024 A 
ATOM     33  C   UNL     1       8.584   6.346  40.203  0.00  0.00    +0.007 A 
ATOM     34  C   UNL     1       8.851   5.832  38.889  0.00  0.00    -0.029 A 
ATOM     35  C   UNL     1       9.919   4.725  38.735  0.00  0.00    +0.045 C 
ENDROOT
BRANCH  10   9
ATOM      4  C   UNL     1       7.405   3.220  34.219  0.00  0.00    +0.077 A 
ATOM      5  C   UNL     1       6.567   2.394  35.039  0.00  0.00    +0.048 A 
ATOM      6  C   UNL     1       6.343   2.815  36.369  0.00  0.00    +0.116 A 
ATOM      7  N   UNL     1       6.919   3.978  36.833  0.00  0.00    -0.223 NA
ATOM      8  C   UNL     1       7.724   4.750  36.016  0.00  0.00    +0.220 A 
ATOM      9  N   UNL     1       8.307   5.927  36.460  0.00  0.00    -0.283 N 
ATOM     36  H   UNL     1       8.901   6.465  35.829  0.00  0.00    +0.155 HD
ATOM     37  N   UNL     1       7.955   4.369  34.743  0.00  0.00    -0.214 NA
BRANCH   4   3
ATOM      1  C   UNL     1       7.574   3.354  30.313  0.00  0.00    +0.020 A 
ATOM      2  C   UNL     1       7.226   3.695  31.673  0.00  0.00    +0.013 A 
ATOM      3  C   UNL     1       7.734   2.910  32.792  0.00  0.00    +0.019 A 
ATOM     38  C   UNL     1       8.598   1.777  32.497  0.00  0.00    +0.120 A 
ATOM     39  N   UNL     1       8.915   1.471  31.177  0.00  0.00    -0.263 NA
ATOM     40  C   UNL     1       8.431   2.219  30.093  0.00  0.00    +0.111 A 
ENDBRANCH   4   3
ENDBRANCH  10   9
BRANCH  12  13
ATOM     13  N   UNL     1       5.873   8.932  39.591  0.00  0.00    -0.281 N 
ATOM     14  C   UNL     1       4.514   8.771  39.809  0.00  0.00    +0.248 C 
ATOM     30  O   UNL     1       3.895   7.742  39.583  0.00  0.00    -0.270 OA
ATOM     31  H   UNL     1       6.224   9.888  39.634  0.00  0.00    +0.155 HD
BRANCH  14  15
ATOM     15  C   UNL     1       3.727   9.925  40.341  0.00  0.00    +0.037 A 
ATOM     16  C   UNL     1       2.417  10.272  39.784  0.00  0.00    +0.013 A 
ATOM     17  C   UNL     1       1.687  11.401  40.304  0.00  0.00    +0.005 A 
ATOM     18  C   UNL     1       2.264  12.189  41.389  0.00  0.00    -0.033 A 
ATOM     28  C   UNL     1       3.563  11.819  41.927  0.00  0.00    +0.005 A 
ATOM     29  C   UNL     1       4.283  10.715  41.419  0.00  0.00    +0.013 A 
BRANCH  18  19
ATOM     19  C   UNL     1       1.565  13.422  41.991  0.00  0.00    +0.119 C 
BRANCH  19  20
ATOM     20  N   UNL     1       0.111  13.296  42.310  0.00  0.00    -0.302 NA
ATOM     21  C   UNL     1      -0.760  14.112  41.352  0.00  0.00    +0.066 C 
ATOM     22  C   UNL     1      -2.279  13.951  41.686  0.00  0.00    -0.064 C 
ATOM     23  N   UNL     1      -2.527  14.372  43.136  0.00  0.00    +0.379 N 
ATOM     24  C   UNL     1      -3.963  14.276  43.436  0.00  0.00    -0.096 C 
ATOM     25  H   UNL     1      -2.232  15.442  43.232  0.00  0.00    -0.082 HD
ATOM     26  C   UNL     1      -1.662  13.567  44.095  0.00  0.00    -0.064 C 
ATOM     27  C   UNL     1      -0.157  13.711  43.736  0.00  0.00    +0.066 C 
ENDBRANCH  19  20
ENDBRANCH  18  19
ENDBRANCH  14  15
ENDBRANCH  12  13
TORSDOF 6
ENDMDL
MODEL 5
REMARK VINA RESULT:      -7.9      9.391     14.090
REMARK  Name = C:\Users\Docking\Desktop\test protocol\1iep_ligandH.pdb
REMARK  8 active torsions:
REMARK  status: ('A' for Active; 'I' for Inactive)
REMARK    1  A    between atoms: _5  and  _11
REMARK    2  A    between atoms: _19  and  _21
REMARK    3  A    between atoms: _22  and  _66
REMARK    4  A    between atoms: _27  and  _30
REMARK    5  A    between atoms: _32  and  _33
REMARK    6  A    between atoms: _38  and  _43
REMARK    7  A    between atoms: _43  and  _46
REMARK    8  A    between atoms: _53  and  _55
REMARK                            x       y       z     vdW  Elec       q    Type
REMARK                         _______ _______ _______ _____ _____    ______ ____
ROOT
ATOM     10  C   UNL     1      -3.588   7.933  41.925  0.00  0.00    +0.038 A 
ATOM     11  C   UNL     1      -2.433   7.971  41.103  0.00  0.00    +0.047 A 
ATOM     12  C   UNL     1      -1.381   6.976  41.237  0.00  0.00    +0.035 A 
ATOM     32  C   UNL     1      -1.539   5.953  42.217  0.00  0.00    +0.024 A 
ATOM     33  C   UNL     1      -2.707   5.900  43.062  0.00  0.00    +0.007 A 
ATOM     34  C   UNL     1      -3.747   6.881  42.936  0.00  0.00    -0.029 A 
ATOM     35  C   UNL     1      -4.973   6.778  43.873  0.00  0.00    +0.045 C 
ENDROOT
BRANCH  10   9
ATOM      4  C   UNL     1      -5.206  12.428  42.396  0.00  0.00    +0.077 A 
ATOM      5  C   UNL     1      -4.009  12.851  43.064  0.00  0.00    +0.048 A 
ATOM      6  C   UNL     1      -3.004  11.880  43.274  0.00  0.00    +0.116 A 
ATOM      7  N   UNL     1      -3.193  10.585  42.843  0.00  0.00    -0.223 NA
ATOM      8  C   UNL     1      -4.360  10.209  42.203  0.00  0.00    +0.220 A 
ATOM      9  N   UNL     1      -4.568   8.914  41.753  0.00  0.00    -0.283 N 
ATOM     36  H   UNL     1      -5.445   8.675  41.292  0.00  0.00    +0.155 HD
ATOM     37  N   UNL     1      -5.335  11.118  41.992  0.00  0.00    -0.214 NA
BRANCH   4   3
ATOM      1  C   UNL     1      -7.332  15.506  41.254  0.00  0.00    +0.020 A 
ATOM      2  C   UNL     1      -6.187  14.666  41.522  0.00  0.00    +0.013 A 
ATOM      3  C   UNL     1      -6.356  13.338  42.098  0.00  0.00    +0.019 A 
ATOM     38  C   UNL     1      -7.708  12.886  42.393  0.00  0.00    +0.120 A 
ATOM     39  N   UNL     1      -8.791  13.717  42.125  0.00  0.00    -0.263 NA
ATOM     40  C   UNL     1      -8.640  14.997  41.572  0.00  0.00    +0.111 A 
ENDBRANCH   4   3
ENDBRANCH  10   9
BRANCH  12  13
ATOM     13  N   UNL     1      -0.182   6.969  40.436  0.00  0.00    -0.281 N 
ATOM     14  C   UNL     1       1.009   7.633  40.680  0.00  0.00    +0.248 C 
ATOM     30  O   UNL     1       1.153   8.509  41.520  0.00  0.00    -0.270 OA
ATOM     31  H   UNL     1      -0.215   6.406  39.586  0.00  0.00    +0.155 HD
BRANCH  14  15
ATOM     15  C   UNL     1       2.211   7.282  39.864  0.00  0.00    +0.037 A 
ATOM     16  C   UNL     1       3.481   6.919  40.499  0.00  0.00    +0.013 A 
ATOM     17  C   UNL     1       4.630   6.602  39.688  0.00  0.00    +0.005 A 
ATOM     18  C   UNL     1       4.513   6.646  38.232  0.00  0.00    -0.033 A 
ATOM     28  C   UNL     1       3.241   7.004  37.629  0.00  0.00    +0.005 A 
ATOM     29  C   UNL     1       2.112   7.316  38.421  0.00  0.00    +0.013 A 
BRANCH  18  19
ATOM     19  C   UNL     1       5.693   6.343  37.289  0.00  0.00    +0.119 C 
BRANCH  19  20
ATOM     20  N   UNL     1       6.335   5.000  37.407  0.00  0.00    -0.302 NA
ATOM     21  C   UNL     1       7.844   5.061  37.155  0.00  0.00    +0.066 C 
ATOM     22  C   UNL     1       8.503   3.651  37.304  0.00  0.00    -0.064 C 
ATOM     23  N   UNL     1       7.832   2.672  36.338  0.00  0.00    +0.379 N 
ATOM     24  C   UNL     1       8.488   1.360  36.434  0.00  0.00    -0.096 C 
ATOM     25  H   UNL     1       7.992   3.056  35.304  0.00  0.00    -0.082 HD
ATOM     26  C   UNL     1       6.331   2.608  36.580  0.00  0.00    -0.064 C 
ATOM     27  C   UNL     1       5.690   4.019  36.459  0.00  0.00    +0.066 C 
ENDBRANCH  19  20
ENDBRANCH  18  19
ENDBRANCH  14  15
ENDBRANCH  12  13
TORSDOF 6
ENDMDL
