MODEL 1
REMARK VINA RESULT:      -8.5      0.000      0.000
REMARK  Name = C:\Users\Docking\Desktop\test protocol\1iep_ligandH.pdb
REMARK  8 active torsions:
REMARK  status: ('A' for Active; 'I' for Inactive)
REMARK    1  A    between atoms: _5  and  _11
REMARK    2  A    between atoms: _19  and  _21
REMARK    3  A    between atoms: _22  and  _66
REMARK    4  A    between atoms: _27  and  _30
REMARK    5  A    between atoms: _32  and  _33
REMARK    6  A    between atoms: _38  and  _43
REMARK    7  A    between atoms: _43  and  _46
REMARK    8  A    between atoms: _53  and  _55
REMARK                            x       y       z     vdW  Elec       q    Type
REMARK                         _______ _______ _______ _____ _____    ______ ____
ROOT
ATOM     10  C   UNL     1      27.865  42.252  55.306  0.00  0.00    +0.038 A 
ATOM     11  C   UNL     1      28.840  41.345  54.818  0.00  0.00    +0.047 A 
ATOM     12  C   UNL     1      28.491  39.974  54.482  0.00  0.00    +0.035 A 
ATOM     32  C   UNL     1      27.138  39.560  54.653  0.00  0.00    +0.024 A 
ATOM     33  C   UNL     1      26.134  40.469  55.149  0.00  0.00    +0.007 A 
ATOM     34  C   UNL     1      26.473  41.822  55.484  0.00  0.00    -0.029 A 
ATOM     35  C   UNL     1      25.357  42.751  56.017  0.00  0.00    +0.045 C 
ENDROOT
BRANCH  10   9
ATOM      4  C   UNL     1      28.804  46.792  54.062  0.00  0.00    +0.077 A 
ATOM      5  C   UNL     1      28.517  46.535  52.680  0.00  0.00    +0.048 A 
ATOM      6  C   UNL     1      28.139  45.220  52.330  0.00  0.00    +0.116 A 
ATOM      7  N   UNL     1      28.056  44.242  53.297  0.00  0.00    -0.223 NA
ATOM      8  C   UNL     1      28.341  44.523  54.621  0.00  0.00    +0.220 A 
ATOM      9  N   UNL     1      28.256  43.558  55.612  0.00  0.00    -0.283 N 
ATOM     36  H   UNL     1      28.482  43.803  56.576  0.00  0.00    +0.155 HD
ATOM     37  N   UNL     1      28.706  45.771  54.981  0.00  0.00    -0.214 NA
BRANCH   4   3
ATOM      1  C   UNL     1      29.297  50.651  54.472  0.00  0.00    +0.020 A 
ATOM      2  C   UNL     1      28.877  49.383  53.921  0.00  0.00    +0.013 A 
ATOM      3  C   UNL     1      29.214  48.132  54.589  0.00  0.00    +0.019 A 
ATOM     38  C   UNL     1      29.982  48.200  55.823  0.00  0.00    +0.120 A 
ATOM     39  N   UNL     1      30.374  49.435  56.329  0.00  0.00    -0.263 NA
ATOM     40  C   UNL     1      30.057  50.645  55.694  0.00  0.00    +0.111 A 
ENDBRANCH   4   3
ENDBRANCH  10   9
BRANCH  12  13
ATOM     13  N   UNL     1      29.440  39.005  53.991  0.00  0.00    -0.281 N 
ATOM     14  C   UNL     1      30.182  39.057  52.822  0.00  0.00    +0.248 C 
ATOM     30  O   UNL     1      29.982  39.848  51.912  0.00  0.00    -0.270 OA
ATOM     31  H   UNL     1      29.581  38.182  54.576  0.00  0.00    +0.155 HD
BRANCH  14  15
ATOM     15  C   UNL     1      31.297  38.081  52.631  0.00  0.00    +0.037 A 
ATOM     16  C   UNL     1      31.204  37.006  51.639  0.00  0.00    +0.013 A 
ATOM     17  C   UNL     1      32.287  36.067  51.487  0.00  0.00    +0.005 A 
ATOM     18  C   UNL     1      33.474  36.200  52.329  0.00  0.00    -0.033 A 
ATOM     28  C   UNL     1      33.542  37.279  53.301  0.00  0.00    +0.005 A 
ATOM     29  C   UNL     1      32.482  38.200  53.454  0.00  0.00    +0.013 A 
BRANCH  18  19
ATOM     19  C   UNL     1      34.669  35.231  52.250  0.00  0.00    +0.119 C 
BRANCH  19  20
ATOM     20  N   UNL     1      34.718  34.123  53.249  0.00  0.00    -0.302 NA
ATOM     21  C   UNL     1      35.986  34.178  54.106  0.00  0.00    +0.066 C 
ATOM     22  C   UNL     1      36.010  33.024  55.161  0.00  0.00    -0.064 C 
ATOM     23  N   UNL     1      35.898  31.678  54.444  0.00  0.00    +0.379 N 
ATOM     24  C   UNL     1      35.979  30.589  55.429  0.00  0.00    -0.096 C 
ATOM     25  H   UNL     1      36.776  31.584  53.763  0.00  0.00    -0.082 HD
ATOM     26  C   UNL     1      34.641  31.616  53.588  0.00  0.00    -0.064 C 
ATOM     27  C   UNL     1      34.613  32.784  52.562  0.00  0.00    +0.066 C 
ENDBRANCH  19  20
ENDBRANCH  18  19
ENDBRANCH  14  15
ENDBRANCH  12  13
TORSDOF 6
ENDMDL
MODEL 2
REMARK VINA RESULT:      -8.1     29.297     34.649
REMARK  Name = C:\Users\Docking\Desktop\test protocol\1iep_ligandH.pdb
REMARK  8 active torsions:
REMARK  status: ('A' for Active; 'I' for Inactive)
REMARK    1  A    between atoms: _5  and  _11
REMARK    2  A    between atoms: _19  and  _21
REMARK    3  A    between atoms: _22  and  _66
REMARK    4  A    between atoms: _27  and  _30
REMARK    5  A    between atoms: _32  and  _33
REMARK    6  A    between atoms: _38  and  _43
REMARK    7  A    between atoms: _43  and  _46
REMARK    8  A    between atoms: _53  and  _55
REMARK                            x       y       z     vdW  Elec       q    Type
REMARK                         _______ _______ _______ _____ _____    ______ ____
ROOT
ATOM     10  C   UNL     1      14.102  13.211  39.288  0.00  0.00    +0.038 A 
ATOM     11  C   UNL     1      14.601  14.060  40.308  0.00  0.00    +0.047 A 
ATOM     12  C   UNL     1      14.237  15.467  40.362  0.00  0.00    +0.035 A 
ATOM     32  C   UNL     1      13.359  15.976  39.361  0.00  0.00    +0.024 A 
ATOM     33  C   UNL     1      12.843  15.128  38.315  0.00  0.00    +0.007 A 
ATOM     34  C   UNL     1      13.201  13.739  38.256  0.00  0.00    -0.029 A 
ATOM     35  C   UNL     1      12.623  12.878  37.109  0.00  0.00    +0.045 C 
ENDROOT
BRANCH  10   9
ATOM      4  C   UNL     1      13.405   8.609  40.461  0.00  0.00    +0.077 A 
ATOM      5  C   UNL     1      12.191   8.910  41.162  0.00  0.00    +0.048 A 
ATOM      6  C   UNL     1      11.784  10.263  41.204  0.00  0.00    +0.116 A 
ATOM      7  N   UNL     1      12.542  11.233  40.586  0.00  0.00    -0.223 NA
ATOM      8  C   UNL     1      13.710  10.909  39.920  0.00  0.00    +0.220 A 
ATOM      9  N   UNL     1      14.484  11.867  39.285  0.00  0.00    -0.283 N 
ATOM     36  H   UNL     1      15.342  11.589  38.810  0.00  0.00    +0.155 HD
ATOM     37  N   UNL     1      14.121   9.625  39.867  0.00  0.00    -0.214 NA
BRANCH   4   3
ATOM      1  C   UNL     1      13.801   4.806  39.636  0.00  0.00    +0.020 A 
ATOM      2  C   UNL     1      13.214   6.122  39.743  0.00  0.00    +0.013 A 
ATOM      3  C   UNL     1      13.965   7.227  40.326  0.00  0.00    +0.019 A 
ATOM     38  C   UNL     1      15.318   6.965  40.793  0.00  0.00    +0.120 A 
ATOM     39  N   UNL     1      15.856   5.687  40.678  0.00  0.00    -0.263 NA
ATOM     40  C   UNL     1      15.143   4.616  40.121  0.00  0.00    +0.111 A 
ENDBRANCH   4   3
ENDBRANCH  10   9
BRANCH  12  13
ATOM     13  N   UNL     1      14.719  16.379  41.369  0.00  0.00    -0.281 N 
ATOM     14  C   UNL     1      14.130  16.697  42.582  0.00  0.00    +0.248 C 
ATOM     30  O   UNL     1      12.984  16.405  42.892  0.00  0.00    -0.270 OA
ATOM     31  H   UNL     1      15.602  16.847  41.163  0.00  0.00    +0.155 HD
BRANCH  14  15
ATOM     15  C   UNL     1      14.923  17.463  43.591  0.00  0.00    +0.037 A 
ATOM     16  C   UNL     1      14.273  18.381  44.531  0.00  0.00    +0.013 A 
ATOM     17  C   UNL     1      15.064  19.120  45.482  0.00  0.00    +0.005 A 
ATOM     18  C   UNL     1      16.514  18.944  45.500  0.00  0.00    -0.033 A 
ATOM     28  C   UNL     1      17.132  18.023  44.560  0.00  0.00    +0.005 A 
ATOM     29  C   UNL     1      16.360  17.297  43.625  0.00  0.00    +0.013 A 
BRANCH  18  19
ATOM     19  C   UNL     1      17.438  19.708  46.467  0.00  0.00    +0.119 C 
BRANCH  19  20
ATOM     20  N   UNL     1      18.877  19.311  46.494  0.00  0.00    -0.302 NA
ATOM     21  C   UNL     1      19.376  19.058  47.920  0.00  0.00    +0.066 C 
ATOM     22  C   UNL     1      20.878  18.622  47.928  0.00  0.00    -0.064 C 
ATOM     23  N   UNL     1      21.722  19.697  47.242  0.00  0.00    +0.379 N 
ATOM     24  C   UNL     1      23.141  19.317  47.299  0.00  0.00    -0.096 C 
ATOM     25  H   UNL     1      21.600  20.642  47.820  0.00  0.00    -0.082 HD
ATOM     26  C   UNL     1      21.230  19.957  45.825  0.00  0.00    -0.064 C 
ATOM     27  C   UNL     1      19.730  20.361  45.825  0.00  0.00    +0.066 C 
ENDBRANCH  19  20
ENDBRANCH  18  19
ENDBRANCH  14  15
ENDBRANCH  12  13
TORSDOF 6
ENDMDL
MODEL 3
REMARK VINA RESULT:      -8.1      1.745      2.519
REMARK  Name = C:\Users\Docking\Desktop\test protocol\1iep_ligandH.pdb
REMARK  8 active torsions:
REMARK  status: ('A' for Active; 'I' for Inactive)
REMARK    1  A    between atoms: _5  and  _11
REMARK    2  A    between atoms: _19  and  _21
REMARK    3  A    between atoms: _22  and  _66
REMARK    4  A    between atoms: _27  and  _30
REMARK    5  A    between atoms: _32  and  _33
REMARK    6  A    between atoms: _38  and  _43
REMARK    7  A    between atoms: _43  and  _46
REMARK    8  A    between atoms: _53  and  _55
REMARK                            x       y       z     vdW  Elec       q    Type
REMARK                         _______ _______ _______ _____ _____    ______ ____
ROOT
ATOM     10  C   UNL     1      27.999  42.173  54.612  0.00  0.00    +0.038 A 
ATOM     11  C   UNL     1      28.763  41.119  54.050  0.00  0.00    +0.047 A 
ATOM     12  C   UNL     1      28.256  39.755  54.019  0.00  0.00    +0.035 A 
ATOM     32  C   UNL     1      26.965  39.502  54.568  0.00  0.00    +0.024 A 
ATOM     33  C   UNL     1      26.175  40.562  55.145  0.00  0.00    +0.007 A 
ATOM     34  C   UNL     1      26.671  41.908  55.180  0.00  0.00    -0.029 A 
ATOM     35  C   UNL     1      25.784  43.003  55.816  0.00  0.00    +0.045 C 
ENDROOT
BRANCH  10   9
ATOM      4  C   UNL     1      30.962  45.522  56.356  0.00  0.00    +0.077 A 
ATOM      5  C   UNL     1      31.467  44.634  57.364  0.00  0.00    +0.048 A 
ATOM      6  C   UNL     1      30.933  43.327  57.404  0.00  0.00    +0.116 A 
ATOM      7  N   UNL     1      29.966  42.946  56.499  0.00  0.00    -0.223 NA
ATOM      8  C   UNL     1      29.500  43.827  55.541  0.00  0.00    +0.220 A 
ATOM      9  N   UNL     1      28.534  43.463  54.615  0.00  0.00    -0.283 N 
ATOM     36  H   UNL     1      28.211  44.144  53.929  0.00  0.00    +0.155 HD
ATOM     37  N   UNL     1      29.993  45.082  55.483  0.00  0.00    -0.214 NA
BRANCH   4   3
ATOM      1  C   UNL     1      32.804  48.934  56.874  0.00  0.00    +0.020 A 
ATOM      2  C   UNL     1      32.384  47.567  57.085  0.00  0.00    +0.013 A 
ATOM      3  C   UNL     1      31.430  46.933  56.184  0.00  0.00    +0.019 A 
ATOM     38  C   UNL     1      30.915  47.715  55.070  0.00  0.00    +0.120 A 
ATOM     39  N   UNL     1      31.336  49.030  54.893  0.00  0.00    -0.263 NA
ATOM     40  C   UNL     1      32.253  49.651  55.754  0.00  0.00    +0.111 A 
ENDBRANCH   4   3
ENDBRANCH  10   9
BRANCH  12  13
ATOM     13  N   UNL     1      28.989  38.643  53.469  0.00  0.00    -0.281 N 
ATOM     14  C   UNL     1      29.655  38.578  52.256  0.00  0.00    +0.248 C 
ATOM     30  O   UNL     1      29.540  39.401  51.360  0.00  0.00    -0.270 OA
ATOM     31  H   UNL     1      29.022  37.801  54.044  0.00  0.00    +0.155 HD
BRANCH  14  15
ATOM     15  C   UNL     1      30.570  37.425  51.994  0.00  0.00    +0.037 A 
ATOM     16  C   UNL     1      31.974  37.459  52.412  0.00  0.00    +0.013 A 
ATOM     17  C   UNL     1      32.839  36.341  52.132  0.00  0.00    +0.005 A 
ATOM     18  C   UNL     1      32.300  35.177  51.432  0.00  0.00    -0.033 A 
ATOM     28  C   UNL     1      30.903  35.168  51.034  0.00  0.00    +0.005 A 
ATOM     29  C   UNL     1      30.052  36.263  51.305  0.00  0.00    +0.013 A 
BRANCH  18  19
ATOM     19  C   UNL     1      33.156  33.947  51.073  0.00  0.00    +0.119 C 
BRANCH  19  20
ATOM     20  N   UNL     1      33.742  33.168  52.205  0.00  0.00    -0.302 NA
ATOM     21  C   UNL     1      35.256  33.368  52.317  0.00  0.00    +0.066 C 
ATOM     22  C   UNL     1      35.848  32.564  53.519  0.00  0.00    -0.064 C 
ATOM     23  N   UNL     1      35.509  31.082  53.355  0.00  0.00    +0.379 N 
ATOM     24  C   UNL     1      36.114  30.315  54.453  0.00  0.00    -0.096 C 
ATOM     25  H   UNL     1      35.972  30.733  52.403  0.00  0.00    -0.082 HD
ATOM     26  C   UNL     1      34.005  30.874  53.239  0.00  0.00    -0.064 C 
ATOM     27  C   UNL     1      33.422  31.701  52.060  0.00  0.00    +0.066 C 
ENDBRANCH  19  20
ENDBRANCH  18  19
ENDBRANCH  14  15
ENDBRANCH  12  13
TORSDOF 6
ENDMDL
MODEL 4
REMARK VINA RESULT:      -8.0     24.730     30.022
REMARK  Name = C:\Users\Docking\Desktop\test protocol\1iep_ligandH.pdb
REMARK  8 active torsions:
REMARK  status: ('A' for Active; 'I' for Inactive)
REMARK    1  A    between atoms: _5  and  _11
REMARK    2  A    between atoms: _19  and  _21
REMARK    3  A    between atoms: _22  and  _66
REMARK    4  A    between atoms: _27  and  _30
REMARK    5  A    between atoms: _32  and  _33
REMARK    6  A    between atoms: _38  and  _43
REMARK    7  A    between atoms: _43  and  _46
REMARK    8  A    between atoms: _53  and  _55
REMARK                            x       y       z     vdW  Elec       q    Type
REMARK                         _______ _______ _______ _____ _____    ______ ____
ROOT
ATOM     10  C   UNL     1      18.857  19.661  46.790  0.00  0.00    +0.038 A 
ATOM     11  C   UNL     1      17.834  19.611  47.771  0.00  0.00    +0.047 A 
ATOM     12  C   UNL     1      17.068  20.798  48.121  0.00  0.00    +0.035 A 
ATOM     32  C   UNL     1      17.369  22.018  47.449  0.00  0.00    +0.024 A 
ATOM     33  C   UNL     1      18.407  22.087  46.450  0.00  0.00    +0.007 A 
ATOM     34  C   UNL     1      19.167  20.921  46.103  0.00  0.00    -0.029 A 
ATOM     35  C   UNL     1      20.272  21.055  45.029  0.00  0.00    +0.045 C 
ENDROOT
BRANCH  10   9
ATOM      4  C   UNL     1      19.080  14.919  46.087  0.00  0.00    +0.077 A 
ATOM      5  C   UNL     1      17.681  14.753  46.359  0.00  0.00    +0.048 A 
ATOM      6  C   UNL     1      16.941  15.912  46.684  0.00  0.00    +0.116 A 
ATOM      7  N   UNL     1      17.564  17.141  46.729  0.00  0.00    -0.223 NA
ATOM      8  C   UNL     1      18.915  17.265  46.462  0.00  0.00    +0.220 A 
ATOM      9  N   UNL     1      19.561  18.492  46.494  0.00  0.00    -0.283 N 
ATOM     36  H   UNL     1      20.560  18.541  46.298  0.00  0.00    +0.155 HD
ATOM     37  N   UNL     1      19.644  16.173  46.151  0.00  0.00    -0.214 NA
BRANCH   4   3
ATOM      1  C   UNL     1      22.155  12.869  44.806  0.00  0.00    +0.020 A 
ATOM      2  C   UNL     1      21.311  13.994  45.135  0.00  0.00    +0.013 A 
ATOM      3  C   UNL     1      19.994  13.789  45.726  0.00  0.00    +0.019 A 
ATOM     38  C   UNL     1      19.559  12.423  45.974  0.00  0.00    +0.120 A 
ATOM     39  N   UNL     1      20.393  11.359  45.645  0.00  0.00    -0.263 NA
ATOM     40  C   UNL     1      21.662  11.544  45.074  0.00  0.00    +0.111 A 
ENDBRANCH   4   3
ENDBRANCH  10   9
BRANCH  12  13
ATOM     13  N   UNL     1      16.023  20.810  49.114  0.00  0.00    -0.281 N 
ATOM     14  C   UNL     1      14.673  20.558  48.933  0.00  0.00    +0.248 C 
ATOM     30  O   UNL     1      14.122  20.493  47.845  0.00  0.00    -0.270 OA
ATOM     31  H   UNL     1      16.314  21.030  50.067  0.00  0.00    +0.155 HD
BRANCH  14  15
ATOM     15  C   UNL     1      13.807  20.364  50.136  0.00  0.00    +0.037 A 
ATOM     16  C   UNL     1      14.158  19.394  51.177  0.00  0.00    +0.013 A 
ATOM     17  C   UNL     1      13.296  19.215  52.318  0.00  0.00    +0.005 A 
ATOM     18  C   UNL     1      12.075  20.010  52.426  0.00  0.00    -0.033 A 
ATOM     28  C   UNL     1      11.754  20.969  51.381  0.00  0.00    +0.005 A 
ATOM     29  C   UNL     1      12.596  21.146  50.260  0.00  0.00    +0.013 A 
BRANCH  18  19
ATOM     19  C   UNL     1      11.086  19.870  53.598  0.00  0.00    +0.119 C 
BRANCH  19  20
ATOM     20  N   UNL     1       9.706  19.398  53.276  0.00  0.00    -0.302 NA
ATOM     21  C   UNL     1       8.793  19.410  54.506  0.00  0.00    +0.066 C 
ATOM     22  C   UNL     1       7.348  18.935  54.146  0.00  0.00    -0.064 C 
ATOM     23  N   UNL     1       7.412  17.536  53.532  0.00  0.00    +0.379 N 
ATOM     24  C   UNL     1       6.049  17.063  53.246  0.00  0.00    -0.096 C 
ATOM     25  H   UNL     1       7.854  16.852  54.294  0.00  0.00    -0.082 HD
ATOM     26  C   UNL     1       8.319  17.514  52.310  0.00  0.00    -0.064 C 
ATOM     27  C   UNL     1       9.745  18.016  52.672  0.00  0.00    +0.066 C 
ENDBRANCH  19  20
ENDBRANCH  18  19
ENDBRANCH  14  15
ENDBRANCH  12  13
TORSDOF 6
ENDMDL
MODEL 5
REMARK VINA RESULT:      -8.0     24.638     29.462
REMARK  Name = C:\Users\Docking\Desktop\test protocol\1iep_ligandH.pdb
REMARK  8 active torsions:
REMARK  status: ('A' for Active; 'I' for Inactive)
REMARK    1  A    between atoms: _5  and  _11
REMARK    2  A    between atoms: _19  and  _21
REMARK    3  A    between atoms: _22  and  _66
REMARK    4  A    between atoms: _27  and  _30
REMARK    5  A    between atoms: _32  and  _33
REMARK    6  A    between atoms: _38  and  _43
REMARK    7  A    between atoms: _43  and  _46
REMARK    8  A    between atoms: _53  and  _55
REMARK                            x       y       z     vdW  Elec       q    Type
REMARK                         _______ _______ _______ _____ _____    ______ ____
ROOT
ATOM     10  C   UNL     1      18.157  19.869  45.745  0.00  0.00    +0.038 A 
ATOM     11  C   UNL     1      16.831  19.904  46.249  0.00  0.00    +0.047 A 
ATOM     12  C   UNL     1      16.279  21.118  46.830  0.00  0.00    +0.035 A 
ATOM     32  C   UNL     1      17.104  22.279  46.880  0.00  0.00    +0.024 A 
ATOM     33  C   UNL     1      18.454  22.261  46.373  0.00  0.00    +0.007 A 
ATOM     34  C   UNL     1      19.005  21.066  45.801  0.00  0.00    -0.029 A 
ATOM     35  C   UNL     1      20.460  21.103  45.279  0.00  0.00    +0.045 C 
ENDROOT
BRANCH  10   9
ATOM      4  C   UNL     1      20.020  15.466  46.166  0.00  0.00    +0.077 A 
ATOM      5  C   UNL     1      20.068  15.559  47.597  0.00  0.00    +0.048 A 
ATOM      6  C   UNL     1      19.611  16.760  48.185  0.00  0.00    +0.116 A 
ATOM      7  N   UNL     1      19.142  17.784  47.391  0.00  0.00    -0.223 NA
ATOM      8  C   UNL     1      19.111  17.663  46.014  0.00  0.00    +0.220 A 
ATOM      9  N   UNL     1      18.636  18.677  45.197  0.00  0.00    -0.283 N 
ATOM     36  H   UNL     1      18.637  18.552  44.185  0.00  0.00    +0.155 HD
ATOM     37  N   UNL     1      19.544  16.527  45.428  0.00  0.00    -0.214 NA
BRANCH   4   3
ATOM      1  C   UNL     1      21.821  13.136  43.592  0.00  0.00    +0.020 A 
ATOM      2  C   UNL     1      21.424  14.330  44.302  0.00  0.00    +0.013 A 
ATOM      3  C   UNL     1      20.466  14.261  45.397  0.00  0.00    +0.019 A 
ATOM     38  C   UNL     1      19.924  12.958  45.753  0.00  0.00    +0.120 A 
ATOM     39  N   UNL     1      20.324  11.826  45.051  0.00  0.00    -0.263 NA
ATOM     40  C   UNL     1      21.244  11.880  43.994  0.00  0.00    +0.111 A 
ENDBRANCH   4   3
ENDBRANCH  10   9
BRANCH  12  13
ATOM     13  N   UNL     1      14.943  21.211  47.365  0.00  0.00    -0.281 N 
ATOM     14  C   UNL     1      14.505  20.852  48.630  0.00  0.00    +0.248 C 
ATOM     30  O   UNL     1      15.158  20.195  49.426  0.00  0.00    -0.270 OA
ATOM     31  H   UNL     1      14.234  21.586  46.735  0.00  0.00    +0.155 HD
BRANCH  14  15
ATOM     15  C   UNL     1      13.139  21.273  49.067  0.00  0.00    +0.037 A 
ATOM     16  C   UNL     1      12.730  21.183  50.471  0.00  0.00    +0.013 A 
ATOM     17  C   UNL     1      11.400  21.579  50.863  0.00  0.00    +0.005 A 
ATOM     18  C   UNL     1      10.471  22.071  49.848  0.00  0.00    -0.033 A 
ATOM     28  C   UNL     1      10.906  22.155  48.464  0.00  0.00    +0.005 A 
ATOM     29  C   UNL     1      12.207  21.767  48.076  0.00  0.00    +0.013 A 
BRANCH  18  19
ATOM     19  C   UNL     1       9.027  22.496  50.173  0.00  0.00    +0.119 C 
BRANCH  19  20
ATOM     20  N   UNL     1       8.641  23.904  49.858  0.00  0.00    -0.302 NA
ATOM     21  C   UNL     1       9.627  24.916  50.449  0.00  0.00    +0.066 C 
ATOM     22  C   UNL     1       9.221  26.383  50.091  0.00  0.00    -0.064 C 
ATOM     23  N   UNL     1       7.802  26.653  50.594  0.00  0.00    +0.379 N 
ATOM     24  C   UNL     1       7.439  28.049  50.310  0.00  0.00    -0.096 C 
ATOM     25  H   UNL     1       7.805  26.522  51.701  0.00  0.00    -0.082 HD
ATOM     26  C   UNL     1       6.815  25.650  50.013  0.00  0.00    -0.064 C 
ATOM     27  C   UNL     1       7.244  24.194  50.350  0.00  0.00    +0.066 C 
ENDBRANCH  19  20
ENDBRANCH  18  19
ENDBRANCH  14  15
ENDBRANCH  12  13
TORSDOF 6
ENDMDL
