MODEL 1
REMARK VINA RESULT:      -7.4      0.000      0.000
REMARK  Name = C:\Users\Docking\Desktop\test protocol\1iep_ligandH.pdb
REMARK  8 active torsions:
REMARK  status: ('A' for Active; 'I' for Inactive)
REMARK    1  A    between atoms: _5  and  _11
REMARK    2  A    between atoms: _19  and  _21
REMARK    3  A    between atoms: _22  and  _66
REMARK    4  A    between atoms: _27  and  _30
REMARK    5  A    between atoms: _32  and  _33
REMARK    6  A    between atoms: _38  and  _43
REMARK    7  A    between atoms: _43  and  _46
REMARK    8  A    between atoms: _53  and  _55
REMARK                            x       y       z     vdW  Elec       q    Type
REMARK                         _______ _______ _______ _____ _____    ______ ____
ROOT
ATOM     10  C   UNL     1      -5.871  41.170 269.578  0.00  0.00    +0.038 A 
ATOM     11  C   UNL     1      -5.802  42.490 270.092  0.00  0.00    +0.047 A 
ATOM     12  C   UNL     1      -6.569  43.572 269.493  0.00  0.00    +0.035 A 
ATOM     32  C   UNL     1      -7.399  43.273 268.373  0.00  0.00    +0.024 A 
ATOM     33  C   UNL     1      -7.480  41.937 267.837  0.00  0.00    +0.007 A 
ATOM     34  C   UNL     1      -6.724  40.866 268.422  0.00  0.00    -0.029 A 
ATOM     35  C   UNL     1      -6.845  39.455 267.802  0.00  0.00    +0.045 C 
ENDROOT
BRANCH  10   9
ATOM      4  C   UNL     1      -1.697  38.991 270.507  0.00  0.00    +0.077 A 
ATOM      5  C   UNL     1      -0.967  39.907 269.678  0.00  0.00    +0.048 A 
ATOM      6  C   UNL     1      -1.704  40.920 269.025  0.00  0.00    +0.116 A 
ATOM      7  N   UNL     1      -3.069  41.002 269.195  0.00  0.00    -0.223 NA
ATOM      8  C   UNL     1      -3.742  40.101 270.000  0.00  0.00    +0.220 A 
ATOM      9  N   UNL     1      -5.114  40.170 270.191  0.00  0.00    -0.283 N 
ATOM     36  H   UNL     1      -5.574  39.482 270.787  0.00  0.00    +0.155 HD
ATOM     37  N   UNL     1      -3.061  39.124 270.633  0.00  0.00    -0.214 NA
BRANCH   4   3
ATOM      1  C   UNL     1       0.652  36.033 271.523  0.00  0.00    +0.020 A 
ATOM      2  C   UNL     1       0.072  37.107 270.750  0.00  0.00    +0.013 A 
ATOM      3  C   UNL     1      -1.059  37.869 271.265  0.00  0.00    +0.019 A 
ATOM     38  C   UNL     1      -1.582  37.517 272.576  0.00  0.00    +0.120 A 
ATOM     39  N   UNL     1      -1.004  36.477 273.297  0.00  0.00    -0.263 NA
ATOM     40  C   UNL     1       0.083  35.735 272.811  0.00  0.00    +0.111 A 
ENDBRANCH   4   3
ENDBRANCH  10   9
BRANCH  12  13
ATOM     13  N   UNL     1      -6.533  44.933 269.967  0.00  0.00    -0.281 N 
ATOM     14  C   UNL     1      -7.097  45.448 271.122  0.00  0.00    +0.248 C 
ATOM     30  O   UNL     1      -7.906  44.854 271.821  0.00  0.00    -0.270 OA
ATOM     31  H   UNL     1      -6.030  45.598 269.379  0.00  0.00    +0.155 HD
BRANCH  14  15
ATOM     15  C   UNL     1      -6.720  46.828 271.557  0.00  0.00    +0.037 A 
ATOM     16  C   UNL     1      -5.502  47.474 271.062  0.00  0.00    +0.013 A 
ATOM     17  C   UNL     1      -5.153  48.799 271.511  0.00  0.00    +0.005 A 
ATOM     18  C   UNL     1      -6.026  49.486 272.460  0.00  0.00    -0.033 A 
ATOM     28  C   UNL     1      -7.231  48.824 272.931  0.00  0.00    +0.005 A 
ATOM     29  C   UNL     1      -7.575  47.525 272.494  0.00  0.00    +0.013 A 
BRANCH  18  19
ATOM     19  C   UNL     1      -5.720  50.893 273.009  0.00  0.00    +0.119 C 
BRANCH  19  20
ATOM     20  N   UNL     1      -4.432  51.076 273.742  0.00  0.00    -0.302 NA
ATOM     21  C   UNL     1      -4.335  50.167 274.970  0.00  0.00    +0.066 C 
ATOM     22  C   UNL     1      -2.972  50.355 275.712  0.00  0.00    -0.064 C 
ATOM     23  N   UNL     1      -2.810  51.823 276.111  0.00  0.00    +0.379 N 
ATOM     24  C   UNL     1      -1.556  51.992 276.859  0.00  0.00    -0.096 C 
ATOM     25  H   UNL     1      -3.651  52.081 276.796  0.00  0.00    -0.082 HD
ATOM     26  C   UNL     1      -2.908  52.734 274.896  0.00  0.00    -0.064 C 
ATOM     27  C   UNL     1      -4.254  52.518 274.149  0.00  0.00    +0.066 C 
ENDBRANCH  19  20
ENDBRANCH  18  19
ENDBRANCH  14  15
ENDBRANCH  12  13
TORSDOF 6
ENDMDL
MODEL 2
REMARK VINA RESULT:      -7.0      1.665      2.614
REMARK  Name = C:\Users\Docking\Desktop\test protocol\1iep_ligandH.pdb
REMARK  8 active torsions:
REMARK  status: ('A' for Active; 'I' for Inactive)
REMARK    1  A    between atoms: _5  and  _11
REMARK    2  A    between atoms: _19  and  _21
REMARK    3  A    between atoms: _22  and  _66
REMARK    4  A    between atoms: _27  and  _30
REMARK    5  A    between atoms: _32  and  _33
REMARK    6  A    between atoms: _38  and  _43
REMARK    7  A    between atoms: _43  and  _46
REMARK    8  A    between atoms: _53  and  _55
REMARK                            x       y       z     vdW  Elec       q    Type
REMARK                         _______ _______ _______ _____ _____    ______ ____
ROOT
ATOM     10  C   UNL     1      -5.882  41.113 269.540  0.00  0.00    +0.038 A 
ATOM     11  C   UNL     1      -5.791  42.431 270.054  0.00  0.00    +0.047 A 
ATOM     12  C   UNL     1      -6.568  43.518 269.479  0.00  0.00    +0.035 A 
ATOM     32  C   UNL     1      -7.430  43.226 268.383  0.00  0.00    +0.024 A 
ATOM     33  C   UNL     1      -7.534  41.892 267.846  0.00  0.00    +0.007 A 
ATOM     34  C   UNL     1      -6.768  40.816 268.408  0.00  0.00    -0.029 A 
ATOM     35  C   UNL     1      -6.914  39.406 267.789  0.00  0.00    +0.045 C 
ENDROOT
BRANCH  10   9
ATOM      4  C   UNL     1      -1.679  38.977 270.442  0.00  0.00    +0.077 A 
ATOM      5  C   UNL     1      -0.957  39.929 269.648  0.00  0.00    +0.048 A 
ATOM      6  C   UNL     1      -1.706  40.949 269.019  0.00  0.00    +0.116 A 
ATOM      7  N   UNL     1      -3.073  41.003 269.178  0.00  0.00    -0.223 NA
ATOM      8  C   UNL     1      -3.739  40.068 269.949  0.00  0.00    +0.220 A 
ATOM      9  N   UNL     1      -5.113  40.107 270.130  0.00  0.00    -0.283 N 
ATOM     36  H   UNL     1      -5.567  39.394 270.700  0.00  0.00    +0.155 HD
ATOM     37  N   UNL     1      -3.047  39.083 270.560  0.00  0.00    -0.214 NA
BRANCH   4   3
ATOM      1  C   UNL     1       0.691  36.009 271.378  0.00  0.00    +0.020 A 
ATOM      2  C   UNL     1       0.099  37.095 270.632  0.00  0.00    +0.013 A 
ATOM      3  C   UNL     1      -1.029  37.843 271.172  0.00  0.00    +0.019 A 
ATOM     38  C   UNL     1      -1.538  37.464 272.482  0.00  0.00    +0.120 A 
ATOM     39  N   UNL     1      -0.949  36.412 273.177  0.00  0.00    -0.263 NA
ATOM     40  C   UNL     1       0.136  35.684 272.666  0.00  0.00    +0.111 A 
ENDBRANCH   4   3
ENDBRANCH  10   9
BRANCH  12  13
ATOM     13  N   UNL     1      -6.511  44.879 269.954  0.00  0.00    -0.281 N 
ATOM     14  C   UNL     1      -7.024  45.391 271.135  0.00  0.00    +0.248 C 
ATOM     30  O   UNL     1      -7.800  44.795 271.867  0.00  0.00    -0.270 OA
ATOM     31  H   UNL     1      -6.036  45.545 269.346  0.00  0.00    +0.155 HD
BRANCH  14  15
ATOM     15  C   UNL     1      -6.628  46.769 271.556  0.00  0.00    +0.037 A 
ATOM     16  C   UNL     1      -5.447  47.427 270.992  0.00  0.00    +0.013 A 
ATOM     17  C   UNL     1      -5.078  48.750 271.428  0.00  0.00    +0.005 A 
ATOM     18  C   UNL     1      -5.894  49.426 272.434  0.00  0.00    -0.033 A 
ATOM     28  C   UNL     1      -7.063  48.752 272.974  0.00  0.00    +0.005 A 
ATOM     29  C   UNL     1      -7.427  47.455 272.549  0.00  0.00    +0.013 A 
BRANCH  18  19
ATOM     19  C   UNL     1      -5.563  50.830 272.974  0.00  0.00    +0.119 C 
BRANCH  19  20
ATOM     20  N   UNL     1      -6.524  51.928 272.657  0.00  0.00    -0.302 NA
ATOM     21  C   UNL     1      -6.726  52.097 271.149  0.00  0.00    +0.066 C 
ATOM     22  C   UNL     1      -7.751  53.235 270.836  0.00  0.00    -0.064 C 
ATOM     23  N   UNL     1      -7.268  54.542 271.468  0.00  0.00    +0.379 N 
ATOM     24  C   UNL     1      -8.200  55.626 271.127  0.00  0.00    -0.096 C 
ATOM     25  H   UNL     1      -6.279  54.790 271.015  0.00  0.00    -0.082 HD
ATOM     26  C   UNL     1      -7.061  54.381 272.967  0.00  0.00    -0.064 C 
ATOM     27  C   UNL     1      -6.063  53.229 273.268  0.00  0.00    +0.066 C 
ENDBRANCH  19  20
ENDBRANCH  18  19
ENDBRANCH  14  15
ENDBRANCH  12  13
TORSDOF 6
ENDMDL
MODEL 3
REMARK VINA RESULT:      -6.8      2.562     12.245
REMARK  Name = C:\Users\Docking\Desktop\test protocol\1iep_ligandH.pdb
REMARK  8 active torsions:
REMARK  status: ('A' for Active; 'I' for Inactive)
REMARK    1  A    between atoms: _5  and  _11
REMARK    2  A    between atoms: _19  and  _21
REMARK    3  A    between atoms: _22  and  _66
REMARK    4  A    between atoms: _27  and  _30
REMARK    5  A    between atoms: _32  and  _33
REMARK    6  A    between atoms: _38  and  _43
REMARK    7  A    between atoms: _43  and  _46
REMARK    8  A    between atoms: _53  and  _55
REMARK                            x       y       z     vdW  Elec       q    Type
REMARK                         _______ _______ _______ _____ _____    ______ ____
ROOT
ATOM     10  C   UNL     1      -7.883  46.645 270.931  0.00  0.00    +0.038 A 
ATOM     11  C   UNL     1      -6.995  45.549 270.781  0.00  0.00    +0.047 A 
ATOM     12  C   UNL     1      -7.471  44.178 270.866  0.00  0.00    +0.035 A 
ATOM     32  C   UNL     1      -8.860  43.958 271.103  0.00  0.00    +0.024 A 
ATOM     33  C   UNL     1      -9.776  45.060 271.258  0.00  0.00    +0.007 A 
ATOM     34  C   UNL     1      -9.311  46.416 271.177  0.00  0.00    -0.029 A 
ATOM     35  C   UNL     1     -10.338  47.558 271.358  0.00  0.00    +0.045 C 
ENDROOT
BRANCH  10   9
ATOM      4  C   UNL     1      -5.963  50.585 272.887  0.00  0.00    +0.077 A 
ATOM      5  C   UNL     1      -6.007  50.024 274.206  0.00  0.00    +0.048 A 
ATOM      6  C   UNL     1      -6.538  48.721 274.339  0.00  0.00    +0.116 A 
ATOM      7  N   UNL     1      -6.988  48.040 273.229  0.00  0.00    -0.223 NA
ATOM      8  C   UNL     1      -6.932  48.611 271.971  0.00  0.00    +0.220 A 
ATOM      9  N   UNL     1      -7.371  47.942 270.839  0.00  0.00    -0.283 N 
ATOM     36  H   UNL     1      -7.320  48.400 269.930  0.00  0.00    +0.155 HD
ATOM     37  N   UNL     1      -6.431  49.855 271.817  0.00  0.00    -0.214 NA
BRANCH   4   3
ATOM      1  C   UNL     1      -3.861  53.882 273.007  0.00  0.00    +0.020 A 
ATOM      2  C   UNL     1      -4.342  52.561 273.341  0.00  0.00    +0.013 A 
ATOM      3  C   UNL     1      -5.427  51.950 272.583  0.00  0.00    +0.019 A 
ATOM     38  C   UNL     1      -6.007  52.707 271.484  0.00  0.00    +0.120 A 
ATOM     39  N   UNL     1      -5.524  53.977 271.187  0.00  0.00    -0.263 NA
ATOM     40  C   UNL     1      -4.482  54.577 271.910  0.00  0.00    +0.111 A 
ENDBRANCH   4   3
ENDBRANCH  10   9
BRANCH  12  13
ATOM     13  N   UNL     1      -6.615  43.025 270.731  0.00  0.00    -0.281 N 
ATOM     14  C   UNL     1      -5.855  42.653 269.634  0.00  0.00    +0.248 C 
ATOM     30  O   UNL     1      -5.962  43.145 268.520  0.00  0.00    -0.270 OA
ATOM     31  H   UNL     1      -6.564  42.408 271.542  0.00  0.00    +0.155 HD
BRANCH  14  15
ATOM     15  C   UNL     1      -4.838  41.569 269.794  0.00  0.00    +0.037 A 
ATOM     16  C   UNL     1      -5.222  40.229 270.246  0.00  0.00    +0.013 A 
ATOM     17  C   UNL     1      -4.219  39.206 270.408  0.00  0.00    +0.005 A 
ATOM     18  C   UNL     1      -2.822  39.521 270.117  0.00  0.00    -0.033 A 
ATOM     28  C   UNL     1      -2.470  40.857 269.666  0.00  0.00    +0.005 A 
ATOM     29  C   UNL     1      -3.450  41.862 269.507  0.00  0.00    +0.013 A 
BRANCH  18  19
ATOM     19  C   UNL     1      -1.683  38.497 270.283  0.00  0.00    +0.119 C 
BRANCH  19  20
ATOM     20  N   UNL     1      -1.721  37.285 269.412  0.00  0.00    -0.302 NA
ATOM     21  C   UNL     1      -0.461  36.428 269.566  0.00  0.00    +0.066 C 
ATOM     22  C   UNL     1      -0.528  35.152 268.665  0.00  0.00    -0.064 C 
ATOM     23  N   UNL     1      -0.723  35.570 267.207  0.00  0.00    +0.379 N 
ATOM     24  C   UNL     1      -0.728  34.375 266.350  0.00  0.00    -0.096 C 
ATOM     25  H   UNL     1       0.153  36.193 266.913  0.00  0.00    -0.082 HD
ATOM     26  C   UNL     1      -1.972  36.425 267.045  0.00  0.00    -0.064 C 
ATOM     27  C   UNL     1      -1.909  37.675 267.967  0.00  0.00    +0.066 C 
ENDBRANCH  19  20
ENDBRANCH  18  19
ENDBRANCH  14  15
ENDBRANCH  12  13
TORSDOF 6
ENDMDL
MODEL 4
REMARK VINA RESULT:      -6.8      2.910     12.518
REMARK  Name = C:\Users\Docking\Desktop\test protocol\1iep_ligandH.pdb
REMARK  8 active torsions:
REMARK  status: ('A' for Active; 'I' for Inactive)
REMARK    1  A    between atoms: _5  and  _11
REMARK    2  A    between atoms: _19  and  _21
REMARK    3  A    between atoms: _22  and  _66
REMARK    4  A    between atoms: _27  and  _30
REMARK    5  A    between atoms: _32  and  _33
REMARK    6  A    between atoms: _38  and  _43
REMARK    7  A    between atoms: _43  and  _46
REMARK    8  A    between atoms: _53  and  _55
REMARK                            x       y       z     vdW  Elec       q    Type
REMARK                         _______ _______ _______ _____ _____    ______ ____
ROOT
ATOM     10  C   UNL     1      -6.400  42.730 268.804  0.00  0.00    +0.038 A 
ATOM     11  C   UNL     1      -5.207  42.025 269.109  0.00  0.00    +0.047 A 
ATOM     12  C   UNL     1      -5.118  40.584 268.931  0.00  0.00    +0.035 A 
ATOM     32  C   UNL     1      -6.262  39.892 268.438  0.00  0.00    +0.024 A 
ATOM     33  C   UNL     1      -7.483  40.593 268.123  0.00  0.00    +0.007 A 
ATOM     34  C   UNL     1      -7.577  42.014 268.299  0.00  0.00    -0.029 A 
ATOM     35  C   UNL     1      -8.913  42.711 267.952  0.00  0.00    +0.045 C 
ENDROOT
BRANCH  10   9
ATOM      4  C   UNL     1      -7.025  46.612 271.555  0.00  0.00    +0.077 A 
ATOM      5  C   UNL     1      -7.346  45.818 272.706  0.00  0.00    +0.048 A 
ATOM      6  C   UNL     1      -7.346  44.414 272.546  0.00  0.00    +0.116 A 
ATOM      7  N   UNL     1      -7.045  43.857 271.322  0.00  0.00    -0.223 NA
ATOM      8  C   UNL     1      -6.742  44.652 270.232  0.00  0.00    +0.220 A 
ATOM      9  N   UNL     1      -6.429  44.113 268.993  0.00  0.00    -0.283 N 
ATOM     36  H   UNL     1      -6.219  44.734 268.212  0.00  0.00    +0.155 HD
ATOM     37  N   UNL     1      -6.737  45.995 270.359  0.00  0.00    -0.214 NA
BRANCH   4   3
ATOM      1  C   UNL     1      -5.806  50.308 271.950  0.00  0.00    +0.020 A 
ATOM      2  C   UNL     1      -5.796  48.863 271.957  0.00  0.00    +0.013 A 
ATOM      3  C   UNL     1      -6.981  48.108 271.567  0.00  0.00    +0.019 A 
ATOM     38  C   UNL     1      -8.167  48.852 271.171  0.00  0.00    +0.120 A 
ATOM     39  N   UNL     1      -8.147  50.243 271.175  0.00  0.00    -0.263 NA
ATOM     40  C   UNL     1      -7.014  50.980 271.550  0.00  0.00    +0.111 A 
ENDBRANCH   4   3
ENDBRANCH  10   9
BRANCH  12  13
ATOM     13  N   UNL     1      -3.937  39.814 269.232  0.00  0.00    -0.281 N 
ATOM     14  C   UNL     1      -3.622  39.163 270.414  0.00  0.00    +0.248 C 
ATOM     30  O   UNL     1      -4.216  39.323 271.470  0.00  0.00    -0.270 OA
ATOM     31  H   UNL     1      -3.249  39.739 268.482  0.00  0.00    +0.155 HD
BRANCH  14  15
ATOM     15  C   UNL     1      -2.474  38.206 270.428  0.00  0.00    +0.037 A 
ATOM     16  C   UNL     1      -2.691  36.760 270.511  0.00  0.00    +0.013 A 
ATOM     17  C   UNL     1      -1.565  35.860 270.540  0.00  0.00    +0.005 A 
ATOM     18  C   UNL     1      -0.211  36.405 270.485  0.00  0.00    -0.033 A 
ATOM     28  C   UNL     1      -0.025  37.844 270.397  0.00  0.00    +0.005 A 
ATOM     29  C   UNL     1      -1.126  38.729 270.370  0.00  0.00    +0.013 A 
BRANCH  18  19
ATOM     19  C   UNL     1       1.049  35.521 270.532  0.00  0.00    +0.119 C 
BRANCH  19  20
ATOM     20  N   UNL     1       1.411  34.780 269.287  0.00  0.00    -0.302 NA
ATOM     21  C   UNL     1       0.935  35.508 268.026  0.00  0.00    +0.066 C 
ATOM     22  C   UNL     1       1.343  34.730 266.732  0.00  0.00    -0.064 C 
ATOM     23  N   UNL     1       0.768  33.314 266.790  0.00  0.00    +0.379 N 
ATOM     24  C   UNL     1       1.100  32.599 265.549  0.00  0.00    -0.096 C 
ATOM     25  H   UNL     1      -0.342  33.401 266.844  0.00  0.00    -0.082 HD
ATOM     26  C   UNL     1       1.234  32.584 268.042  0.00  0.00    -0.064 C 
ATOM     27  C   UNL     1       0.851  33.380 269.321  0.00  0.00    +0.066 C 
ENDBRANCH  19  20
ENDBRANCH  18  19
ENDBRANCH  14  15
ENDBRANCH  12  13
TORSDOF 6
ENDMDL
MODEL 5
REMARK VINA RESULT:      -6.7      7.423     14.812
REMARK  Name = C:\Users\Docking\Desktop\test protocol\1iep_ligandH.pdb
REMARK  8 active torsions:
REMARK  status: ('A' for Active; 'I' for Inactive)
REMARK    1  A    between atoms: _5  and  _11
REMARK    2  A    between atoms: _19  and  _21
REMARK    3  A    between atoms: _22  and  _66
REMARK    4  A    between atoms: _27  and  _30
REMARK    5  A    between atoms: _32  and  _33
REMARK    6  A    between atoms: _38  and  _43
REMARK    7  A    between atoms: _43  and  _46
REMARK    8  A    between atoms: _53  and  _55
REMARK                            x       y       z     vdW  Elec       q    Type
REMARK                         _______ _______ _______ _____ _____    ______ ____
ROOT
ATOM     10  C   UNL     1      -7.838  40.091 263.281  0.00  0.00    +0.038 A 
ATOM     11  C   UNL     1      -6.578  39.488 263.033  0.00  0.00    +0.047 A 
ATOM     12  C   UNL     1      -6.412  38.499 261.979  0.00  0.00    +0.035 A 
ATOM     32  C   UNL     1      -7.551  38.149 261.196  0.00  0.00    +0.024 A 
ATOM     33  C   UNL     1      -8.838  38.751 261.435  0.00  0.00    +0.007 A 
ATOM     34  C   UNL     1      -9.009  39.726 262.475  0.00  0.00    -0.029 A 
ATOM     35  C   UNL     1     -10.414  40.334 262.691  0.00  0.00    +0.045 C 
ENDROOT
BRANCH  10   9
ATOM      4  C   UNL     1      -8.295  41.284 267.908  0.00  0.00    +0.077 A 
ATOM      5  C   UNL     1      -8.363  39.910 268.316  0.00  0.00    +0.048 A 
ATOM      6  C   UNL     1      -8.284  38.928 267.304  0.00  0.00    +0.116 A 
ATOM      7  N   UNL     1      -8.146  39.302 265.985  0.00  0.00    -0.223 NA
ATOM      8  C   UNL     1      -8.086  40.636 265.625  0.00  0.00    +0.220 A 
ATOM      9  N   UNL     1      -7.940  41.035 264.305  0.00  0.00    -0.283 N 
ATOM     36  H   UNL     1      -7.907  42.029 264.080  0.00  0.00    +0.155 HD
ATOM     37  N   UNL     1      -8.161  41.593 266.573  0.00  0.00    -0.214 NA
BRANCH   4   3
ATOM      1  C   UNL     1      -9.477  43.758 270.697  0.00  0.00    +0.020 A 
ATOM      2  C   UNL     1      -9.461  42.628 269.798  0.00  0.00    +0.013 A 
ATOM      3  C   UNL     1      -8.362  42.437 268.860  0.00  0.00    +0.019 A 
ATOM     38  C   UNL     1      -7.285  43.416 268.859  0.00  0.00    +0.120 A 
ATOM     39  N   UNL     1      -7.328  44.495 269.735  0.00  0.00    -0.263 NA
ATOM     40  C   UNL     1      -8.382  44.690 270.640  0.00  0.00    +0.111 A 
ENDBRANCH   4   3
ENDBRANCH  10   9
BRANCH  12  13
ATOM     13  N   UNL     1      -5.160  37.847 261.686  0.00  0.00    -0.281 N 
ATOM     14  C   UNL     1      -4.510  36.876 262.431  0.00  0.00    +0.248 C 
ATOM     30  O   UNL     1      -4.804  36.574 263.578  0.00  0.00    -0.270 OA
ATOM     31  H   UNL     1      -4.696  38.136 260.825  0.00  0.00    +0.155 HD
BRANCH  14  15
ATOM     15  C   UNL     1      -3.358  36.147 261.819  0.00  0.00    +0.037 A 
ATOM     16  C   UNL     1      -3.548  34.866 261.132  0.00  0.00    +0.013 A 
ATOM     17  C   UNL     1      -2.417  34.175 260.565  0.00  0.00    +0.005 A 
ATOM     18  C   UNL     1      -1.086  34.765 260.681  0.00  0.00    -0.033 A 
ATOM     28  C   UNL     1      -0.927  36.039 261.363  0.00  0.00    +0.005 A 
ATOM     29  C   UNL     1      -2.033  36.719 261.921  0.00  0.00    +0.013 A 
BRANCH  18  19
ATOM     19  C   UNL     1       0.180  34.087 260.125  0.00  0.00    +0.119 C 
BRANCH  19  20
ATOM     20  N   UNL     1       1.249  33.727 261.103  0.00  0.00    -0.302 NA
ATOM     21  C   UNL     1       2.386  32.938 260.447  0.00  0.00    +0.066 C 
ATOM     22  C   UNL     1       3.507  32.589 261.480  0.00  0.00    -0.064 C 
ATOM     23  N   UNL     1       2.898  31.799 262.640  0.00  0.00    +0.379 N 
ATOM     24  C   UNL     1       3.959  31.419 263.585  0.00  0.00    -0.096 C 
ATOM     25  H   UNL     1       2.467  30.860 262.220  0.00  0.00    -0.082 HD
ATOM     26  C   UNL     1       1.765  32.574 263.296  0.00  0.00    -0.064 C 
ATOM     27  C   UNL     1       0.671  32.942 262.255  0.00  0.00    +0.066 C 
ENDBRANCH  19  20
ENDBRANCH  18  19
ENDBRANCH  14  15
ENDBRANCH  12  13
TORSDOF 6
ENDMDL
