MODEL 1
REMARK VINA RESULT:      -8.2      0.000      0.000
REMARK  Name = C:\Users\Docking\Desktop\test protocol\1iep_ligandH.pdb
REMARK  8 active torsions:
REMARK  status: ('A' for Active; 'I' for Inactive)
REMARK    1  A    between atoms: _5  and  _11
REMARK    2  A    between atoms: _19  and  _21
REMARK    3  A    between atoms: _22  and  _66
REMARK    4  A    between atoms: _27  and  _30
REMARK    5  A    between atoms: _32  and  _33
REMARK    6  A    between atoms: _38  and  _43
REMARK    7  A    between atoms: _43  and  _46
REMARK    8  A    between atoms: _53  and  _55
REMARK                            x       y       z     vdW  Elec       q    Type
REMARK                         _______ _______ _______ _____ _____    ______ ____
ROOT
ATOM     10  C   UNL     1      18.690  19.762  17.401  0.00  0.00    +0.038 A 
ATOM     11  C   UNL     1      18.171  18.464  17.638  0.00  0.00    +0.047 A 
ATOM     12  C   UNL     1      18.048  17.937  18.989  0.00  0.00    +0.035 A 
ATOM     32  C   UNL     1      18.462  18.762  20.075  0.00  0.00    +0.024 A 
ATOM     33  C   UNL     1      18.993  20.084  19.852  0.00  0.00    +0.007 A 
ATOM     34  C   UNL     1      19.118  20.608  18.522  0.00  0.00    -0.029 A 
ATOM     35  C   UNL     1      19.700  22.029  18.341  0.00  0.00    +0.045 C 
ENDROOT
BRANCH  10   9
ATOM      4  C   UNL     1      21.197  20.697  13.416  0.00  0.00    +0.077 A 
ATOM      5  C   UNL     1      22.426  20.268  14.018  0.00  0.00    +0.048 A 
ATOM      6  C   UNL     1      22.372  19.821  15.357  0.00  0.00    +0.116 A 
ATOM      7  N   UNL     1      21.171  19.807  16.034  0.00  0.00    -0.223 NA
ATOM      8  C   UNL     1      20.004  20.230  15.425  0.00  0.00    +0.220 A 
ATOM      9  N   UNL     1      18.785  20.217  16.084  0.00  0.00    -0.283 N 
ATOM     36  H   UNL     1      17.948  20.544  15.601  0.00  0.00    +0.155 HD
ATOM     37  N   UNL     1      20.030  20.663  14.147  0.00  0.00    -0.214 NA
BRANCH   4   3
ATOM      1  C   UNL     1      21.900  22.575  10.058  0.00  0.00    +0.020 A 
ATOM      2  C   UNL     1      22.047  22.127  11.423  0.00  0.00    +0.013 A 
ATOM      3  C   UNL     1      21.092  21.194  12.008  0.00  0.00    +0.019 A 
ATOM     38  C   UNL     1      19.991  20.730  11.177  0.00  0.00    +0.120 A 
ATOM     39  N   UNL     1      19.875  21.180   9.865  0.00  0.00    -0.263 NA
ATOM     40  C   UNL     1      20.787  22.079   9.293  0.00  0.00    +0.111 A 
ENDBRANCH   4   3
ENDBRANCH  10   9
BRANCH  12  13
ATOM     13  N   UNL     1      17.537  16.624  19.290  0.00  0.00    -0.281 N 
ATOM     14  C   UNL     1      16.406  16.297  20.021  0.00  0.00    +0.248 C 
ATOM     30  O   UNL     1      15.776  17.087  20.710  0.00  0.00    -0.270 OA
ATOM     31  H   UNL     1      18.073  15.839  18.920  0.00  0.00    +0.155 HD
BRANCH  14  15
ATOM     15  C   UNL     1      15.910  14.888  19.993  0.00  0.00    +0.037 A 
ATOM     16  C   UNL     1      14.665  14.506  20.665  0.00  0.00    +0.013 A 
ATOM     17  C   UNL     1      14.219  13.136  20.637  0.00  0.00    +0.005 A 
ATOM     18  C   UNL     1      15.018  12.136  19.933  0.00  0.00    -0.033 A 
ATOM     28  C   UNL     1      16.246  12.543  19.271  0.00  0.00    +0.005 A 
ATOM     29  C   UNL     1      16.688  13.885  19.297  0.00  0.00    +0.013 A 
BRANCH  18  19
ATOM     19  C   UNL     1      14.629  10.648  19.870  0.00  0.00    +0.119 C 
BRANCH  19  20
ATOM     20  N   UNL     1      14.944   9.911  18.609  0.00  0.00    -0.302 NA
ATOM     21  C   UNL     1      13.957  10.246  17.487  0.00  0.00    +0.066 C 
ATOM     22  C   UNL     1      14.315   9.485  16.169  0.00  0.00    -0.064 C 
ATOM     23  N   UNL     1      14.334   7.980  16.442  0.00  0.00    +0.379 N 
ATOM     24  C   UNL     1      14.613   7.258  15.192  0.00  0.00    -0.096 C 
ATOM     25  H   UNL     1      13.314   7.685  16.783  0.00  0.00    -0.082 HD
ATOM     26  C   UNL     1      15.310   7.639  17.559  0.00  0.00    -0.064 C 
ATOM     27  C   UNL     1      14.964   8.423  18.855  0.00  0.00    +0.066 C 
ENDBRANCH  19  20
ENDBRANCH  18  19
ENDBRANCH  14  15
ENDBRANCH  12  13
TORSDOF 6
ENDMDL
MODEL 2
REMARK VINA RESULT:      -8.1      9.053     13.832
REMARK  Name = C:\Users\Docking\Desktop\test protocol\1iep_ligandH.pdb
REMARK  8 active torsions:
REMARK  status: ('A' for Active; 'I' for Inactive)
REMARK    1  A    between atoms: _5  and  _11
REMARK    2  A    between atoms: _19  and  _21
REMARK    3  A    between atoms: _22  and  _66
REMARK    4  A    between atoms: _27  and  _30
REMARK    5  A    between atoms: _32  and  _33
REMARK    6  A    between atoms: _38  and  _43
REMARK    7  A    between atoms: _43  and  _46
REMARK    8  A    between atoms: _53  and  _55
REMARK                            x       y       z     vdW  Elec       q    Type
REMARK                         _______ _______ _______ _____ _____    ______ ____
ROOT
ATOM     10  C   UNL     1      15.214   8.976  17.952  0.00  0.00    +0.038 A 
ATOM     11  C   UNL     1      15.167   7.577  17.724  0.00  0.00    +0.047 A 
ATOM     12  C   UNL     1      15.326   7.027  16.387  0.00  0.00    +0.035 A 
ATOM     32  C   UNL     1      15.534   7.930  15.305  0.00  0.00    +0.024 A 
ATOM     33  C   UNL     1      15.585   9.355  15.519  0.00  0.00    +0.007 A 
ATOM     34  C   UNL     1      15.426   9.904  16.835  0.00  0.00    -0.029 A 
ATOM     35  C   UNL     1      15.482  11.440  17.004  0.00  0.00    +0.045 C 
ENDROOT
BRANCH  10   9
ATOM      4  C   UNL     1      12.507  10.623  21.558  0.00  0.00    +0.077 A 
ATOM      5  C   UNL     1      11.312  10.558  20.768  0.00  0.00    +0.048 A 
ATOM      6  C   UNL     1      11.438  10.103  19.436  0.00  0.00    +0.116 A 
ATOM      7  N   UNL     1      12.672   9.741  18.942  0.00  0.00    -0.223 NA
ATOM      8  C   UNL     1      13.806   9.816  19.730  0.00  0.00    +0.220 A 
ATOM      9  N   UNL     1      15.056   9.450  19.256  0.00  0.00    -0.283 N 
ATOM     36  H   UNL     1      15.869   9.527  19.867  0.00  0.00    +0.155 HD
ATOM     37  N   UNL     1      13.712  10.250  21.005  0.00  0.00    -0.214 NA
BRANCH   4   3
ATOM      1  C   UNL     1      11.933  10.841  25.421  0.00  0.00    +0.020 A 
ATOM      2  C   UNL     1      11.874  10.356  24.061  0.00  0.00    +0.013 A 
ATOM      3  C   UNL     1      12.537  11.080  22.983  0.00  0.00    +0.019 A 
ATOM     38  C   UNL     1      13.257  12.299  23.318  0.00  0.00    +0.120 A 
ATOM     39  N   UNL     1      13.296  12.742  24.636  0.00  0.00    -0.263 NA
ATOM     40  C   UNL     1      12.660  12.055  25.681  0.00  0.00    +0.111 A 
ENDBRANCH   4   3
ENDBRANCH  10   9
BRANCH  12  13
ATOM     13  N   UNL     1      15.278   5.616  16.094  0.00  0.00    -0.281 N 
ATOM     14  C   UNL     1      16.133   4.623  16.545  0.00  0.00    +0.248 C 
ATOM     30  O   UNL     1      17.200   4.830  17.102  0.00  0.00    -0.270 OA
ATOM     31  H   UNL     1      14.523   5.312  15.479  0.00  0.00    +0.155 HD
BRANCH  14  15
ATOM     15  C   UNL     1      15.753   3.193  16.335  0.00  0.00    +0.037 A 
ATOM     16  C   UNL     1      16.009   2.179  17.361  0.00  0.00    +0.013 A 
ATOM     17  C   UNL     1      15.648   0.804  17.126  0.00  0.00    +0.005 A 
ATOM     18  C   UNL     1      15.025   0.434  15.857  0.00  0.00    -0.033 A 
ATOM     28  C   UNL     1      14.777   1.461  14.859  0.00  0.00    +0.005 A 
ATOM     29  C   UNL     1      15.130   2.810  15.085  0.00  0.00    +0.013 A 
BRANCH  18  19
ATOM     19  C   UNL     1      14.626  -1.013  15.512  0.00  0.00    +0.119 C 
BRANCH  19  20
ATOM     20  N   UNL     1      13.264  -1.228  14.938  0.00  0.00    -0.302 NA
ATOM     21  C   UNL     1      12.382  -2.081  15.856  0.00  0.00    +0.066 C 
ATOM     22  C   UNL     1      10.954  -2.277  15.251  0.00  0.00    -0.064 C 
ATOM     23  N   UNL     1      11.073  -2.917  13.867  0.00  0.00    +0.379 N 
ATOM     24  C   UNL     1       9.730  -3.156  13.320  0.00  0.00    -0.096 C 
ATOM     25  H   UNL     1      11.568  -3.908  13.994  0.00  0.00    -0.082 HD
ATOM     26  C   UNL     1      11.950  -2.077  12.949  0.00  0.00    -0.064 C 
ATOM     27  C   UNL     1      13.358  -1.863  13.573  0.00  0.00    +0.066 C 
ENDBRANCH  19  20
ENDBRANCH  18  19
ENDBRANCH  14  15
ENDBRANCH  12  13
TORSDOF 6
ENDMDL
MODEL 3
REMARK VINA RESULT:      -8.1      9.090     13.881
REMARK  Name = C:\Users\Docking\Desktop\test protocol\1iep_ligandH.pdb
REMARK  8 active torsions:
REMARK  status: ('A' for Active; 'I' for Inactive)
REMARK    1  A    between atoms: _5  and  _11
REMARK    2  A    between atoms: _19  and  _21
REMARK    3  A    between atoms: _22  and  _66
REMARK    4  A    between atoms: _27  and  _30
REMARK    5  A    between atoms: _32  and  _33
REMARK    6  A    between atoms: _38  and  _43
REMARK    7  A    between atoms: _43  and  _46
REMARK    8  A    between atoms: _53  and  _55
REMARK                            x       y       z     vdW  Elec       q    Type
REMARK                         _______ _______ _______ _____ _____    ______ ____
ROOT
ATOM     10  C   UNL     1      15.165   8.957  17.975  0.00  0.00    +0.038 A 
ATOM     11  C   UNL     1      15.130   7.561  17.728  0.00  0.00    +0.047 A 
ATOM     12  C   UNL     1      15.296   7.030  16.384  0.00  0.00    +0.035 A 
ATOM     32  C   UNL     1      15.498   7.950  15.314  0.00  0.00    +0.024 A 
ATOM     33  C   UNL     1      15.535   9.372  15.547  0.00  0.00    +0.007 A 
ATOM     34  C   UNL     1      15.370   9.902  16.870  0.00  0.00    -0.029 A 
ATOM     35  C   UNL     1      15.413  11.436  17.060  0.00  0.00    +0.045 C 
ENDROOT
BRANCH  10   9
ATOM      4  C   UNL     1      12.449  10.595  21.577  0.00  0.00    +0.077 A 
ATOM      5  C   UNL     1      11.262  10.568  20.773  0.00  0.00    +0.048 A 
ATOM      6  C   UNL     1      11.394  10.132  19.435  0.00  0.00    +0.116 A 
ATOM      7  N   UNL     1      12.627   9.755  18.949  0.00  0.00    -0.223 NA
ATOM      8  C   UNL     1      13.752   9.795  19.751  0.00  0.00    +0.220 A 
ATOM      9  N   UNL     1      15.001   9.412  19.285  0.00  0.00    -0.283 N 
ATOM     36  H   UNL     1      15.808   9.463  19.906  0.00  0.00    +0.155 HD
ATOM     37  N   UNL     1      13.653  10.208  21.031  0.00  0.00    -0.214 NA
BRANCH   4   3
ATOM      1  C   UNL     1      13.215  12.557  24.873  0.00  0.00    +0.020 A 
ATOM      2  C   UNL     1      13.228  12.182  23.478  0.00  0.00    +0.013 A 
ATOM      3  C   UNL     1      12.471  11.028  23.010  0.00  0.00    +0.019 A 
ATOM     38  C   UNL     1      11.703  10.270  23.987  0.00  0.00    +0.120 A 
ATOM     39  N   UNL     1      11.710  10.655  25.324  0.00  0.00    -0.263 NA
ATOM     40  C   UNL     1      12.437  11.762  25.786  0.00  0.00    +0.111 A 
ENDBRANCH   4   3
ENDBRANCH  10   9
BRANCH  12  13
ATOM     13  N   UNL     1      15.261   5.622  16.072  0.00  0.00    -0.281 N 
ATOM     14  C   UNL     1      16.127   4.632  16.506  0.00  0.00    +0.248 C 
ATOM     30  O   UNL     1      17.195   4.843  17.061  0.00  0.00    -0.270 OA
ATOM     31  H   UNL     1      14.507   5.319  15.456  0.00  0.00    +0.155 HD
BRANCH  14  15
ATOM     15  C   UNL     1      15.760   3.201  16.278  0.00  0.00    +0.037 A 
ATOM     16  C   UNL     1      15.184   2.758  15.006  0.00  0.00    +0.013 A 
ATOM     17  C   UNL     1      14.823   1.375  14.818  0.00  0.00    +0.005 A 
ATOM     18  C   UNL     1      15.040   0.424  15.906  0.00  0.00    -0.033 A 
ATOM     28  C   UNL     1      15.619   0.890  17.156  0.00  0.00    +0.005 A 
ATOM     29  C   UNL     1      15.972   2.245  17.344  0.00  0.00    +0.013 A 
BRANCH  18  19
ATOM     19  C   UNL     1      14.666  -1.066  15.801  0.00  0.00    +0.119 C 
BRANCH  19  20
ATOM     20  N   UNL     1      13.232  -1.427  16.012  0.00  0.00    -0.302 NA
ATOM     21  C   UNL     1      13.074  -2.623  16.956  0.00  0.00    +0.066 C 
ATOM     22  C   UNL     1      11.567  -2.973  17.183  0.00  0.00    -0.064 C 
ATOM     23  N   UNL     1      10.903  -3.256  15.834  0.00  0.00    +0.379 N 
ATOM     24  C   UNL     1       9.501  -3.642  16.049  0.00  0.00    -0.096 C 
ATOM     25  H   UNL     1      11.427  -4.126  15.375  0.00  0.00    -0.082 HD
ATOM     26  C   UNL     1      11.058  -2.073  14.889  0.00  0.00    -0.064 C 
ATOM     27  C   UNL     1      12.558  -1.714  14.693  0.00  0.00    +0.066 C 
ENDBRANCH  19  20
ENDBRANCH  18  19
ENDBRANCH  14  15
ENDBRANCH  12  13
TORSDOF 6
ENDMDL
MODEL 4
REMARK VINA RESULT:      -8.0      2.035      2.387
REMARK  Name = C:\Users\Docking\Desktop\test protocol\1iep_ligandH.pdb
REMARK  8 active torsions:
REMARK  status: ('A' for Active; 'I' for Inactive)
REMARK    1  A    between atoms: _5  and  _11
REMARK    2  A    between atoms: _19  and  _21
REMARK    3  A    between atoms: _22  and  _66
REMARK    4  A    between atoms: _27  and  _30
REMARK    5  A    between atoms: _32  and  _33
REMARK    6  A    between atoms: _38  and  _43
REMARK    7  A    between atoms: _43  and  _46
REMARK    8  A    between atoms: _53  and  _55
REMARK                            x       y       z     vdW  Elec       q    Type
REMARK                         _______ _______ _______ _____ _____    ______ ____
ROOT
ATOM     10  C   UNL     1      19.261  19.733  17.050  0.00  0.00    +0.038 A 
ATOM     11  C   UNL     1      18.864  18.372  17.067  0.00  0.00    +0.047 A 
ATOM     12  C   UNL     1      18.853  17.606  18.304  0.00  0.00    +0.035 A 
ATOM     32  C   UNL     1      19.251  18.260  19.506  0.00  0.00    +0.024 A 
ATOM     33  C   UNL     1      19.660  19.643  19.507  0.00  0.00    +0.007 A 
ATOM     34  C   UNL     1      19.674  20.402  18.289  0.00  0.00    -0.029 A 
ATOM     35  C   UNL     1      20.127  21.880  18.348  0.00  0.00    +0.045 C 
ENDROOT
BRANCH  10   9
ATOM      4  C   UNL     1      21.337  21.095  12.942  0.00  0.00    +0.077 A 
ATOM      5  C   UNL     1      22.553  20.401  13.258  0.00  0.00    +0.048 A 
ATOM      6  C   UNL     1      22.605  19.712  14.490  0.00  0.00    +0.116 A 
ATOM      7  N   UNL     1      21.518  19.722  15.336  0.00  0.00    -0.223 NA
ATOM      8  C   UNL     1      20.361  20.403  15.002  0.00  0.00    +0.220 A 
ATOM      9  N   UNL     1      19.252  20.420  15.834  0.00  0.00    -0.283 N 
ATOM     36  H   UNL     1      18.421  20.940  15.555  0.00  0.00    +0.155 HD
ATOM     37  N   UNL     1      20.286  21.070  13.831  0.00  0.00    -0.214 NA
BRANCH   4   3
ATOM      1  C   UNL     1      21.964  23.199   9.705  0.00  0.00    +0.020 A 
ATOM      2  C   UNL     1      22.221  22.464  10.922  0.00  0.00    +0.013 A 
ATOM      3  C   UNL     1      21.127  21.867  11.676  0.00  0.00    +0.019 A 
ATOM     38  C   UNL     1      19.774  22.032  11.168  0.00  0.00    +0.120 A 
ATOM     39  N   UNL     1      19.556  22.746   9.994  0.00  0.00    -0.263 NA
ATOM     40  C   UNL     1      20.601  23.327   9.260  0.00  0.00    +0.111 A 
ENDBRANCH   4   3
ENDBRANCH  10   9
BRANCH  12  13
ATOM     13  N   UNL     1      18.467  16.219  18.381  0.00  0.00    -0.281 N 
ATOM     14  C   UNL     1      19.289  15.104  18.367  0.00  0.00    +0.248 C 
ATOM     30  O   UNL     1      20.474  15.123  18.070  0.00  0.00    -0.270 OA
ATOM     31  H   UNL     1      17.466  16.037  18.455  0.00  0.00    +0.155 HD
BRANCH  14  15
ATOM     15  C   UNL     1      18.707  13.774  18.721  0.00  0.00    +0.037 A 
ATOM     16  C   UNL     1      18.015  13.562  19.995  0.00  0.00    +0.013 A 
ATOM     17  C   UNL     1      17.478  12.264  20.319  0.00  0.00    +0.005 A 
ATOM     18  C   UNL     1      17.631  11.167  19.365  0.00  0.00    -0.033 A 
ATOM     28  C   UNL     1      18.317  11.407  18.107  0.00  0.00    +0.005 A 
ATOM     29  C   UNL     1      18.846  12.677  17.787  0.00  0.00    +0.013 A 
BRANCH  18  19
ATOM     19  C   UNL     1      17.108   9.744  19.637  0.00  0.00    +0.119 C 
BRANCH  19  20
ATOM     20  N   UNL     1      15.644   9.507  19.457  0.00  0.00    -0.302 NA
ATOM     21  C   UNL     1      15.060  10.358  18.325  0.00  0.00    +0.066 C 
ATOM     22  C   UNL     1      13.533  10.081  18.136  0.00  0.00    -0.064 C 
ATOM     23  N   UNL     1      12.801  10.353  19.451  0.00  0.00    +0.379 N 
ATOM     24  C   UNL     1      11.357  10.149  19.261  0.00  0.00    -0.096 C 
ATOM     25  H   UNL     1      12.960  11.425  19.711  0.00  0.00    -0.082 HD
ATOM     26  C   UNL     1      13.378   9.513  20.582  0.00  0.00    -0.064 C 
ATOM     27  C   UNL     1      14.901   9.774  20.743  0.00  0.00    +0.066 C 
ENDBRANCH  19  20
ENDBRANCH  18  19
ENDBRANCH  14  15
ENDBRANCH  12  13
TORSDOF 6
ENDMDL
MODEL 5
REMARK VINA RESULT:      -8.0      9.083     13.431
REMARK  Name = C:\Users\Docking\Desktop\test protocol\1iep_ligandH.pdb
REMARK  8 active torsions:
REMARK  status: ('A' for Active; 'I' for Inactive)
REMARK    1  A    between atoms: _5  and  _11
REMARK    2  A    between atoms: _19  and  _21
REMARK    3  A    between atoms: _22  and  _66
REMARK    4  A    between atoms: _27  and  _30
REMARK    5  A    between atoms: _32  and  _33
REMARK    6  A    between atoms: _38  and  _43
REMARK    7  A    between atoms: _43  and  _46
REMARK    8  A    between atoms: _53  and  _55
REMARK                            x       y       z     vdW  Elec       q    Type
REMARK                         _______ _______ _______ _____ _____    ______ ____
ROOT
ATOM     10  C   UNL     1      14.901   9.027  17.550  0.00  0.00    +0.038 A 
ATOM     11  C   UNL     1      15.241   7.668  17.770  0.00  0.00    +0.047 A 
ATOM     12  C   UNL     1      15.225   6.702  16.682  0.00  0.00    +0.035 A 
ATOM     32  C   UNL     1      14.860   7.156  15.382  0.00  0.00    +0.024 A 
ATOM     33  C   UNL     1      14.510   8.534  15.140  0.00  0.00    +0.007 A 
ATOM     34  C   UNL     1      14.522   9.490  16.210  0.00  0.00    -0.029 A 
ATOM     35  C   UNL     1      14.131  10.953  15.894  0.00  0.00    +0.045 C 
ENDROOT
BRANCH  10   9
ATOM      4  C   UNL     1      12.783  11.386  21.153  0.00  0.00    +0.077 A 
ATOM      5  C   UNL     1      11.498  10.830  20.840  0.00  0.00    +0.048 A 
ATOM      6  C   UNL     1      11.423   9.947  19.740  0.00  0.00    +0.116 A 
ATOM      7  N   UNL     1      12.556   9.649  19.014  0.00  0.00    -0.223 NA
ATOM      8  C   UNL     1      13.780  10.203  19.342  0.00  0.00    +0.220 A 
ATOM      9  N   UNL     1      14.933   9.911  18.630  0.00  0.00    -0.283 N 
ATOM     36  H   UNL     1      15.815  10.347  18.899  0.00  0.00    +0.155 HD
ATOM     37  N   UNL     1      13.877  11.051  20.387  0.00  0.00    -0.214 NA
BRANCH   4   3
ATOM      1  C   UNL     1      13.322  14.647  23.245  0.00  0.00    +0.020 A 
ATOM      2  C   UNL     1      13.088  13.777  22.115  0.00  0.00    +0.013 A 
ATOM      3  C   UNL     1      13.023  12.332  22.289  0.00  0.00    +0.019 A 
ATOM     38  C   UNL     1      13.200  11.794  23.629  0.00  0.00    +0.120 A 
ATOM     39  N   UNL     1      13.426  12.656  24.698  0.00  0.00    -0.263 NA
ATOM     40  C   UNL     1      13.492  14.048  24.543  0.00  0.00    +0.111 A 
ENDBRANCH   4   3
ENDBRANCH  10   9
BRANCH  12  13
ATOM     13  N   UNL     1      15.554   5.308  16.848  0.00  0.00    -0.281 N 
ATOM     14  C   UNL     1      16.804   4.745  17.043  0.00  0.00    +0.248 C 
ATOM     30  O   UNL     1      17.861   5.339  16.891  0.00  0.00    -0.270 OA
ATOM     31  H   UNL     1      14.769   4.657  16.817  0.00  0.00    +0.155 HD
BRANCH  14  15
ATOM     15  C   UNL     1      16.894   3.310  17.452  0.00  0.00    +0.037 A 
ATOM     16  C   UNL     1      18.016   2.818  18.256  0.00  0.00    +0.013 A 
ATOM     17  C   UNL     1      18.087   1.425  18.622  0.00  0.00    +0.005 A 
ATOM     18  C   UNL     1      17.031   0.515  18.186  0.00  0.00    -0.033 A 
ATOM     28  C   UNL     1      15.927   1.031  17.393  0.00  0.00    +0.005 A 
ATOM     29  C   UNL     1      15.854   2.395  17.031  0.00  0.00    +0.013 A 
BRANCH  18  19
ATOM     19  C   UNL     1      17.036  -0.990  18.512  0.00  0.00    +0.119 C 
BRANCH  19  20
ATOM     20  N   UNL     1      15.778  -1.751  18.250  0.00  0.00    -0.302 NA
ATOM     21  C   UNL     1      15.194  -2.354  19.531  0.00  0.00    +0.066 C 
ATOM     22  C   UNL     1      13.866  -3.128  19.241  0.00  0.00    -0.064 C 
ATOM     23  N   UNL     1      14.131  -4.218  18.201  0.00  0.00    +0.379 N 
ATOM     24  C   UNL     1      12.898  -4.985  17.970  0.00  0.00    -0.096 C 
ATOM     25  H   UNL     1      14.889  -4.915  18.628  0.00  0.00    -0.082 HD
ATOM     26  C   UNL     1      14.715  -3.627  16.926  0.00  0.00    -0.064 C 
ATOM     27  C   UNL     1      16.018  -2.836  17.229  0.00  0.00    +0.066 C 
ENDBRANCH  19  20
ENDBRANCH  18  19
ENDBRANCH  14  15
ENDBRANCH  12  13
TORSDOF 6
ENDMDL
