MODEL 1
REMARK VINA RESULT:      -8.8      0.000      0.000
REMARK  Name = C:\Users\Docking\Desktop\test protocol\1iep_ligandH.pdb
REMARK  8 active torsions:
REMARK  status: ('A' for Active; 'I' for Inactive)
REMARK    1  A    between atoms: _5  and  _11
REMARK    2  A    between atoms: _19  and  _21
REMARK    3  A    between atoms: _22  and  _66
REMARK    4  A    between atoms: _27  and  _30
REMARK    5  A    between atoms: _32  and  _33
REMARK    6  A    between atoms: _38  and  _43
REMARK    7  A    between atoms: _43  and  _46
REMARK    8  A    between atoms: _53  and  _55
REMARK                            x       y       z     vdW  Elec       q    Type
REMARK                         _______ _______ _______ _____ _____    ______ ____
ROOT
ATOM     10  C   UNL     1      10.512  26.762  20.023  0.00  0.00    +0.038 A 
ATOM     11  C   UNL     1       9.904  27.958  19.562  0.00  0.00    +0.047 A 
ATOM     12  C   UNL     1       8.848  28.607  20.323  0.00  0.00    +0.035 A 
ATOM     32  C   UNL     1       8.437  28.011  21.551  0.00  0.00    +0.024 A 
ATOM     33  C   UNL     1       9.043  26.796  22.034  0.00  0.00    +0.007 A 
ATOM     34  C   UNL     1      10.083  26.150  21.286  0.00  0.00    -0.029 A 
ATOM     35  C   UNL     1      10.693  24.844  21.848  0.00  0.00    +0.045 C 
ENDROOT
BRANCH  10   9
ATOM      4  C   UNL     1      12.081  23.520  16.850  0.00  0.00    +0.077 A 
ATOM      5  C   UNL     1      10.785  22.914  16.740  0.00  0.00    +0.048 A 
ATOM      6  C   UNL     1       9.743  23.462  17.521  0.00  0.00    +0.116 A 
ATOM      7  N   UNL     1       9.991  24.536  18.348  0.00  0.00    -0.223 NA
ATOM      8  C   UNL     1      11.252  25.096  18.433  0.00  0.00    +0.220 A 
ATOM      9  N   UNL     1      11.522  26.181  19.252  0.00  0.00    -0.283 N 
ATOM     36  H   UNL     1      12.467  26.561  19.292  0.00  0.00    +0.155 HD
ATOM     37  N   UNL     1      12.264  24.589  17.698  0.00  0.00    -0.214 NA
BRANCH   4   3
ATOM      1  C   UNL     1      14.490  22.497  13.943  0.00  0.00    +0.020 A 
ATOM      2  C   UNL     1      13.304  22.950  14.633  0.00  0.00    +0.013 A 
ATOM      3  C   UNL     1      13.282  23.056  16.086  0.00  0.00    +0.019 A 
ATOM     38  C   UNL     1      14.486  22.693  16.818  0.00  0.00    +0.120 A 
ATOM     39  N   UNL     1      15.613  22.258  16.127  0.00  0.00    -0.263 NA
ATOM     40  C   UNL     1      15.645  22.151  14.729  0.00  0.00    +0.111 A 
ENDBRANCH   4   3
ENDBRANCH  10   9
BRANCH  12  13
ATOM     13  N   UNL     1       8.188  29.818  19.901  0.00  0.00    -0.281 N 
ATOM     14  C   UNL     1       7.820  30.902  20.680  0.00  0.00    +0.248 C 
ATOM     30  O   UNL     1       7.810  30.904  21.902  0.00  0.00    -0.270 OA
ATOM     31  H   UNL     1       7.966  29.883  18.908  0.00  0.00    +0.155 HD
BRANCH  14  15
ATOM     15  C   UNL     1       7.385  32.162  20.004  0.00  0.00    +0.037 A 
ATOM     16  C   UNL     1       8.292  33.306  19.873  0.00  0.00    +0.013 A 
ATOM     17  C   UNL     1       7.842  34.516  19.232  0.00  0.00    +0.005 A 
ATOM     18  C   UNL     1       6.478  34.588  18.714  0.00  0.00    -0.033 A 
ATOM     28  C   UNL     1       5.601  33.436  18.853  0.00  0.00    +0.005 A 
ATOM     29  C   UNL     1       6.038  32.249  19.482  0.00  0.00    +0.013 A 
BRANCH  18  19
ATOM     19  C   UNL     1       5.907  35.846  18.034  0.00  0.00    +0.119 C 
BRANCH  19  20
ATOM     20  N   UNL     1       5.868  37.102  18.841  0.00  0.00    -0.302 NA
ATOM     21  C   UNL     1       4.943  36.976  20.055  0.00  0.00    +0.066 C 
ATOM     22  C   UNL     1       4.932  38.291  20.900  0.00  0.00    -0.064 C 
ATOM     23  N   UNL     1       4.505  39.462  20.012  0.00  0.00    +0.379 N 
ATOM     24  C   UNL     1       4.438  40.690  20.818  0.00  0.00    -0.096 C 
ATOM     25  H   UNL     1       3.478  39.246  19.638  0.00  0.00    -0.082 HD
ATOM     26  C   UNL     1       5.419  39.592  18.802  0.00  0.00    -0.064 C 
ATOM     27  C   UNL     1       5.445  38.270  17.985  0.00  0.00    +0.066 C 
ENDBRANCH  19  20
ENDBRANCH  18  19
ENDBRANCH  14  15
ENDBRANCH  12  13
TORSDOF 6
ENDMDL
MODEL 2
REMARK VINA RESULT:      -8.7      8.148     12.934
REMARK  Name = C:\Users\Docking\Desktop\test protocol\1iep_ligandH.pdb
REMARK  8 active torsions:
REMARK  status: ('A' for Active; 'I' for Inactive)
REMARK    1  A    between atoms: _5  and  _11
REMARK    2  A    between atoms: _19  and  _21
REMARK    3  A    between atoms: _22  and  _66
REMARK    4  A    between atoms: _27  and  _30
REMARK    5  A    between atoms: _32  and  _33
REMARK    6  A    between atoms: _38  and  _43
REMARK    7  A    between atoms: _43  and  _46
REMARK    8  A    between atoms: _53  and  _55
REMARK                            x       y       z     vdW  Elec       q    Type
REMARK                         _______ _______ _______ _____ _____    ______ ____
ROOT
ATOM     10  C   UNL     1      20.122  23.772  13.929  0.00  0.00    +0.038 A 
ATOM     11  C   UNL     1      18.933  23.945  14.683  0.00  0.00    +0.047 A 
ATOM     12  C   UNL     1      17.676  23.353  14.251  0.00  0.00    +0.035 A 
ATOM     32  C   UNL     1      17.667  22.590  13.048  0.00  0.00    +0.024 A 
ATOM     33  C   UNL     1      18.866  22.405  12.269  0.00  0.00    +0.007 A 
ATOM     34  C   UNL     1      20.109  22.988  12.688  0.00  0.00    -0.029 A 
ATOM     35  C   UNL     1      21.362  22.763  11.811  0.00  0.00    +0.045 C 
ENDROOT
BRANCH  10   9
ATOM      4  C   UNL     1      22.854  27.609  14.855  0.00  0.00    +0.077 A 
ATOM      5  C   UNL     1      21.859  28.512  14.353  0.00  0.00    +0.048 A 
ATOM      6  C   UNL     1      20.661  27.949  13.859  0.00  0.00    +0.116 A 
ATOM      7  N   UNL     1      20.483  26.582  13.871  0.00  0.00    -0.223 NA
ATOM      8  C   UNL     1      21.463  25.739  14.361  0.00  0.00    +0.220 A 
ATOM      9  N   UNL     1      21.301  24.363  14.390  0.00  0.00    -0.283 N 
ATOM     36  H   UNL     1      22.051  23.774  14.753  0.00  0.00    +0.155 HD
ATOM     37  N   UNL     1      22.616  26.252  14.837  0.00  0.00    -0.214 NA
BRANCH   4   3
ATOM      1  C   UNL     1      25.743  29.811  16.306  0.00  0.00    +0.020 A 
ATOM      2  C   UNL     1      24.455  29.436  15.770  0.00  0.00    +0.013 A 
ATOM      3  C   UNL     1      24.171  28.052  15.413  0.00  0.00    +0.019 A 
ATOM     38  C   UNL     1      25.220  27.063  15.614  0.00  0.00    +0.120 A 
ATOM     39  N   UNL     1      26.451  27.454  16.131  0.00  0.00    -0.263 NA
ATOM     40  C   UNL     1      26.736  28.783  16.476  0.00  0.00    +0.111 A 
ENDBRANCH   4   3
ENDBRANCH  10   9
BRANCH  12  13
ATOM     13  N   UNL     1      16.436  23.501  14.971  0.00  0.00    -0.281 N 
ATOM     14  C   UNL     1      16.052  22.873  16.144  0.00  0.00    +0.248 C 
ATOM     30  O   UNL     1      16.635  21.921  16.642  0.00  0.00    -0.270 OA
ATOM     31  H   UNL     1      15.758  24.147  14.566  0.00  0.00    +0.155 HD
BRANCH  14  15
ATOM     15  C   UNL     1      14.835  23.363  16.861  0.00  0.00    +0.037 A 
ATOM     16  C   UNL     1      13.512  23.312  16.235  0.00  0.00    +0.013 A 
ATOM     17  C   UNL     1      12.357  23.807  16.942  0.00  0.00    +0.005 A 
ATOM     18  C   UNL     1      12.522  24.357  18.286  0.00  0.00    -0.033 A 
ATOM     28  C   UNL     1      13.846  24.390  18.885  0.00  0.00    +0.005 A 
ATOM     29  C   UNL     1      14.979  23.907  18.195  0.00  0.00    +0.013 A 
BRANCH  18  19
ATOM     19  C   UNL     1      11.349  24.927  19.105  0.00  0.00    +0.119 C 
BRANCH  19  20
ATOM     20  N   UNL     1      10.032  24.235  18.987  0.00  0.00    -0.302 NA
ATOM     21  C   UNL     1       9.080  24.969  18.038  0.00  0.00    +0.066 C 
ATOM     22  C   UNL     1       7.715  24.219  17.907  0.00  0.00    -0.064 C 
ATOM     23  N   UNL     1       7.086  24.066  19.293  0.00  0.00    +0.379 N 
ATOM     24  C   UNL     1       5.775  23.413  19.168  0.00  0.00    -0.096 C 
ATOM     25  H   UNL     1       6.916  25.090  19.702  0.00  0.00    -0.082 HD
ATOM     26  C   UNL     1       8.026  23.339  20.244  0.00  0.00    -0.064 C 
ATOM     27  C   UNL     1       9.391  24.077  20.344  0.00  0.00    +0.066 C 
ENDBRANCH  19  20
ENDBRANCH  18  19
ENDBRANCH  14  15
ENDBRANCH  12  13
TORSDOF 6
ENDMDL
MODEL 3
REMARK VINA RESULT:      -8.6      7.673     14.977
REMARK  Name = C:\Users\Docking\Desktop\test protocol\1iep_ligandH.pdb
REMARK  8 active torsions:
REMARK  status: ('A' for Active; 'I' for Inactive)
REMARK    1  A    between atoms: _5  and  _11
REMARK    2  A    between atoms: _19  and  _21
REMARK    3  A    between atoms: _22  and  _66
REMARK    4  A    between atoms: _27  and  _30
REMARK    5  A    between atoms: _32  and  _33
REMARK    6  A    between atoms: _38  and  _43
REMARK    7  A    between atoms: _43  and  _46
REMARK    8  A    between atoms: _53  and  _55
REMARK                            x       y       z     vdW  Elec       q    Type
REMARK                         _______ _______ _______ _____ _____    ______ ____
ROOT
ATOM     10  C   UNL     1      15.408  23.144  14.638  0.00  0.00    +0.038 A 
ATOM     11  C   UNL     1      16.529  23.990  14.833  0.00  0.00    +0.047 A 
ATOM     12  C   UNL     1      17.850  23.611  14.357  0.00  0.00    +0.035 A 
ATOM     32  C   UNL     1      17.992  22.363  13.683  0.00  0.00    +0.024 A 
ATOM     33  C   UNL     1      16.864  21.489  13.478  0.00  0.00    +0.007 A 
ATOM     34  C   UNL     1      15.559  21.857  13.948  0.00  0.00    -0.029 A 
ATOM     35  C   UNL     1      14.386  20.879  13.705  0.00  0.00    +0.045 C 
ENDROOT
BRANCH  10   9
ATOM      4  C   UNL     1      12.369  24.155  18.214  0.00  0.00    +0.077 A 
ATOM      5  C   UNL     1      13.336  23.804  19.214  0.00  0.00    +0.048 A 
ATOM      6  C   UNL     1      14.601  23.360  18.766  0.00  0.00    +0.116 A 
ATOM      7  N   UNL     1      14.868  23.279  17.417  0.00  0.00    -0.223 NA
ATOM      8  C   UNL     1      13.913  23.624  16.479  0.00  0.00    +0.220 A 
ATOM      9  N   UNL     1      14.162  23.558  15.116  0.00  0.00    -0.283 N 
ATOM     36  H   UNL     1      13.429  23.814  14.456  0.00  0.00    +0.155 HD
ATOM     37  N   UNL     1      12.697  24.049  16.880  0.00  0.00    -0.214 NA
BRANCH   4   3
ATOM      1  C   UNL     1       9.071  26.257  18.247  0.00  0.00    +0.020 A 
ATOM      2  C   UNL     1      10.408  25.828  17.908  0.00  0.00    +0.013 A 
ATOM      3  C   UNL     1      10.990  24.644  18.529  0.00  0.00    +0.019 A 
ATOM     38  C   UNL     1      10.186  23.912  19.496  0.00  0.00    +0.120 A 
ATOM     39  N   UNL     1       8.902  24.350  19.804  0.00  0.00    -0.263 NA
ATOM     40  C   UNL     1       8.332  25.488  19.214  0.00  0.00    +0.111 A 
ENDBRANCH   4   3
ENDBRANCH  10   9
BRANCH  12  13
ATOM     13  N   UNL     1      19.027  24.425  14.532  0.00  0.00    -0.281 N 
ATOM     14  C   UNL     1      19.669  25.209  13.588  0.00  0.00    +0.248 C 
ATOM     30  O   UNL     1      19.451  25.161  12.386  0.00  0.00    -0.270 OA
ATOM     31  H   UNL     1      19.436  24.424  15.467  0.00  0.00    +0.155 HD
BRANCH  14  15
ATOM     15  C   UNL     1      20.714  26.176  14.042  0.00  0.00    +0.037 A 
ATOM     16  C   UNL     1      20.423  27.607  14.167  0.00  0.00    +0.013 A 
ATOM     17  C   UNL     1      21.454  28.520  14.591  0.00  0.00    +0.005 A 
ATOM     18  C   UNL     1      22.787  28.005  14.894  0.00  0.00    -0.033 A 
ATOM     28  C   UNL     1      23.047  26.581  14.766  0.00  0.00    +0.005 A 
ATOM     29  C   UNL     1      22.039  25.682  14.350  0.00  0.00    +0.013 A 
BRANCH  18  19
ATOM     19  C   UNL     1      23.954  28.910  15.332  0.00  0.00    +0.119 C 
BRANCH  19  20
ATOM     20  N   UNL     1      25.318  28.304  15.353  0.00  0.00    -0.302 NA
ATOM     21  C   UNL     1      25.766  27.945  16.773  0.00  0.00    +0.066 C 
ATOM     22  C   UNL     1      27.186  27.292  16.775  0.00  0.00    -0.064 C 
ATOM     23  N   UNL     1      28.184  28.247  16.117  0.00  0.00    +0.379 N 
ATOM     24  C   UNL     1      29.531  27.660  16.169  0.00  0.00    -0.096 C 
ATOM     25  H   UNL     1      28.201  29.185  16.718  0.00  0.00    -0.082 HD
ATOM     26  C   UNL     1      27.745  28.610  14.706  0.00  0.00    -0.064 C 
ATOM     27  C   UNL     1      26.321  29.232  14.713  0.00  0.00    +0.066 C 
ENDBRANCH  19  20
ENDBRANCH  18  19
ENDBRANCH  14  15
ENDBRANCH  12  13
TORSDOF 6
ENDMDL
MODEL 4
REMARK VINA RESULT:      -8.6      3.426     14.003
REMARK  Name = C:\Users\Docking\Desktop\test protocol\1iep_ligandH.pdb
REMARK  8 active torsions:
REMARK  status: ('A' for Active; 'I' for Inactive)
REMARK    1  A    between atoms: _5  and  _11
REMARK    2  A    between atoms: _19  and  _21
REMARK    3  A    between atoms: _22  and  _66
REMARK    4  A    between atoms: _27  and  _30
REMARK    5  A    between atoms: _32  and  _33
REMARK    6  A    between atoms: _38  and  _43
REMARK    7  A    between atoms: _43  and  _46
REMARK    8  A    between atoms: _53  and  _55
REMARK                            x       y       z     vdW  Elec       q    Type
REMARK                         _______ _______ _______ _____ _____    ______ ____
ROOT
ATOM     10  C   UNL     1       9.504  26.096  18.887  0.00  0.00    +0.038 A 
ATOM     11  C   UNL     1      10.835  25.911  18.432  0.00  0.00    +0.047 A 
ATOM     12  C   UNL     1      11.468  24.602  18.470  0.00  0.00    +0.035 A 
ATOM     32  C   UNL     1      10.716  23.502  18.975  0.00  0.00    +0.024 A 
ATOM     33  C   UNL     1       9.363  23.672  19.443  0.00  0.00    +0.007 A 
ATOM     34  C   UNL     1       8.734  24.961  19.410  0.00  0.00    -0.029 A 
ATOM     35  C   UNL     1       7.283  25.086  19.930  0.00  0.00    +0.045 C 
ENDROOT
BRANCH  10   9
ATOM      4  C   UNL     1       8.206  30.246  20.918  0.00  0.00    +0.077 A 
ATOM      5  C   UNL     1       8.656  29.821  22.213  0.00  0.00    +0.048 A 
ATOM      6  C   UNL     1       9.208  28.525  22.314  0.00  0.00    +0.116 A 
ATOM      7  N   UNL     1       9.300  27.722  21.198  0.00  0.00    -0.223 NA
ATOM      8  C   UNL     1       8.855  28.162  19.965  0.00  0.00    +0.220 A 
ATOM      9  N   UNL     1       8.945  27.374  18.828  0.00  0.00    -0.283 N 
ATOM     36  H   UNL     1       8.599  27.732  17.938  0.00  0.00    +0.155 HD
ATOM     37  N   UNL     1       8.323  29.395  19.842  0.00  0.00    -0.214 NA
BRANCH   4   3
ATOM      1  C   UNL     1       6.157  33.558  21.281  0.00  0.00    +0.020 A 
ATOM      2  C   UNL     1       6.713  32.261  21.589  0.00  0.00    +0.013 A 
ATOM      3  C   UNL     1       7.603  31.590  20.649  0.00  0.00    +0.019 A 
ATOM     38  C   UNL     1       7.913  32.264  19.398  0.00  0.00    +0.120 A 
ATOM     39  N   UNL     1       7.362  33.513  19.128  0.00  0.00    -0.263 NA
ATOM     40  C   UNL     1       6.503  34.168  20.024  0.00  0.00    +0.111 A 
ENDBRANCH   4   3
ENDBRANCH  10   9
BRANCH  12  13
ATOM     13  N   UNL     1      12.819  24.356  18.029  0.00  0.00    -0.281 N 
ATOM     14  C   UNL     1      13.235  23.646  16.914  0.00  0.00    +0.248 C 
ATOM     30  O   UNL     1      12.509  22.931  16.240  0.00  0.00    -0.270 OA
ATOM     31  H   UNL     1      13.558  24.753  18.609  0.00  0.00    +0.155 HD
BRANCH  14  15
ATOM     15  C   UNL     1      14.667  23.733  16.497  0.00  0.00    +0.037 A 
ATOM     16  C   UNL     1      15.726  24.023  17.467  0.00  0.00    +0.013 A 
ATOM     17  C   UNL     1      17.098  24.118  17.035  0.00  0.00    +0.005 A 
ATOM     18  C   UNL     1      17.419  23.920  15.623  0.00  0.00    -0.033 A 
ATOM     28  C   UNL     1      16.350  23.628  14.683  0.00  0.00    +0.005 A 
ATOM     29  C   UNL     1      15.004  23.536  15.103  0.00  0.00    +0.013 A 
BRANCH  18  19
ATOM     19  C   UNL     1      18.852  24.024  15.069  0.00  0.00    +0.119 C 
BRANCH  19  20
ATOM     20  N   UNL     1      19.270  23.006  14.059  0.00  0.00    -0.302 NA
ATOM     21  C   UNL     1      19.157  21.579  14.601  0.00  0.00    +0.066 C 
ATOM     22  C   UNL     1      19.576  20.526  13.524  0.00  0.00    -0.064 C 
ATOM     23  N   UNL     1      21.004  20.817  13.059  0.00  0.00    +0.379 N 
ATOM     24  C   UNL     1      21.422  19.795  12.088  0.00  0.00    -0.096 C 
ATOM     25  H   UNL     1      21.672  20.734  13.947  0.00  0.00    -0.082 HD
ATOM     26  C   UNL     1      21.126  22.236  12.521  0.00  0.00    -0.064 C 
ATOM     27  C   UNL     1      20.679  23.273  13.589  0.00  0.00    +0.066 C 
ENDBRANCH  19  20
ENDBRANCH  18  19
ENDBRANCH  14  15
ENDBRANCH  12  13
TORSDOF 6
ENDMDL
MODEL 5
REMARK VINA RESULT:      -8.5      2.858      6.393
REMARK  Name = C:\Users\Docking\Desktop\test protocol\1iep_ligandH.pdb
REMARK  8 active torsions:
REMARK  status: ('A' for Active; 'I' for Inactive)
REMARK    1  A    between atoms: _5  and  _11
REMARK    2  A    between atoms: _19  and  _21
REMARK    3  A    between atoms: _22  and  _66
REMARK    4  A    between atoms: _27  and  _30
REMARK    5  A    between atoms: _32  and  _33
REMARK    6  A    between atoms: _38  and  _43
REMARK    7  A    between atoms: _43  and  _46
REMARK    8  A    between atoms: _53  and  _55
REMARK                            x       y       z     vdW  Elec       q    Type
REMARK                         _______ _______ _______ _____ _____    ______ ____
ROOT
ATOM     10  C   UNL     1      13.301  22.664  16.421  0.00  0.00    +0.038 A 
ATOM     11  C   UNL     1      12.715  23.886  16.841  0.00  0.00    +0.047 A 
ATOM     12  C   UNL     1      11.807  23.934  17.976  0.00  0.00    +0.035 A 
ATOM     32  C   UNL     1      11.519  22.719  18.663  0.00  0.00    +0.024 A 
ATOM     33  C   UNL     1      12.105  21.468  18.249  0.00  0.00    +0.007 A 
ATOM     34  C   UNL     1      13.000  21.414  17.128  0.00  0.00    -0.029 A 
ATOM     35  C   UNL     1      13.593  20.044  16.725  0.00  0.00    +0.045 C 
ENDROOT
BRANCH  10   9
ATOM      4  C   UNL     1      17.638  23.276  14.458  0.00  0.00    +0.077 A 
ATOM      5  C   UNL     1      18.224  23.629  15.719  0.00  0.00    +0.048 A 
ATOM      6  C   UNL     1      17.374  23.648  16.847  0.00  0.00    +0.116 A 
ATOM      7  N   UNL     1      16.038  23.335  16.713  0.00  0.00    -0.223 NA
ATOM      8  C   UNL     1      15.505  23.001  15.482  0.00  0.00    +0.220 A 
ATOM      9  N   UNL     1      14.166  22.675  15.325  0.00  0.00    -0.283 N 
ATOM     36  H   UNL     1      13.809  22.442  14.398  0.00  0.00    +0.155 HD
ATOM     37  N   UNL     1      16.296  22.977  14.389  0.00  0.00    -0.214 NA
BRANCH   4   3
ATOM      1  C   UNL     1      19.853  24.231  11.378  0.00  0.00    +0.020 A 
ATOM      2  C   UNL     1      19.125  24.349  12.620  0.00  0.00    +0.013 A 
ATOM      3  C   UNL     1      18.407  23.208  13.175  0.00  0.00    +0.019 A 
ATOM     38  C   UNL     1      18.448  21.951  12.443  0.00  0.00    +0.120 A 
ATOM     39  N   UNL     1      19.156  21.867  11.248  0.00  0.00    -0.263 NA
ATOM     40  C   UNL     1      19.849  22.959  10.704  0.00  0.00    +0.111 A 
ENDBRANCH   4   3
ENDBRANCH  10   9
BRANCH  12  13
ATOM     13  N   UNL     1      11.176  25.143  18.443  0.00  0.00    -0.281 N 
ATOM     14  C   UNL     1       9.822  25.400  18.579  0.00  0.00    +0.248 C 
ATOM     30  O   UNL     1       8.936  24.697  18.115  0.00  0.00    -0.270 OA
ATOM     31  H   UNL     1      11.805  25.903  18.705  0.00  0.00    +0.155 HD
BRANCH  14  15
ATOM     15  C   UNL     1       9.389  26.620  19.326  0.00  0.00    +0.037 A 
ATOM     16  C   UNL     1       8.118  26.654  20.054  0.00  0.00    +0.013 A 
ATOM     17  C   UNL     1       7.717  27.850  20.753  0.00  0.00    +0.005 A 
ATOM     18  C   UNL     1       8.590  29.021  20.727  0.00  0.00    -0.033 A 
ATOM     28  C   UNL     1       9.847  28.958  20.001  0.00  0.00    +0.005 A 
ATOM     29  C   UNL     1      10.244  27.788  19.315  0.00  0.00    +0.013 A 
BRANCH  18  19
ATOM     19  C   UNL     1       8.232  30.346  21.426  0.00  0.00    +0.119 C 
BRANCH  19  20
ATOM     20  N   UNL     1       7.294  31.263  20.714  0.00  0.00    -0.302 NA
ATOM     21  C   UNL     1       8.009  32.105  19.653  0.00  0.00    +0.066 C 
ATOM     22  C   UNL     1       7.008  33.043  18.901  0.00  0.00    -0.064 C 
ATOM     23  N   UNL     1       6.296  33.940  19.915  0.00  0.00    +0.379 N 
ATOM     24  C   UNL     1       5.398  34.864  19.206  0.00  0.00    -0.096 C 
ATOM     25  H   UNL     1       7.073  34.552  20.429  0.00  0.00    -0.082 HD
ATOM     26  C   UNL     1       5.585  33.112  20.975  0.00  0.00    -0.064 C 
ATOM     27  C   UNL     1       6.582  32.162  21.695  0.00  0.00    +0.066 C 
ENDBRANCH  19  20
ENDBRANCH  18  19
ENDBRANCH  14  15
ENDBRANCH  12  13
TORSDOF 6
ENDMDL
