MODEL 1
REMARK VINA RESULT:      -8.4      0.000      0.000
REMARK  Name = C:\Users\Docking\Desktop\test protocol\1iep_ligandH.pdb
REMARK  8 active torsions:
REMARK  status: ('A' for Active; 'I' for Inactive)
REMARK    1  A    between atoms: _5  and  _11
REMARK    2  A    between atoms: _19  and  _21
REMARK    3  A    between atoms: _22  and  _66
REMARK    4  A    between atoms: _27  and  _30
REMARK    5  A    between atoms: _32  and  _33
REMARK    6  A    between atoms: _38  and  _43
REMARK    7  A    between atoms: _43  and  _46
REMARK    8  A    between atoms: _53  and  _55
REMARK                            x       y       z     vdW  Elec       q    Type
REMARK                         _______ _______ _______ _____ _____    ______ ____
ROOT
ATOM     10  C   UNL     1       7.113  19.192  18.581  0.00  0.00    +0.038 A 
ATOM     11  C   UNL     1       5.834  19.141  19.192  0.00  0.00    +0.047 A 
ATOM     12  C   UNL     1       4.812  18.219  18.723  0.00  0.00    +0.035 A 
ATOM     32  C   UNL     1       5.127  17.360  17.630  0.00  0.00    +0.024 A 
ATOM     33  C   UNL     1       6.421  17.399  16.996  0.00  0.00    +0.007 A 
ATOM     34  C   UNL     1       7.433  18.309  17.453  0.00  0.00    -0.029 A 
ATOM     35  C   UNL     1       8.801  18.313  16.731  0.00  0.00    +0.045 C 
ENDROOT
BRANCH  10   9
ATOM      4  C   UNL     1       9.530  23.332  18.344  0.00  0.00    +0.077 A 
ATOM      5  C   UNL     1       8.877  23.712  17.124  0.00  0.00    +0.048 A 
ATOM      6  C   UNL     1       7.931  22.811  16.587  0.00  0.00    +0.116 A 
ATOM      7  N   UNL     1       7.665  21.621  17.230  0.00  0.00    -0.223 NA
ATOM      8  C   UNL     1       8.314  21.285  18.404  0.00  0.00    +0.220 A 
ATOM      9  N   UNL     1       8.056  20.097  19.072  0.00  0.00    -0.283 N 
ATOM     36  H   UNL     1       8.562  19.882  19.931  0.00  0.00    +0.155 HD
ATOM     37  N   UNL     1       9.223  22.128  18.936  0.00  0.00    -0.214 NA
BRANCH   4   3
ATOM      1  C   UNL     1      12.508  25.772  19.036  0.00  0.00    +0.020 A 
ATOM      2  C   UNL     1      11.544  24.970  18.319  0.00  0.00    +0.013 A 
ATOM      3  C   UNL     1      10.552  24.179  19.037  0.00  0.00    +0.019 A 
ATOM     38  C   UNL     1      10.562  24.224  20.491  0.00  0.00    +0.120 A 
ATOM     39  N   UNL     1      11.503  25.004  21.155  0.00  0.00    -0.263 NA
ATOM     40  C   UNL     1      12.464  25.767  20.475  0.00  0.00    +0.111 A 
ENDBRANCH   4   3
ENDBRANCH  10   9
BRANCH  12  13
ATOM     13  N   UNL     1       3.493  18.128  19.299  0.00  0.00    -0.281 N 
ATOM     14  C   UNL     1       2.959  17.089  20.044  0.00  0.00    +0.248 C 
ATOM     30  O   UNL     1       3.465  15.981  20.147  0.00  0.00    -0.270 OA
ATOM     31  H   UNL     1       2.879  18.926  19.139  0.00  0.00    +0.155 HD
BRANCH  14  15
ATOM     15  C   UNL     1       1.669  17.307  20.767  0.00  0.00    +0.037 A 
ATOM     16  C   UNL     1       0.463  17.740  20.055  0.00  0.00    +0.013 A 
ATOM     17  C   UNL     1      -0.764  17.959  20.779  0.00  0.00    +0.005 A 
ATOM     18  C   UNL     1      -0.791  17.745  22.224  0.00  0.00    -0.033 A 
ATOM     28  C   UNL     1       0.419  17.311  22.904  0.00  0.00    +0.005 A 
ATOM     29  C   UNL     1       1.623  17.095  22.198  0.00  0.00    +0.013 A 
BRANCH  18  19
ATOM     19  C   UNL     1      -2.050  17.975  23.080  0.00  0.00    +0.119 C 
BRANCH  19  20
ATOM     20  N   UNL     1      -1.895  18.797  24.318  0.00  0.00    -0.302 NA
ATOM     21  C   UNL     1      -2.744  18.261  25.474  0.00  0.00    +0.066 C 
ATOM     22  C   UNL     1      -2.553  19.119  26.766  0.00  0.00    -0.064 C 
ATOM     23  N   UNL     1      -2.906  20.577  26.465  0.00  0.00    +0.379 N 
ATOM     24  C   UNL     1      -2.783  21.376  27.693  0.00  0.00    -0.096 C 
ATOM     25  H   UNL     1      -3.974  20.607  26.148  0.00  0.00    -0.082 HD
ATOM     26  C   UNL     1      -2.068  21.117  25.315  0.00  0.00    -0.064 C 
ATOM     27  C   UNL     1      -2.243  20.240  24.044  0.00  0.00    +0.066 C 
ENDBRANCH  19  20
ENDBRANCH  18  19
ENDBRANCH  14  15
ENDBRANCH  12  13
TORSDOF 6
ENDMDL
MODEL 2
REMARK VINA RESULT:      -8.0      2.611     12.356
REMARK  Name = C:\Users\Docking\Desktop\test protocol\1iep_ligandH.pdb
REMARK  8 active torsions:
REMARK  status: ('A' for Active; 'I' for Inactive)
REMARK    1  A    between atoms: _5  and  _11
REMARK    2  A    between atoms: _19  and  _21
REMARK    3  A    between atoms: _22  and  _66
REMARK    4  A    between atoms: _27  and  _30
REMARK    5  A    between atoms: _32  and  _33
REMARK    6  A    between atoms: _38  and  _43
REMARK    7  A    between atoms: _43  and  _46
REMARK    8  A    between atoms: _53  and  _55
REMARK                            x       y       z     vdW  Elec       q    Type
REMARK                         _______ _______ _______ _____ _____    ______ ____
ROOT
ATOM     10  C   UNL     1      -1.817  18.374  24.629  0.00  0.00    +0.038 A 
ATOM     11  C   UNL     1      -0.899  18.420  23.549  0.00  0.00    +0.047 A 
ATOM     12  C   UNL     1       0.224  17.499  23.477  0.00  0.00    +0.035 A 
ATOM     32  C   UNL     1       0.381  16.542  24.520  0.00  0.00    +0.024 A 
ATOM     33  C   UNL     1      -0.542  16.481  25.626  0.00  0.00    +0.007 A 
ATOM     34  C   UNL     1      -1.650  17.389  25.705  0.00  0.00    -0.029 A 
ATOM     35  C   UNL     1      -2.605  17.283  26.917  0.00  0.00    +0.045 C 
ENDROOT
BRANCH  10   9
ATOM      4  C   UNL     1      -3.788  22.553  25.928  0.00  0.00    +0.077 A 
ATOM      5  C   UNL     1      -2.615  22.949  26.652  0.00  0.00    +0.048 A 
ATOM      6  C   UNL     1      -1.529  22.046  26.671  0.00  0.00    +0.116 A 
ATOM      7  N   UNL     1      -1.620  20.839  26.012  0.00  0.00    -0.223 NA
ATOM      8  C   UNL     1      -2.767  20.487  25.325  0.00  0.00    +0.220 A 
ATOM      9  N   UNL     1      -2.878  19.282  24.649  0.00  0.00    -0.283 N 
ATOM     36  H   UNL     1      -3.744  19.056  24.160  0.00  0.00    +0.155 HD
ATOM     37  N   UNL     1      -3.819  21.332  25.293  0.00  0.00    -0.214 NA
BRANCH   4   3
ATOM      1  C   UNL     1      -7.433  23.917  26.324  0.00  0.00    +0.020 A 
ATOM      2  C   UNL     1      -6.275  23.065  26.467  0.00  0.00    +0.013 A 
ATOM      3  C   UNL     1      -5.017  23.400  25.812  0.00  0.00    +0.019 A 
ATOM     38  C   UNL     1      -4.963  24.616  25.014  0.00  0.00    +0.120 A 
ATOM     39  N   UNL     1      -6.094  25.417  24.893  0.00  0.00    -0.263 NA
ATOM     40  C   UNL     1      -7.311  25.103  25.517  0.00  0.00    +0.111 A 
ENDBRANCH   4   3
ENDBRANCH  10   9
BRANCH  12  13
ATOM     13  N   UNL     1       1.193  17.504  22.409  0.00  0.00    -0.281 N 
ATOM     14  C   UNL     1       0.985  17.218  21.069  0.00  0.00    +0.248 C 
ATOM     30  O   UNL     1      -0.029  16.704  20.621  0.00  0.00    -0.270 OA
ATOM     31  H   UNL     1       2.148  17.748  22.672  0.00  0.00    +0.155 HD
BRANCH  14  15
ATOM     15  C   UNL     1       2.066  17.537  20.087  0.00  0.00    +0.037 A 
ATOM     16  C   UNL     1       1.846  18.491  18.997  0.00  0.00    +0.013 A 
ATOM     17  C   UNL     1       2.900  18.767  18.054  0.00  0.00    +0.005 A 
ATOM     18  C   UNL     1       4.185  18.088  18.197  0.00  0.00    -0.033 A 
ATOM     28  C   UNL     1       4.378  17.150  19.290  0.00  0.00    +0.005 A 
ATOM     29  C   UNL     1       3.347  16.876  20.216  0.00  0.00    +0.013 A 
BRANCH  18  19
ATOM     19  C   UNL     1       5.359  18.305  17.224  0.00  0.00    +0.119 C 
BRANCH  19  20
ATOM     20  N   UNL     1       6.059  19.623  17.280  0.00  0.00    -0.302 NA
ATOM     21  C   UNL     1       7.540  19.504  16.912  0.00  0.00    +0.066 C 
ATOM     22  C   UNL     1       8.252  20.895  16.954  0.00  0.00    -0.064 C 
ATOM     23  N   UNL     1       8.087  21.507  18.346  0.00  0.00    +0.379 N 
ATOM     24  C   UNL     1       8.804  22.790  18.406  0.00  0.00    -0.096 C 
ATOM     25  H   UNL     1       8.567  20.817  19.078  0.00  0.00    -0.082 HD
ATOM     26  C   UNL     1       6.617  21.628  18.721  0.00  0.00    -0.064 C 
ATOM     27  C   UNL     1       5.912  20.244  18.648  0.00  0.00    +0.066 C 
ENDBRANCH  19  20
ENDBRANCH  18  19
ENDBRANCH  14  15
ENDBRANCH  12  13
TORSDOF 6
ENDMDL
MODEL 3
REMARK VINA RESULT:      -7.8      5.087     14.838
REMARK  Name = C:\Users\Docking\Desktop\test protocol\1iep_ligandH.pdb
REMARK  8 active torsions:
REMARK  status: ('A' for Active; 'I' for Inactive)
REMARK    1  A    between atoms: _5  and  _11
REMARK    2  A    between atoms: _19  and  _21
REMARK    3  A    between atoms: _22  and  _66
REMARK    4  A    between atoms: _27  and  _30
REMARK    5  A    between atoms: _32  and  _33
REMARK    6  A    between atoms: _38  and  _43
REMARK    7  A    between atoms: _43  and  _46
REMARK    8  A    between atoms: _53  and  _55
REMARK                            x       y       z     vdW  Elec       q    Type
REMARK                         _______ _______ _______ _____ _____    ______ ____
ROOT
ATOM     10  C   UNL     1      -2.358  15.268  25.700  0.00  0.00    +0.038 A 
ATOM     11  C   UNL     1      -1.472  15.319  24.594  0.00  0.00    +0.047 A 
ATOM     12  C   UNL     1      -0.770  16.545  24.248  0.00  0.00    +0.035 A 
ATOM     32  C   UNL     1      -0.992  17.700  25.052  0.00  0.00    +0.024 A 
ATOM     33  C   UNL     1      -1.890  17.667  26.179  0.00  0.00    +0.007 A 
ATOM     34  C   UNL     1      -2.587  16.461  26.524  0.00  0.00    -0.029 A 
ATOM     35  C   UNL     1      -3.543  16.485  27.740  0.00  0.00    +0.045 C 
ENDROOT
BRANCH  10   9
ATOM      4  C   UNL     1      -5.865  12.072  24.979  0.00  0.00    +0.077 A 
ATOM      5  C   UNL     1      -6.473  12.880  23.962  0.00  0.00    +0.048 A 
ATOM      6  C   UNL     1      -5.857  14.115  23.659  0.00  0.00    +0.116 A 
ATOM      7  N   UNL     1      -4.717  14.502  24.330  0.00  0.00    -0.223 NA
ATOM      8  C   UNL     1      -4.157  13.699  25.306  0.00  0.00    +0.220 A 
ATOM      9  N   UNL     1      -3.006  14.064  25.988  0.00  0.00    -0.283 N 
ATOM     36  H   UNL     1      -2.628  13.448  26.706  0.00  0.00    +0.155 HD
ATOM     37  N   UNL     1      -4.727  12.516  25.615  0.00  0.00    -0.214 NA
BRANCH   4   3
ATOM      1  C   UNL     1      -6.180   8.520  26.588  0.00  0.00    +0.020 A 
ATOM      2  C   UNL     1      -5.620   9.794  26.199  0.00  0.00    +0.013 A 
ATOM      3  C   UNL     1      -6.397  10.740  25.408  0.00  0.00    +0.019 A 
ATOM     38  C   UNL     1      -7.749  10.364  25.025  0.00  0.00    +0.120 A 
ATOM     39  N   UNL     1      -8.263   9.130  25.413  0.00  0.00    -0.263 NA
ATOM     40  C   UNL     1      -7.523   8.211  26.173  0.00  0.00    +0.111 A 
ENDBRANCH   4   3
ENDBRANCH  10   9
BRANCH  12  13
ATOM     13  N   UNL     1       0.135  16.658  23.131  0.00  0.00    -0.281 N 
ATOM     14  C   UNL     1      -0.144  17.107  21.851  0.00  0.00    +0.248 C 
ATOM     30  O   UNL     1      -1.270  17.280  21.409  0.00  0.00    -0.270 OA
ATOM     31  H   UNL     1       1.099  16.373  23.306  0.00  0.00    +0.155 HD
BRANCH  14  15
ATOM     15  C   UNL     1       0.992  17.393  20.922  0.00  0.00    +0.037 A 
ATOM     16  C   UNL     1       0.854  18.353  19.825  0.00  0.00    +0.013 A 
ATOM     17  C   UNL     1       1.960  18.597  18.933  0.00  0.00    +0.005 A 
ATOM     18  C   UNL     1       3.216  17.879  19.137  0.00  0.00    -0.033 A 
ATOM     28  C   UNL     1       3.327  16.935  20.236  0.00  0.00    +0.005 A 
ATOM     29  C   UNL     1       2.245  16.693  21.112  0.00  0.00    +0.013 A 
BRANCH  18  19
ATOM     19  C   UNL     1       4.441  18.061  18.221  0.00  0.00    +0.119 C 
BRANCH  19  20
ATOM     20  N   UNL     1       5.431  19.111  18.605  0.00  0.00    -0.302 NA
ATOM     21  C   UNL     1       4.978  20.511  18.182  0.00  0.00    +0.066 C 
ATOM     22  C   UNL     1       6.015  21.599  18.611  0.00  0.00    -0.064 C 
ATOM     23  N   UNL     1       7.380  21.266  18.006  0.00  0.00    +0.379 N 
ATOM     24  C   UNL     1       8.343  22.318  18.360  0.00  0.00    -0.096 C 
ATOM     25  H   UNL     1       7.267  21.269  16.897  0.00  0.00    -0.082 HD
ATOM     26  C   UNL     1       7.837  19.874  18.419  0.00  0.00    -0.064 C 
ATOM     27  C   UNL     1       6.785  18.804  18.014  0.00  0.00    +0.066 C 
ENDBRANCH  19  20
ENDBRANCH  18  19
ENDBRANCH  14  15
ENDBRANCH  12  13
TORSDOF 6
ENDMDL
MODEL 4
REMARK VINA RESULT:      -7.8     10.946     16.418
REMARK  Name = C:\Users\Docking\Desktop\test protocol\1iep_ligandH.pdb
REMARK  8 active torsions:
REMARK  status: ('A' for Active; 'I' for Inactive)
REMARK    1  A    between atoms: _5  and  _11
REMARK    2  A    between atoms: _19  and  _21
REMARK    3  A    between atoms: _22  and  _66
REMARK    4  A    between atoms: _27  and  _30
REMARK    5  A    between atoms: _32  and  _33
REMARK    6  A    between atoms: _38  and  _43
REMARK    7  A    between atoms: _43  and  _46
REMARK    8  A    between atoms: _53  and  _55
REMARK                            x       y       z     vdW  Elec       q    Type
REMARK                         _______ _______ _______ _____ _____    ______ ____
ROOT
ATOM     10  C   UNL     1      -5.856  23.584  26.154  0.00  0.00    +0.038 A 
ATOM     11  C   UNL     1      -6.567  23.939  27.329  0.00  0.00    +0.047 A 
ATOM     12  C   UNL     1      -6.919  25.323  27.606  0.00  0.00    +0.035 A 
ATOM     32  C   UNL     1      -6.533  26.320  26.663  0.00  0.00    +0.024 A 
ATOM     33  C   UNL     1      -5.809  25.977  25.465  0.00  0.00    +0.007 A 
ATOM     34  C   UNL     1      -5.457  24.613  25.187  0.00  0.00    -0.029 A 
ATOM     35  C   UNL     1      -4.674  24.304  23.890  0.00  0.00    +0.045 C 
ENDROOT
BRANCH  10   9
ATOM      4  C   UNL     1      -2.981  19.773  26.654  0.00  0.00    +0.077 A 
ATOM      5  C   UNL     1      -2.005  20.530  27.384  0.00  0.00    +0.048 A 
ATOM      6  C   UNL     1      -2.278  21.899  27.603  0.00  0.00    +0.116 A 
ATOM      7  N   UNL     1      -3.443  22.458  27.124  0.00  0.00    -0.223 NA
ATOM      8  C   UNL     1      -4.362  21.700  26.423  0.00  0.00    +0.220 A 
ATOM      9  N   UNL     1      -5.544  22.239  25.939  0.00  0.00    -0.283 N 
ATOM     36  H   UNL     1      -6.193  21.648  25.420  0.00  0.00    +0.155 HD
ATOM     37  N   UNL     1      -4.124  20.391  26.199  0.00  0.00    -0.214 NA
BRANCH   4   3
ATOM      1  C   UNL     1      -3.133  15.872  26.901  0.00  0.00    +0.020 A 
ATOM      2  C   UNL     1      -3.294  17.265  27.247  0.00  0.00    +0.013 A 
ATOM      3  C   UNL     1      -2.838  18.315  26.345  0.00  0.00    +0.019 A 
ATOM     38  C   UNL     1      -2.218  17.918  25.090  0.00  0.00    +0.120 A 
ATOM     39  N   UNL     1      -2.075  16.568  24.784  0.00  0.00    -0.263 NA
ATOM     40  C   UNL     1      -2.508  15.549  25.645  0.00  0.00    +0.111 A 
ENDBRANCH   4   3
ENDBRANCH  10   9
BRANCH  12  13
ATOM     13  N   UNL     1      -7.634  25.744  28.785  0.00  0.00    -0.281 N 
ATOM     14  C   UNL     1      -8.980  25.583  29.069  0.00  0.00    +0.248 C 
ATOM     30  O   UNL     1      -9.822  25.239  28.252  0.00  0.00    -0.270 OA
ATOM     31  H   UNL     1      -7.079  26.219  29.498  0.00  0.00    +0.155 HD
BRANCH  14  15
ATOM     15  C   UNL     1      -9.464  25.857  30.456  0.00  0.00    +0.037 A 
ATOM     16  C   UNL     1      -9.121  27.103  31.148  0.00  0.00    +0.013 A 
ATOM     17  C   UNL     1      -9.587  27.335  32.492  0.00  0.00    +0.005 A 
ATOM     18  C   UNL     1     -10.402  26.318  33.153  0.00  0.00    -0.033 A 
ATOM     28  C   UNL     1     -10.731  25.094  32.442  0.00  0.00    +0.005 A 
ATOM     29  C   UNL     1     -10.276  24.863  31.124  0.00  0.00    +0.013 A 
BRANCH  18  19
ATOM     19  C   UNL     1     -10.925  26.472  34.594  0.00  0.00    +0.119 C 
BRANCH  19  20
ATOM     20  N   UNL     1     -10.069  27.230  35.554  0.00  0.00    -0.302 NA
ATOM     21  C   UNL     1      -8.892  26.392  36.061  0.00  0.00    +0.066 C 
ATOM     22  C   UNL     1      -7.994  27.208  37.047  0.00  0.00    -0.064 C 
ATOM     23  N   UNL     1      -8.847  27.705  38.215  0.00  0.00    +0.379 N 
ATOM     24  C   UNL     1      -7.994  28.424  39.174  0.00  0.00    -0.096 C 
ATOM     25  H   UNL     1      -9.262  26.811  38.736  0.00  0.00    -0.082 HD
ATOM     26  C   UNL     1     -10.021  28.538  37.721  0.00  0.00    -0.064 C 
ATOM     27  C   UNL     1     -10.890  27.728  36.719  0.00  0.00    +0.066 C 
ENDBRANCH  19  20
ENDBRANCH  18  19
ENDBRANCH  14  15
ENDBRANCH  12  13
TORSDOF 6
ENDMDL
MODEL 5
REMARK VINA RESULT:      -7.7      9.817     15.778
REMARK  Name = C:\Users\Docking\Desktop\test protocol\1iep_ligandH.pdb
REMARK  8 active torsions:
REMARK  status: ('A' for Active; 'I' for Inactive)
REMARK    1  A    between atoms: _5  and  _11
REMARK    2  A    between atoms: _19  and  _21
REMARK    3  A    between atoms: _22  and  _66
REMARK    4  A    between atoms: _27  and  _30
REMARK    5  A    between atoms: _32  and  _33
REMARK    6  A    between atoms: _38  and  _43
REMARK    7  A    between atoms: _43  and  _46
REMARK    8  A    between atoms: _53  and  _55
REMARK                            x       y       z     vdW  Elec       q    Type
REMARK                         _______ _______ _______ _____ _____    ______ ____
ROOT
ATOM     10  C   UNL     1      -5.792  23.833  26.473  0.00  0.00    +0.038 A 
ATOM     11  C   UNL     1      -5.136  22.602  26.216  0.00  0.00    +0.047 A 
ATOM     12  C   UNL     1      -4.003  22.529  25.307  0.00  0.00    +0.035 A 
ATOM     32  C   UNL     1      -3.561  23.730  24.679  0.00  0.00    +0.024 A 
ATOM     33  C   UNL     1      -4.217  24.989  24.929  0.00  0.00    +0.007 A 
ATOM     34  C   UNL     1      -5.337  25.068  25.822  0.00  0.00    -0.029 A 
ATOM     35  C   UNL     1      -6.005  26.444  26.047  0.00  0.00    +0.045 C 
ENDROOT
BRANCH  10   9
ATOM      4  C   UNL     1     -10.480  23.439  27.425  0.00  0.00    +0.077 A 
ATOM      5  C   UNL     1     -10.801  23.214  26.045  0.00  0.00    +0.048 A 
ATOM      6  C   UNL     1      -9.732  23.215  25.121  0.00  0.00    +0.116 A 
ATOM      7  N   UNL     1      -8.441  23.425  25.556  0.00  0.00    -0.223 NA
ATOM      8  C   UNL     1      -8.166  23.640  26.894  0.00  0.00    +0.220 A 
ATOM      9  N   UNL     1      -6.875  23.846  27.355  0.00  0.00    -0.283 N 
ATOM     36  H   UNL     1      -6.714  24.009  28.349  0.00  0.00    +0.155 HD
ATOM     37  N   UNL     1      -9.170  23.646  27.796  0.00  0.00    -0.214 NA
BRANCH   4   3
ATOM      1  C   UNL     1     -13.513  22.533  29.723  0.00  0.00    +0.020 A 
ATOM      2  C   UNL     1     -12.553  22.464  28.645  0.00  0.00    +0.013 A 
ATOM      3  C   UNL     1     -11.499  23.463  28.521  0.00  0.00    +0.019 A 
ATOM     38  C   UNL     1     -11.444  24.528  29.511  0.00  0.00    +0.120 A 
ATOM     39  N   UNL     1     -12.382  24.570  30.537  0.00  0.00    -0.263 NA
ATOM     40  C   UNL     1     -13.402  23.615  30.666  0.00  0.00    +0.111 A 
ENDBRANCH   4   3
ENDBRANCH  10   9
BRANCH  12  13
ATOM     13  N   UNL     1      -3.303  21.306  25.001  0.00  0.00    -0.281 N 
ATOM     14  C   UNL     1      -2.422  20.604  25.808  0.00  0.00    +0.248 C 
ATOM     30  O   UNL     1      -1.935  21.038  26.841  0.00  0.00    -0.270 OA
ATOM     31  H   UNL     1      -3.478  20.909  24.078  0.00  0.00    +0.155 HD
BRANCH  14  15
ATOM     15  C   UNL     1      -2.011  19.226  25.400  0.00  0.00    +0.037 A 
ATOM     16  C   UNL     1      -1.678  18.913  24.008  0.00  0.00    +0.013 A 
ATOM     17  C   UNL     1      -1.301  17.571  23.639  0.00  0.00    +0.005 A 
ATOM     18  C   UNL     1      -1.254  16.532  24.665  0.00  0.00    -0.033 A 
ATOM     28  C   UNL     1      -1.585  16.872  26.039  0.00  0.00    +0.005 A 
ATOM     29  C   UNL     1      -1.956  18.185  26.404  0.00  0.00    +0.013 A 
BRANCH  18  19
ATOM     19  C   UNL     1      -0.883  15.069  24.357  0.00  0.00    +0.119 C 
BRANCH  19  20
ATOM     20  N   UNL     1      -1.988  14.159  23.933  0.00  0.00    -0.302 NA
ATOM     21  C   UNL     1      -2.548  14.535  22.558  0.00  0.00    +0.066 C 
ATOM     22  C   UNL     1      -3.687  13.558  22.121  0.00  0.00    -0.064 C 
ATOM     23  N   UNL     1      -4.794  13.565  23.176  0.00  0.00    +0.379 N 
ATOM     24  C   UNL     1      -5.894  12.692  22.739  0.00  0.00    -0.096 C 
ATOM     25  H   UNL     1      -5.193  14.604  23.241  0.00  0.00    -0.082 HD
ATOM     26  C   UNL     1      -4.246  13.194  24.547  0.00  0.00    -0.064 C 
ATOM     27  C   UNL     1      -3.095  14.153  24.959  0.00  0.00    +0.066 C 
ENDBRANCH  19  20
ENDBRANCH  18  19
ENDBRANCH  14  15
ENDBRANCH  12  13
TORSDOF 6
ENDMDL
