MODEL 1
REMARK VINA RESULT:      -8.7      0.000      0.000
REMARK  Name = C:\Users\Docking\Desktop\test protocol\1iep_ligandH.pdb
REMARK  8 active torsions:
REMARK  status: ('A' for Active; 'I' for Inactive)
REMARK    1  A    between atoms: _5  and  _11
REMARK    2  A    between atoms: _19  and  _21
REMARK    3  A    between atoms: _22  and  _66
REMARK    4  A    between atoms: _27  and  _30
REMARK    5  A    between atoms: _32  and  _33
REMARK    6  A    between atoms: _38  and  _43
REMARK    7  A    between atoms: _43  and  _46
REMARK    8  A    between atoms: _53  and  _55
REMARK                            x       y       z     vdW  Elec       q    Type
REMARK                         _______ _______ _______ _____ _____    ______ ____
ROOT
ATOM     10  C   UNL     1       9.414  25.695  18.911  0.00  0.00    +0.038 A 
ATOM     11  C   UNL     1      10.727  25.484  18.419  0.00  0.00    +0.047 A 
ATOM     12  C   UNL     1      11.324  24.157  18.413  0.00  0.00    +0.035 A 
ATOM     32  C   UNL     1      10.553  23.067  18.913  0.00  0.00    +0.024 A 
ATOM     33  C   UNL     1       9.217  23.265  19.418  0.00  0.00    +0.007 A 
ATOM     34  C   UNL     1       8.624  24.571  19.429  0.00  0.00    -0.029 A 
ATOM     35  C   UNL     1       7.191  24.725  19.987  0.00  0.00    +0.045 C 
ENDROOT
BRANCH  10   9
ATOM      4  C   UNL     1       8.271  29.829  21.066  0.00  0.00    +0.077 A 
ATOM      5  C   UNL     1       8.731  29.359  22.342  0.00  0.00    +0.048 A 
ATOM      6  C   UNL     1       9.248  28.046  22.402  0.00  0.00    +0.116 A 
ATOM      7  N   UNL     1       9.297  27.269  21.265  0.00  0.00    -0.223 NA
ATOM      8  C   UNL     1       8.843  27.751  20.051  0.00  0.00    +0.220 A 
ATOM      9  N   UNL     1       8.890  26.990  18.893  0.00  0.00    -0.283 N 
ATOM     36  H   UNL     1       8.539  27.380  18.019  0.00  0.00    +0.155 HD
ATOM     37  N   UNL     1       8.344  29.002  19.968  0.00  0.00    -0.214 NA
BRANCH   4   3
ATOM      1  C   UNL     1       6.065  33.046  21.350  0.00  0.00    +0.020 A 
ATOM      2  C   UNL     1       6.577  31.720  21.606  0.00  0.00    +0.013 A 
ATOM      3  C   UNL     1       7.701  31.195  20.841  0.00  0.00    +0.019 A 
ATOM     38  C   UNL     1       8.289  32.044  19.817  0.00  0.00    +0.120 A 
ATOM     39  N   UNL     1       7.774  33.317  19.591  0.00  0.00    -0.263 NA
ATOM     40  C   UNL     1       6.691  33.832  20.319  0.00  0.00    +0.111 A 
ENDBRANCH   4   3
ENDBRANCH  10   9
BRANCH  12  13
ATOM     13  N   UNL     1      12.656  23.883  17.934  0.00  0.00    -0.281 N 
ATOM     14  C   UNL     1      13.024  23.218  16.776  0.00  0.00    +0.248 C 
ATOM     30  O   UNL     1      12.259  22.568  16.079  0.00  0.00    -0.270 OA
ATOM     31  H   UNL     1      13.420  24.220  18.520  0.00  0.00    +0.155 HD
BRANCH  14  15
ATOM     15  C   UNL     1      14.452  23.272  16.335  0.00  0.00    +0.037 A 
ATOM     16  C   UNL     1      15.487  23.869  17.183  0.00  0.00    +0.013 A 
ATOM     17  C   UNL     1      16.853  23.923  16.727  0.00  0.00    +0.005 A 
ATOM     18  C   UNL     1      17.192  23.376  15.415  0.00  0.00    -0.033 A 
ATOM     28  C   UNL     1      16.146  22.784  14.597  0.00  0.00    +0.005 A 
ATOM     29  C   UNL     1      14.806  22.731  15.040  0.00  0.00    +0.013 A 
BRANCH  18  19
ATOM     19  C   UNL     1      18.620  23.410  14.839  0.00  0.00    +0.119 C 
BRANCH  19  20
ATOM     20  N   UNL     1      19.394  24.676  15.003  0.00  0.00    -0.302 NA
ATOM     21  C   UNL     1      18.681  25.872  14.366  0.00  0.00    +0.066 C 
ATOM     22  C   UNL     1      19.493  27.192  14.566  0.00  0.00    -0.064 C 
ATOM     23  N   UNL     1      20.895  27.020  13.977  0.00  0.00    +0.379 N 
ATOM     24  C   UNL     1      21.642  28.279  14.113  0.00  0.00    -0.096 C 
ATOM     25  H   UNL     1      20.780  26.810  12.888  0.00  0.00    -0.082 HD
ATOM     26  C   UNL     1      21.610  25.832  14.604  0.00  0.00    -0.064 C 
ATOM     27  C   UNL     1      20.780  24.530  14.424  0.00  0.00    +0.066 C 
ENDBRANCH  19  20
ENDBRANCH  18  19
ENDBRANCH  14  15
ENDBRANCH  12  13
TORSDOF 6
ENDMDL
MODEL 2
REMARK VINA RESULT:      -8.7      6.177     12.423
REMARK  Name = C:\Users\Docking\Desktop\test protocol\1iep_ligandH.pdb
REMARK  8 active torsions:
REMARK  status: ('A' for Active; 'I' for Inactive)
REMARK    1  A    between atoms: _5  and  _11
REMARK    2  A    between atoms: _19  and  _21
REMARK    3  A    between atoms: _22  and  _66
REMARK    4  A    between atoms: _27  and  _30
REMARK    5  A    between atoms: _32  and  _33
REMARK    6  A    between atoms: _38  and  _43
REMARK    7  A    between atoms: _43  and  _46
REMARK    8  A    between atoms: _53  and  _55
REMARK                            x       y       z     vdW  Elec       q    Type
REMARK                         _______ _______ _______ _____ _____    ______ ____
ROOT
ATOM     10  C   UNL     1      19.665  22.336  12.827  0.00  0.00    +0.038 A 
ATOM     11  C   UNL     1      18.259  22.282  13.003  0.00  0.00    +0.047 A 
ATOM     12  C   UNL     1      17.538  21.022  12.921  0.00  0.00    +0.035 A 
ATOM     32  C   UNL     1      18.281  19.834  12.662  0.00  0.00    +0.024 A 
ATOM     33  C   UNL     1      19.711  19.870  12.480  0.00  0.00    +0.007 A 
ATOM     34  C   UNL     1      20.427  21.111  12.557  0.00  0.00    -0.029 A 
ATOM     35  C   UNL     1      21.959  21.092  12.347  0.00  0.00    +0.045 C 
ENDROOT
BRANCH  10   9
ATOM      4  C   UNL     1      21.194  26.142  15.321  0.00  0.00    +0.077 A 
ATOM      5  C   UNL     1      20.645  25.634  16.546  0.00  0.00    +0.048 A 
ATOM      6  C   UNL     1      19.971  24.393  16.490  0.00  0.00    +0.116 A 
ATOM      7  N   UNL     1      19.860  23.720  15.293  0.00  0.00    -0.223 NA
ATOM      8  C   UNL     1      20.399  24.238  14.130  0.00  0.00    +0.220 A 
ATOM      9  N   UNL     1      20.306  23.574  12.916  0.00  0.00    -0.283 N 
ATOM     36  H   UNL     1      20.711  23.993  12.080  0.00  0.00    +0.155 HD
ATOM     37  N   UNL     1      21.046  25.422  14.157  0.00  0.00    -0.214 NA
BRANCH   4   3
ATOM      1  C   UNL     1      22.672  29.501  13.969  0.00  0.00    +0.020 A 
ATOM      2  C   UNL     1      21.938  28.258  14.015  0.00  0.00    +0.013 A 
ATOM      3  C   UNL     1      21.937  27.437  15.220  0.00  0.00    +0.019 A 
ATOM     38  C   UNL     1      22.694  27.908  16.370  0.00  0.00    +0.120 A 
ATOM     39  N   UNL     1      23.393  29.109  16.296  0.00  0.00    -0.263 NA
ATOM     40  C   UNL     1      23.402  29.906  15.141  0.00  0.00    +0.111 A 
ENDBRANCH   4   3
ENDBRANCH  10   9
BRANCH  12  13
ATOM     13  N   UNL     1      16.109  20.907  13.083  0.00  0.00    -0.281 N 
ATOM     14  C   UNL     1      15.411  20.474  14.199  0.00  0.00    +0.248 C 
ATOM     30  O   UNL     1      15.919  19.915  15.159  0.00  0.00    -0.270 OA
ATOM     31  H   UNL     1      15.545  21.177  12.278  0.00  0.00    +0.155 HD
BRANCH  14  15
ATOM     15  C   UNL     1      13.931  20.680  14.248  0.00  0.00    +0.037 A 
ATOM     16  C   UNL     1      13.345  21.809  14.974  0.00  0.00    +0.013 A 
ATOM     17  C   UNL     1      11.913  21.974  15.021  0.00  0.00    +0.005 A 
ATOM     18  C   UNL     1      11.058  21.007  14.337  0.00  0.00    -0.033 A 
ATOM     28  C   UNL     1      11.667  19.899  13.619  0.00  0.00    +0.005 A 
ATOM     29  C   UNL     1      13.069  19.733  13.573  0.00  0.00    +0.013 A 
BRANCH  18  19
ATOM     19  C   UNL     1       9.521  21.093  14.351  0.00  0.00    +0.119 C 
BRANCH  19  20
ATOM     20  N   UNL     1       8.833  20.829  15.650  0.00  0.00    -0.302 NA
ATOM     21  C   UNL     1       8.833  22.059  16.561  0.00  0.00    +0.066 C 
ATOM     22  C   UNL     1       8.090  21.771  17.906  0.00  0.00    -0.064 C 
ATOM     23  N   UNL     1       8.748  20.580  18.605  0.00  0.00    +0.379 N 
ATOM     24  C   UNL     1       8.089  20.343  19.897  0.00  0.00    -0.096 C 
ATOM     25  H   UNL     1       9.809  20.854  18.811  0.00  0.00    -0.082 HD
ATOM     26  C   UNL     1       8.755  19.353  17.704  0.00  0.00    -0.064 C 
ATOM     27  C   UNL     1       9.470  19.659  16.359  0.00  0.00    +0.066 C 
ENDBRANCH  19  20
ENDBRANCH  18  19
ENDBRANCH  14  15
ENDBRANCH  12  13
TORSDOF 6
ENDMDL
MODEL 3
REMARK VINA RESULT:      -8.5      2.598     12.357
REMARK  Name = C:\Users\Docking\Desktop\test protocol\1iep_ligandH.pdb
REMARK  8 active torsions:
REMARK  status: ('A' for Active; 'I' for Inactive)
REMARK    1  A    between atoms: _5  and  _11
REMARK    2  A    between atoms: _19  and  _21
REMARK    3  A    between atoms: _22  and  _66
REMARK    4  A    between atoms: _27  and  _30
REMARK    5  A    between atoms: _32  and  _33
REMARK    6  A    between atoms: _38  and  _43
REMARK    7  A    between atoms: _43  and  _46
REMARK    8  A    between atoms: _53  and  _55
REMARK                            x       y       z     vdW  Elec       q    Type
REMARK                         _______ _______ _______ _____ _____    ______ ____
ROOT
ATOM     10  C   UNL     1      20.145  23.191  14.163  0.00  0.00    +0.038 A 
ATOM     11  C   UNL     1      18.908  23.387  14.829  0.00  0.00    +0.047 A 
ATOM     12  C   UNL     1      17.785  22.489  14.610  0.00  0.00    +0.035 A 
ATOM     32  C   UNL     1      17.958  21.398  13.709  0.00  0.00    +0.024 A 
ATOM     33  C   UNL     1      19.208  21.185  13.023  0.00  0.00    +0.007 A 
ATOM     34  C   UNL     1      20.318  22.069  13.232  0.00  0.00    -0.029 A 
ATOM     35  C   UNL     1      21.633  21.796  12.465  0.00  0.00    +0.045 C 
ENDROOT
BRANCH  10   9
ATOM      4  C   UNL     1      21.862  27.631  14.773  0.00  0.00    +0.077 A 
ATOM      5  C   UNL     1      20.574  28.223  14.554  0.00  0.00    +0.048 A 
ATOM      6  C   UNL     1      19.497  27.351  14.281  0.00  0.00    +0.116 A 
ATOM      7  N   UNL     1      19.704  25.989  14.232  0.00  0.00    -0.223 NA
ATOM      8  C   UNL     1      20.960  25.451  14.446  0.00  0.00    +0.220 A 
ATOM      9  N   UNL     1      21.190  24.084  14.410  0.00  0.00    -0.283 N 
ATOM     36  H   UNL     1      22.132  23.727  14.566  0.00  0.00    +0.155 HD
ATOM     37  N   UNL     1      22.005  26.263  14.708  0.00  0.00    -0.214 NA
BRANCH   4   3
ATOM      1  C   UNL     1      24.653  30.371  14.700  0.00  0.00    +0.020 A 
ATOM      2  C   UNL     1      23.448  29.646  14.368  0.00  0.00    +0.013 A 
ATOM      3  C   UNL     1      23.097  28.421  15.076  0.00  0.00    +0.019 A 
ATOM     38  C   UNL     1      23.994  27.954  16.123  0.00  0.00    +0.120 A 
ATOM     39  N   UNL     1      25.147  28.672  16.420  0.00  0.00    -0.263 NA
ATOM     40  C   UNL     1      25.496  29.852  15.744  0.00  0.00    +0.111 A 
ENDBRANCH   4   3
ENDBRANCH  10   9
BRANCH  12  13
ATOM     13  N   UNL     1      16.503  22.642  15.252  0.00  0.00    -0.281 N 
ATOM     14  C   UNL     1      16.239  22.793  16.604  0.00  0.00    +0.248 C 
ATOM     30  O   UNL     1      17.057  22.604  17.492  0.00  0.00    -0.270 OA
ATOM     31  H   UNL     1      15.691  22.640  14.635  0.00  0.00    +0.155 HD
BRANCH  14  15
ATOM     15  C   UNL     1      14.866  23.199  17.031  0.00  0.00    +0.037 A 
ATOM     16  C   UNL     1      14.607  23.696  18.384  0.00  0.00    +0.013 A 
ATOM     17  C   UNL     1      13.269  24.065  18.776  0.00  0.00    +0.005 A 
ATOM     18  C   UNL     1      12.180  23.939  17.810  0.00  0.00    -0.033 A 
ATOM     28  C   UNL     1      12.466  23.447  16.473  0.00  0.00    +0.005 A 
ATOM     29  C   UNL     1      13.776  23.084  16.086  0.00  0.00    +0.013 A 
BRANCH  18  19
ATOM     19  C   UNL     1      10.719  24.289  18.148  0.00  0.00    +0.119 C 
BRANCH  19  20
ATOM     20  N   UNL     1      10.487  25.260  19.258  0.00  0.00    -0.302 NA
ATOM     21  C   UNL     1       9.486  24.727  20.288  0.00  0.00    +0.066 C 
ATOM     22  C   UNL     1       9.273  25.747  21.454  0.00  0.00    -0.064 C 
ATOM     23  N   UNL     1       8.800  27.083  20.880  0.00  0.00    +0.379 N 
ATOM     24  C   UNL     1       8.543  28.026  21.978  0.00  0.00    -0.096 C 
ATOM     25  H   UNL     1       7.833  26.902  20.356  0.00  0.00    -0.082 HD
ATOM     26  C   UNL     1       9.788  27.618  19.853  0.00  0.00    -0.064 C 
ATOM     27  C   UNL     1      10.016  26.586  18.714  0.00  0.00    +0.066 C 
ENDBRANCH  19  20
ENDBRANCH  18  19
ENDBRANCH  14  15
ENDBRANCH  12  13
TORSDOF 6
ENDMDL
MODEL 4
REMARK VINA RESULT:      -8.5      1.526      2.461
REMARK  Name = C:\Users\Docking\Desktop\test protocol\1iep_ligandH.pdb
REMARK  8 active torsions:
REMARK  status: ('A' for Active; 'I' for Inactive)
REMARK    1  A    between atoms: _5  and  _11
REMARK    2  A    between atoms: _19  and  _21
REMARK    3  A    between atoms: _22  and  _66
REMARK    4  A    between atoms: _27  and  _30
REMARK    5  A    between atoms: _32  and  _33
REMARK    6  A    between atoms: _38  and  _43
REMARK    7  A    between atoms: _43  and  _46
REMARK    8  A    between atoms: _53  and  _55
REMARK                            x       y       z     vdW  Elec       q    Type
REMARK                         _______ _______ _______ _____ _____    ______ ____
ROOT
ATOM     10  C   UNL     1       9.324  25.688  18.965  0.00  0.00    +0.038 A 
ATOM     11  C   UNL     1      10.655  25.480  18.523  0.00  0.00    +0.047 A 
ATOM     12  C   UNL     1      11.252  24.154  18.533  0.00  0.00    +0.035 A 
ATOM     32  C   UNL     1      10.464  23.061  18.998  0.00  0.00    +0.024 A 
ATOM     33  C   UNL     1       9.109  23.255  19.453  0.00  0.00    +0.007 A 
ATOM     34  C   UNL     1       8.516  24.562  19.447  0.00  0.00    -0.029 A 
ATOM     35  C   UNL     1       7.062  24.712  19.951  0.00  0.00    +0.045 C 
ENDROOT
BRANCH  10   9
ATOM      4  C   UNL     1       8.216  29.858  21.067  0.00  0.00    +0.077 A 
ATOM      5  C   UNL     1       8.695  29.411  22.343  0.00  0.00    +0.048 A 
ATOM      6  C   UNL     1       9.213  28.098  22.417  0.00  0.00    +0.116 A 
ATOM      7  N   UNL     1       9.244  27.302  21.293  0.00  0.00    -0.223 NA
ATOM      8  C   UNL     1       8.772  27.764  20.079  0.00  0.00    +0.220 A 
ATOM      9  N   UNL     1       8.800  26.983  18.933  0.00  0.00    -0.283 N 
ATOM     36  H   UNL     1       8.436  27.358  18.058  0.00  0.00    +0.155 HD
ATOM     37  N   UNL     1       8.271  29.013  19.982  0.00  0.00    -0.214 NA
BRANCH   4   3
ATOM      1  C   UNL     1       5.980  33.060  21.292  0.00  0.00    +0.020 A 
ATOM      2  C   UNL     1       6.493  31.737  21.561  0.00  0.00    +0.013 A 
ATOM      3  C   UNL     1       7.643  31.221  20.828  0.00  0.00    +0.019 A 
ATOM     38  C   UNL     1       8.254  32.076  19.822  0.00  0.00    +0.120 A 
ATOM     39  N   UNL     1       7.737  33.345  19.583  0.00  0.00    -0.263 NA
ATOM     40  C   UNL     1       6.630  33.852  20.281  0.00  0.00    +0.111 A 
ENDBRANCH   4   3
ENDBRANCH  10   9
BRANCH  12  13
ATOM     13  N   UNL     1      12.602  23.882  18.104  0.00  0.00    -0.281 N 
ATOM     14  C   UNL     1      13.017  23.302  16.917  0.00  0.00    +0.248 C 
ATOM     30  O   UNL     1      12.277  22.729  16.131  0.00  0.00    -0.270 OA
ATOM     31  H   UNL     1      13.341  24.151  18.754  0.00  0.00    +0.155 HD
BRANCH  14  15
ATOM     15  C   UNL     1      14.467  23.351  16.557  0.00  0.00    +0.037 A 
ATOM     16  C   UNL     1      14.934  22.960  15.225  0.00  0.00    +0.013 A 
ATOM     17  C   UNL     1      16.340  23.001  14.909  0.00  0.00    +0.005 A 
ATOM     18  C   UNL     1      17.290  23.436  15.930  0.00  0.00    -0.033 A 
ATOM     28  C   UNL     1      16.799  23.824  17.242  0.00  0.00    +0.005 A 
ATOM     29  C   UNL     1      15.422  23.784  17.555  0.00  0.00    +0.013 A 
BRANCH  18  19
ATOM     19  C   UNL     1      18.810  23.491  15.689  0.00  0.00    +0.119 C 
BRANCH  19  20
ATOM     20  N   UNL     1      19.347  22.713  14.532  0.00  0.00    -0.302 NA
ATOM     21  C   UNL     1      19.434  21.215  14.838  0.00  0.00    +0.066 C 
ATOM     22  C   UNL     1      19.976  20.414  13.610  0.00  0.00    -0.064 C 
ATOM     23  N   UNL     1      21.346  20.966  13.209  0.00  0.00    +0.379 N 
ATOM     24  C   UNL     1      21.885  20.177  12.092  0.00  0.00    -0.096 C 
ATOM     25  H   UNL     1      22.031  20.833  14.079  0.00  0.00    -0.082 HD
ATOM     26  C   UNL     1      21.269  22.455  12.906  0.00  0.00    -0.064 C 
ATOM     27  C   UNL     1      20.701  23.238  14.123  0.00  0.00    +0.066 C 
ENDBRANCH  19  20
ENDBRANCH  18  19
ENDBRANCH  14  15
ENDBRANCH  12  13
TORSDOF 6
ENDMDL
MODEL 5
REMARK VINA RESULT:      -8.5      4.598     12.388
REMARK  Name = C:\Users\Docking\Desktop\test protocol\1iep_ligandH.pdb
REMARK  8 active torsions:
REMARK  status: ('A' for Active; 'I' for Inactive)
REMARK    1  A    between atoms: _5  and  _11
REMARK    2  A    between atoms: _19  and  _21
REMARK    3  A    between atoms: _22  and  _66
REMARK    4  A    between atoms: _27  and  _30
REMARK    5  A    between atoms: _32  and  _33
REMARK    6  A    between atoms: _38  and  _43
REMARK    7  A    between atoms: _43  and  _46
REMARK    8  A    between atoms: _53  and  _55
REMARK                            x       y       z     vdW  Elec       q    Type
REMARK                         _______ _______ _______ _____ _____    ______ ____
ROOT
ATOM     10  C   UNL     1      18.545  22.060  13.020  0.00  0.00    +0.038 A 
ATOM     11  C   UNL     1      17.197  22.113  13.458  0.00  0.00    +0.047 A 
ATOM     12  C   UNL     1      16.382  20.910  13.531  0.00  0.00    +0.035 A 
ATOM     32  C   UNL     1      16.973  19.669  13.153  0.00  0.00    +0.024 A 
ATOM     33  C   UNL     1      18.342  19.597  12.705  0.00  0.00    +0.007 A 
ATOM     34  C   UNL     1      19.150  20.781  12.629  0.00  0.00    -0.029 A 
ATOM     35  C   UNL     1      20.609  20.645  12.135  0.00  0.00    +0.045 C 
ENDROOT
BRANCH  10   9
ATOM      4  C   UNL     1      20.803  25.734  15.128  0.00  0.00    +0.077 A 
ATOM      5  C   UNL     1      20.463  25.266  16.441  0.00  0.00    +0.048 A 
ATOM      6  C   UNL     1      19.700  24.080  16.530  0.00  0.00    +0.116 A 
ATOM      7  N   UNL     1      19.312  23.419  15.385  0.00  0.00    -0.223 NA
ATOM      8  C   UNL     1      19.655  23.898  14.134  0.00  0.00    +0.220 A 
ATOM      9  N   UNL     1      19.282  23.245  12.969  0.00  0.00    -0.283 N 
ATOM     36  H   UNL     1      19.548  23.635  12.066  0.00  0.00    +0.155 HD
ATOM     37  N   UNL     1      20.382  25.029  14.022  0.00  0.00    -0.214 NA
BRANCH   4   3
ATOM      1  C   UNL     1      21.943  29.241  13.824  0.00  0.00    +0.020 A 
ATOM      2  C   UNL     1      21.127  28.069  14.042  0.00  0.00    +0.013 A 
ATOM      3  C   UNL     1      21.607  26.970  14.870  0.00  0.00    +0.019 A 
ATOM     38  C   UNL     1      22.928  27.089  15.469  0.00  0.00    +0.120 A 
ATOM     39  N   UNL     1      23.692  28.230  15.240  0.00  0.00    -0.263 NA
ATOM     40  C   UNL     1      23.241  29.293  14.444  0.00  0.00    +0.111 A 
ENDBRANCH   4   3
ENDBRANCH  10   9
BRANCH  12  13
ATOM     13  N   UNL     1      15.005  20.903  13.960  0.00  0.00    -0.281 N 
ATOM     14  C   UNL     1      14.517  20.905  15.256  0.00  0.00    +0.248 C 
ATOM     30  O   UNL     1      15.196  20.696  16.250  0.00  0.00    -0.270 OA
ATOM     31  H   UNL     1      14.306  20.897  13.217  0.00  0.00    +0.155 HD
BRANCH  14  15
ATOM     15  C   UNL     1      13.061  21.162  15.479  0.00  0.00    +0.037 A 
ATOM     16  C   UNL     1      12.067  20.844  14.451  0.00  0.00    +0.013 A 
ATOM     17  C   UNL     1      10.672  21.118  14.685  0.00  0.00    +0.005 A 
ATOM     18  C   UNL     1      10.262  21.712  15.955  0.00  0.00    -0.033 A 
ATOM     28  C   UNL     1      11.268  22.012  16.960  0.00  0.00    +0.005 A 
ATOM     29  C   UNL     1      12.637  21.746  16.733  0.00  0.00    +0.013 A 
BRANCH  18  19
ATOM     19  C   UNL     1       8.797  22.057  16.283  0.00  0.00    +0.119 C 
BRANCH  19  20
ATOM     20  N   UNL     1       8.482  22.429  17.694  0.00  0.00    -0.302 NA
ATOM     21  C   UNL     1       7.544  21.418  18.359  0.00  0.00    +0.066 C 
ATOM     22  C   UNL     1       7.242  21.810  19.842  0.00  0.00    -0.064 C 
ATOM     23  N   UNL     1       6.639  23.215  19.882  0.00  0.00    +0.379 N 
ATOM     24  C   UNL     1       6.301  23.565  21.270  0.00  0.00    -0.096 C 
ATOM     25  H   UNL     1       5.690  23.193  19.298  0.00  0.00    -0.082 HD
ATOM     26  C   UNL     1       7.564  24.227  19.221  0.00  0.00    -0.064 C 
ATOM     27  C   UNL     1       7.881  23.812  17.757  0.00  0.00    +0.066 C 
ENDBRANCH  19  20
ENDBRANCH  18  19
ENDBRANCH  14  15
ENDBRANCH  12  13
TORSDOF 6
ENDMDL
