MODEL 1
REMARK VINA RESULT:      -8.4      0.000      0.000
REMARK  Name = C:\Users\Docking\Desktop\test protocol\1iep_ligandH.pdb
REMARK  8 active torsions:
REMARK  status: ('A' for Active; 'I' for Inactive)
REMARK    1  A    between atoms: _5  and  _11
REMARK    2  A    between atoms: _19  and  _21
REMARK    3  A    between atoms: _22  and  _66
REMARK    4  A    between atoms: _27  and  _30
REMARK    5  A    between atoms: _32  and  _33
REMARK    6  A    between atoms: _38  and  _43
REMARK    7  A    between atoms: _43  and  _46
REMARK    8  A    between atoms: _53  and  _55
REMARK                            x       y       z     vdW  Elec       q    Type
REMARK                         _______ _______ _______ _____ _____    ______ ____
ROOT
ATOM     10  C   UNL     1       5.607   2.116   0.977  0.00  0.00    +0.038 A 
ATOM     11  C   UNL     1       4.798   1.325   0.122  0.00  0.00    +0.047 A 
ATOM     12  C   UNL     1       4.117   0.139   0.616  0.00  0.00    +0.035 A 
ATOM     32  C   UNL     1       4.280  -0.212   1.988  0.00  0.00    +0.024 A 
ATOM     33  C   UNL     1       5.099   0.580   2.871  0.00  0.00    +0.007 A 
ATOM     34  C   UNL     1       5.776   1.750   2.389  0.00  0.00    -0.029 A 
ATOM     35  C   UNL     1       6.647   2.558   3.379  0.00  0.00    +0.045 C 
ENDROOT
BRANCH  10   9
ATOM      4  C   UNL     1       9.487   4.422  -0.656  0.00  0.00    +0.077 A 
ATOM      5  C   UNL     1      10.335   3.290  -0.413  0.00  0.00    +0.048 A 
ATOM      6  C   UNL     1       9.734   2.136   0.139  0.00  0.00    +0.116 A 
ATOM      7  N   UNL     1       8.386   2.126   0.424  0.00  0.00    -0.223 NA
ATOM      8  C   UNL     1       7.598   3.236   0.179  0.00  0.00    +0.220 A 
ATOM      9  N   UNL     1       6.238   3.245   0.450  0.00  0.00    -0.283 N 
ATOM     36  H   UNL     1       5.692   4.086   0.262  0.00  0.00    +0.155 HD
ATOM     37  N   UNL     1       8.147   4.350  -0.347  0.00  0.00    -0.214 NA
BRANCH   4   3
ATOM      1  C   UNL     1      10.997   7.083  -3.092  0.00  0.00    +0.020 A 
ATOM      2  C   UNL     1      10.543   5.812  -2.576  0.00  0.00    +0.013 A 
ATOM      3  C   UNL     1       9.973   5.712  -1.239  0.00  0.00    +0.019 A 
ATOM     38  C   UNL     1       9.875   6.926  -0.442  0.00  0.00    +0.120 A 
ATOM     39  N   UNL     1      10.322   8.136  -0.965  0.00  0.00    -0.263 NA
ATOM     40  C   UNL     1      10.874   8.244  -2.250  0.00  0.00    +0.111 A 
ENDBRANCH   4   3
ENDBRANCH  10   9
BRANCH  12  13
ATOM     13  N   UNL     1       3.289  -0.707  -0.207  0.00  0.00    -0.281 N 
ATOM     14  C   UNL     1       1.917  -0.888  -0.134  0.00  0.00    +0.248 C 
ATOM     30  O   UNL     1       1.219  -0.509   0.795  0.00  0.00    -0.270 OA
ATOM     31  H   UNL     1       3.773  -1.238  -0.932  0.00  0.00    +0.155 HD
BRANCH  14  15
ATOM     15  C   UNL     1       1.223  -1.605  -1.246  0.00  0.00    +0.037 A 
ATOM     16  C   UNL     1      -0.136  -1.240  -1.655  0.00  0.00    +0.013 A 
ATOM     17  C   UNL     1      -0.789  -1.959  -2.720  0.00  0.00    +0.005 A 
ATOM     18  C   UNL     1      -0.082  -3.052  -3.384  0.00  0.00    -0.033 A 
ATOM     28  C   UNL     1       1.267  -3.390  -2.962  0.00  0.00    +0.005 A 
ATOM     29  C   UNL     1       1.910  -2.688  -1.919  0.00  0.00    +0.013 A 
BRANCH  18  19
ATOM     19  C   UNL     1      -0.710  -3.888  -4.516  0.00  0.00    +0.119 C 
BRANCH  19  20
ATOM     20  N   UNL     1      -1.792  -4.845  -4.139  0.00  0.00    -0.302 NA
ATOM     21  C   UNL     1      -3.187  -4.246  -4.344  0.00  0.00    +0.066 C 
ATOM     22  C   UNL     1      -4.307  -5.269  -3.966  0.00  0.00    -0.064 C 
ATOM     23  N   UNL     1      -4.118  -5.716  -2.515  0.00  0.00    +0.379 N 
ATOM     24  C   UNL     1      -5.203  -6.633  -2.139  0.00  0.00    -0.096 C 
ATOM     25  H   UNL     1      -4.200  -4.811  -1.869  0.00  0.00    -0.082 HD
ATOM     26  C   UNL     1      -2.733  -6.310  -2.302  0.00  0.00    -0.064 C 
ATOM     27  C   UNL     1      -1.627  -5.296  -2.708  0.00  0.00    +0.066 C 
ENDBRANCH  19  20
ENDBRANCH  18  19
ENDBRANCH  14  15
ENDBRANCH  12  13
TORSDOF 6
ENDMDL
MODEL 2
REMARK VINA RESULT:      -8.2      2.160      3.413
REMARK  Name = C:\Users\Docking\Desktop\test protocol\1iep_ligandH.pdb
REMARK  8 active torsions:
REMARK  status: ('A' for Active; 'I' for Inactive)
REMARK    1  A    between atoms: _5  and  _11
REMARK    2  A    between atoms: _19  and  _21
REMARK    3  A    between atoms: _22  and  _66
REMARK    4  A    between atoms: _27  and  _30
REMARK    5  A    between atoms: _32  and  _33
REMARK    6  A    between atoms: _38  and  _43
REMARK    7  A    between atoms: _43  and  _46
REMARK    8  A    between atoms: _53  and  _55
REMARK                            x       y       z     vdW  Elec       q    Type
REMARK                         _______ _______ _______ _____ _____    ______ ____
ROOT
ATOM     10  C   UNL     1       4.238   1.110   1.626  0.00  0.00    +0.038 A 
ATOM     11  C   UNL     1       3.385   0.554   0.639  0.00  0.00    +0.047 A 
ATOM     12  C   UNL     1       2.191  -0.191   1.009  0.00  0.00    +0.035 A 
ATOM     32  C   UNL     1       1.895  -0.347   2.395  0.00  0.00    +0.024 A 
ATOM     33  C   UNL     1       2.752   0.211   3.411  0.00  0.00    +0.007 A 
ATOM     34  C   UNL     1       3.932   0.944   3.052  0.00  0.00    -0.029 A 
ATOM     35  C   UNL     1       4.817   1.515   4.184  0.00  0.00    +0.045 C 
ENDROOT
BRANCH  10   9
ATOM      4  C   UNL     1       8.897   1.350   0.498  0.00  0.00    +0.077 A 
ATOM      5  C   UNL     1       9.097  -0.043   0.778  0.00  0.00    +0.048 A 
ATOM      6  C   UNL     1       7.977  -0.784   1.217  0.00  0.00    +0.116 A 
ATOM      7  N   UNL     1       6.753  -0.168   1.361  0.00  0.00    -0.223 NA
ATOM      8  C   UNL     1       6.594   1.178   1.084  0.00  0.00    +0.220 A 
ATOM      9  N   UNL     1       5.371   1.816   1.214  0.00  0.00    -0.283 N 
ATOM     36  H   UNL     1       5.297   2.812   1.007  0.00  0.00    +0.155 HD
ATOM     37  N   UNL     1       7.649   1.908   0.665  0.00  0.00    -0.214 NA
BRANCH   4   3
ATOM      1  C   UNL     1      12.324   2.719  -0.800  0.00  0.00    +0.020 A 
ATOM      2  C   UNL     1      11.311   1.793  -0.346  0.00  0.00    +0.013 A 
ATOM      3  C   UNL     1       9.982   2.265   0.023  0.00  0.00    +0.019 A 
ATOM     38  C   UNL     1       9.708   3.690  -0.080  0.00  0.00    +0.120 A 
ATOM     39  N   UNL     1      10.703   4.558  -0.519  0.00  0.00    -0.263 NA
ATOM     40  C   UNL     1      11.986   4.116  -0.875  0.00  0.00    +0.111 A 
ENDBRANCH   4   3
ENDBRANCH  10   9
BRANCH  12  13
ATOM     13  N   UNL     1       1.292  -0.785   0.052  0.00  0.00    -0.281 N 
ATOM     14  C   UNL     1       1.613  -1.558  -1.052  0.00  0.00    +0.248 C 
ATOM     30  O   UNL     1       2.741  -1.679  -1.507  0.00  0.00    -0.270 OA
ATOM     31  H   UNL     1       0.298  -0.615   0.206  0.00  0.00    +0.155 HD
BRANCH  14  15
ATOM     15  C   UNL     1       0.521  -2.292  -1.762  0.00  0.00    +0.037 A 
ATOM     16  C   UNL     1       0.600  -3.738  -1.988  0.00  0.00    +0.013 A 
ATOM     17  C   UNL     1      -0.459  -4.418  -2.691  0.00  0.00    +0.005 A 
ATOM     18  C   UNL     1      -1.608  -3.653  -3.170  0.00  0.00    -0.033 A 
ATOM     28  C   UNL     1      -1.663  -2.221  -2.927  0.00  0.00    +0.005 A 
ATOM     29  C   UNL     1      -0.626  -1.550  -2.240  0.00  0.00    +0.013 A 
BRANCH  18  19
ATOM     19  C   UNL     1      -2.773  -4.293  -3.947  0.00  0.00    +0.119 C 
BRANCH  19  20
ATOM     20  N   UNL     1      -2.480  -4.809  -5.318  0.00  0.00    -0.302 NA
ATOM     21  C   UNL     1      -1.624  -3.831  -6.128  0.00  0.00    +0.066 C 
ATOM     22  C   UNL     1      -1.308  -4.397  -7.551  0.00  0.00    -0.064 C 
ATOM     23  N   UNL     1      -2.618  -4.701  -8.279  0.00  0.00    +0.379 N 
ATOM     24  C   UNL     1      -2.325  -5.178  -9.638  0.00  0.00    -0.096 C 
ATOM     25  H   UNL     1      -3.184  -3.744  -8.371  0.00  0.00    -0.082 HD
ATOM     26  C   UNL     1      -3.477  -5.670  -7.479  0.00  0.00    -0.064 C 
ATOM     27  C   UNL     1      -3.761  -5.112  -6.056  0.00  0.00    +0.066 C 
ENDBRANCH  19  20
ENDBRANCH  18  19
ENDBRANCH  14  15
ENDBRANCH  12  13
TORSDOF 6
ENDMDL
MODEL 3
REMARK VINA RESULT:      -8.0      9.599     10.968
REMARK  Name = C:\Users\Docking\Desktop\test protocol\1iep_ligandH.pdb
REMARK  8 active torsions:
REMARK  status: ('A' for Active; 'I' for Inactive)
REMARK    1  A    between atoms: _5  and  _11
REMARK    2  A    between atoms: _19  and  _21
REMARK    3  A    between atoms: _22  and  _66
REMARK    4  A    between atoms: _27  and  _30
REMARK    5  A    between atoms: _32  and  _33
REMARK    6  A    between atoms: _38  and  _43
REMARK    7  A    between atoms: _43  and  _46
REMARK    8  A    between atoms: _53  and  _55
REMARK                            x       y       z     vdW  Elec       q    Type
REMARK                         _______ _______ _______ _____ _____    ______ ____
ROOT
ATOM     10  C   UNL     1      -0.938  -7.827   3.158  0.00  0.00    +0.038 A 
ATOM     11  C   UNL     1      -0.948  -7.234   1.870  0.00  0.00    +0.047 A 
ATOM     12  C   UNL     1      -2.158  -7.208   1.063  0.00  0.00    +0.035 A 
ATOM     32  C   UNL     1      -3.341  -7.792   1.601  0.00  0.00    +0.024 A 
ATOM     33  C   UNL     1      -3.349  -8.400   2.908  0.00  0.00    +0.007 A 
ATOM     34  C   UNL     1      -2.158  -8.431   3.708  0.00  0.00    -0.029 A 
ATOM     35  C   UNL     1      -2.223  -9.102   5.100  0.00  0.00    +0.045 C 
ENDROOT
BRANCH  10   9
ATOM      4  C   UNL     1       2.143  -5.788   6.222  0.00  0.00    +0.077 A 
ATOM      5  C   UNL     1       1.326  -4.616   6.356  0.00  0.00    +0.048 A 
ATOM      6  C   UNL     1       0.124  -4.575   5.614  0.00  0.00    +0.116 A 
ATOM      7  N   UNL     1      -0.225  -5.632   4.802  0.00  0.00    -0.223 NA
ATOM      8  C   UNL     1       0.587  -6.747   4.694  0.00  0.00    +0.220 A 
ATOM      9  N   UNL     1       0.252  -7.825   3.890  0.00  0.00    -0.283 N 
ATOM     36  H   UNL     1       0.880  -8.626   3.832  0.00  0.00    +0.155 HD
ATOM     37  N   UNL     1       1.740  -6.810   5.392  0.00  0.00    -0.214 NA
BRANCH   4   3
ATOM      1  C   UNL     1       5.778  -6.910   7.130  0.00  0.00    +0.020 A 
ATOM      2  C   UNL     1       4.547  -6.753   6.392  0.00  0.00    +0.013 A 
ATOM      3  C   UNL     1       3.440  -5.982   6.944  0.00  0.00    +0.019 A 
ATOM     38  C   UNL     1       3.614  -5.377   8.256  0.00  0.00    +0.120 A 
ATOM     39  N   UNL     1       4.811  -5.546   8.945  0.00  0.00    -0.263 NA
ATOM     40  C   UNL     1       5.882  -6.287   8.424  0.00  0.00    +0.111 A 
ENDBRANCH   4   3
ENDBRANCH  10   9
BRANCH  12  13
ATOM     13  N   UNL     1      -2.226  -6.627  -0.255  0.00  0.00    -0.281 N 
ATOM     14  C   UNL     1      -1.878  -5.342  -0.639  0.00  0.00    +0.248 C 
ATOM     30  O   UNL     1      -1.656  -4.425   0.138  0.00  0.00    -0.270 OA
ATOM     31  H   UNL     1      -2.572  -7.237  -0.995  0.00  0.00    +0.155 HD
BRANCH  14  15
ATOM     15  C   UNL     1      -1.777  -5.026  -2.096  0.00  0.00    +0.037 A 
ATOM     16  C   UNL     1      -1.612  -3.647  -2.565  0.00  0.00    +0.013 A 
ATOM     17  C   UNL     1      -1.534  -3.368  -3.977  0.00  0.00    +0.005 A 
ATOM     18  C   UNL     1      -1.620  -4.472  -4.931  0.00  0.00    -0.033 A 
ATOM     28  C   UNL     1      -1.778  -5.830  -4.438  0.00  0.00    +0.005 A 
ATOM     29  C   UNL     1      -1.856  -6.107  -3.055  0.00  0.00    +0.013 A 
BRANCH  18  19
ATOM     19  C   UNL     1      -1.567  -4.264  -6.456  0.00  0.00    +0.119 C 
BRANCH  19  20
ATOM     20  N   UNL     1      -2.870  -4.204  -7.183  0.00  0.00    -0.302 NA
ATOM     21  C   UNL     1      -4.040  -4.655  -6.304  0.00  0.00    +0.066 C 
ATOM     22  C   UNL     1      -5.398  -4.564  -7.073  0.00  0.00    -0.064 C 
ATOM     23  N   UNL     1      -5.319  -5.410  -8.345  0.00  0.00    +0.379 N 
ATOM     24  C   UNL     1      -6.613  -5.373  -9.041  0.00  0.00    -0.096 C 
ATOM     25  H   UNL     1      -5.130  -6.465  -8.038  0.00  0.00    -0.082 HD
ATOM     26  C   UNL     1      -4.156  -4.970  -9.224  0.00  0.00    -0.064 C 
ATOM     27  C   UNL     1      -2.815  -5.036  -8.440  0.00  0.00    +0.066 C 
ENDBRANCH  19  20
ENDBRANCH  18  19
ENDBRANCH  14  15
ENDBRANCH  12  13
TORSDOF 6
ENDMDL
MODEL 4
REMARK VINA RESULT:      -8.0      3.832      6.059
REMARK  Name = C:\Users\Docking\Desktop\test protocol\1iep_ligandH.pdb
REMARK  8 active torsions:
REMARK  status: ('A' for Active; 'I' for Inactive)
REMARK    1  A    between atoms: _5  and  _11
REMARK    2  A    between atoms: _19  and  _21
REMARK    3  A    between atoms: _22  and  _66
REMARK    4  A    between atoms: _27  and  _30
REMARK    5  A    between atoms: _32  and  _33
REMARK    6  A    between atoms: _38  and  _43
REMARK    7  A    between atoms: _43  and  _46
REMARK    8  A    between atoms: _53  and  _55
REMARK                            x       y       z     vdW  Elec       q    Type
REMARK                         _______ _______ _______ _____ _____    ______ ____
ROOT
ATOM     10  C   UNL     1       5.455   0.323   2.099  0.00  0.00    +0.038 A 
ATOM     11  C   UNL     1       4.661  -0.530   1.290  0.00  0.00    +0.047 A 
ATOM     12  C   UNL     1       3.930  -0.015   0.143  0.00  0.00    +0.035 A 
ATOM     32  C   UNL     1       4.031   1.376  -0.153  0.00  0.00    +0.024 A 
ATOM     33  C   UNL     1       4.832   2.258   0.659  0.00  0.00    +0.007 A 
ATOM     34  C   UNL     1       5.554   1.756   1.793  0.00  0.00    -0.029 A 
ATOM     35  C   UNL     1       6.391   2.748   2.633  0.00  0.00    +0.045 C 
ENDROOT
BRANCH  10   9
ATOM      4  C   UNL     1       9.087  -2.175   3.997  0.00  0.00    +0.077 A 
ATOM      5  C   UNL     1       9.662  -2.431   2.708  0.00  0.00    +0.048 A 
ATOM      6  C   UNL     1       8.988  -1.909   1.582  0.00  0.00    +0.116 A 
ATOM      7  N   UNL     1       7.827  -1.185   1.744  0.00  0.00    -0.223 NA
ATOM      8  C   UNL     1       7.298  -0.957   3.001  0.00  0.00    +0.220 A 
ATOM      9  N   UNL     1       6.136  -0.225   3.188  0.00  0.00    -0.283 N 
ATOM     36  H   UNL     1       5.774  -0.086   4.131  0.00  0.00    +0.155 HD
ATOM     37  N   UNL     1       7.922  -1.447   4.093  0.00  0.00    -0.214 NA
BRANCH   4   3
ATOM      1  C   UNL     1      11.202  -4.169   6.615  0.00  0.00    +0.020 A 
ATOM      2  C   UNL     1      10.656  -3.741   5.348  0.00  0.00    +0.013 A 
ATOM      3  C   UNL     1       9.683  -2.657   5.283  0.00  0.00    +0.019 A 
ATOM     38  C   UNL     1       9.282  -2.022   6.529  0.00  0.00    +0.120 A 
ATOM     39  N   UNL     1       9.823  -2.456   7.735  0.00  0.00    -0.263 NA
ATOM     40  C   UNL     1      10.759  -3.499   7.809  0.00  0.00    +0.111 A 
ENDBRANCH   4   3
ENDBRANCH  10   9
BRANCH  12  13
ATOM     13  N   UNL     1       3.103  -0.832  -0.709  0.00  0.00    -0.281 N 
ATOM     14  C   UNL     1       1.810  -1.271  -0.474  0.00  0.00    +0.248 C 
ATOM     30  O   UNL     1       1.244  -1.206   0.607  0.00  0.00    -0.270 OA
ATOM     31  H   UNL     1       3.521  -1.121  -1.594  0.00  0.00    +0.155 HD
BRANCH  14  15
ATOM     15  C   UNL     1       1.041  -1.886  -1.598  0.00  0.00    +0.037 A 
ATOM     16  C   UNL     1      -0.070  -1.176  -2.237  0.00  0.00    +0.013 A 
ATOM     17  C   UNL     1      -0.806  -1.799  -3.308  0.00  0.00    +0.005 A 
ATOM     18  C   UNL     1      -0.433  -3.141  -3.748  0.00  0.00    -0.033 A 
ATOM     28  C   UNL     1       0.676  -3.821  -3.100  0.00  0.00    +0.005 A 
ATOM     29  C   UNL     1       1.400  -3.214  -2.049  0.00  0.00    +0.013 A 
BRANCH  18  19
ATOM     19  C   UNL     1      -1.177  -3.891  -4.869  0.00  0.00    +0.119 C 
BRANCH  19  20
ATOM     20  N   UNL     1      -2.608  -4.239  -4.625  0.00  0.00    -0.302 NA
ATOM     21  C   UNL     1      -2.759  -5.355  -3.587  0.00  0.00    +0.066 C 
ATOM     22  C   UNL     1      -4.264  -5.691  -3.328  0.00  0.00    -0.064 C 
ATOM     23  N   UNL     1      -4.930  -6.085  -4.647  0.00  0.00    +0.379 N 
ATOM     24  C   UNL     1      -6.330  -6.458  -4.398  0.00  0.00    -0.096 C 
ATOM     25  H   UNL     1      -4.404  -6.988  -5.035  0.00  0.00    -0.082 HD
ATOM     26  C   UNL     1      -4.782  -4.983  -5.686  0.00  0.00    -0.064 C 
ATOM     27  C   UNL     1      -3.285  -4.636  -5.914  0.00  0.00    +0.066 C 
ENDBRANCH  19  20
ENDBRANCH  18  19
ENDBRANCH  14  15
ENDBRANCH  12  13
TORSDOF 6
ENDMDL
MODEL 5
REMARK VINA RESULT:      -7.9      8.162     13.476
REMARK  Name = C:\Users\Docking\Desktop\test protocol\1iep_ligandH.pdb
REMARK  8 active torsions:
REMARK  status: ('A' for Active; 'I' for Inactive)
REMARK    1  A    between atoms: _5  and  _11
REMARK    2  A    between atoms: _19  and  _21
REMARK    3  A    between atoms: _22  and  _66
REMARK    4  A    between atoms: _27  and  _30
REMARK    5  A    between atoms: _32  and  _33
REMARK    6  A    between atoms: _38  and  _43
REMARK    7  A    between atoms: _43  and  _46
REMARK    8  A    between atoms: _53  and  _55
REMARK                            x       y       z     vdW  Elec       q    Type
REMARK                         _______ _______ _______ _____ _____    ______ ____
ROOT
ATOM     10  C   UNL     1      -1.603  -3.344  -2.660  0.00  0.00    +0.038 A 
ATOM     11  C   UNL     1      -1.504  -4.057  -1.438  0.00  0.00    +0.047 A 
ATOM     12  C   UNL     1      -0.331  -3.934  -0.588  0.00  0.00    +0.035 A 
ATOM     32  C   UNL     1       0.723  -3.074  -1.012  0.00  0.00    +0.024 A 
ATOM     33  C   UNL     1       0.640  -2.342  -2.252  0.00  0.00    +0.007 A 
ATOM     34  C   UNL     1      -0.515  -2.462  -3.096  0.00  0.00    -0.029 A 
ATOM     35  C   UNL     1      -0.547  -1.659  -4.417  0.00  0.00    +0.045 C 
ENDROOT
BRANCH  10   9
ATOM      4  C   UNL     1      -3.943  -5.147  -6.444  0.00  0.00    +0.077 A 
ATOM      5  C   UNL     1      -2.769  -5.813  -6.927  0.00  0.00    +0.048 A 
ATOM      6  C   UNL     1      -1.581  -5.661  -6.177  0.00  0.00    +0.116 A 
ATOM      7  N   UNL     1      -1.580  -4.897  -5.030  0.00  0.00    -0.223 NA
ATOM      8  C   UNL     1      -2.730  -4.266  -4.592  0.00  0.00    +0.220 A 
ATOM      9  N   UNL     1      -2.753  -3.500  -3.438  0.00  0.00    -0.283 N 
ATOM     36  H   UNL     1      -3.620  -3.045  -3.152  0.00  0.00    +0.155 HD
ATOM     37  N   UNL     1      -3.877  -4.395  -5.292  0.00  0.00    -0.214 NA
BRANCH   4   3
ATOM      1  C   UNL     1      -7.798  -5.247  -7.103  0.00  0.00    +0.020 A 
ATOM      2  C   UNL     1      -6.539  -5.179  -6.398  0.00  0.00    +0.013 A 
ATOM      3  C   UNL     1      -5.275  -5.214  -7.124  0.00  0.00    +0.019 A 
ATOM     38  C   UNL     1      -5.321  -5.319  -8.575  0.00  0.00    +0.120 A 
ATOM     39  N   UNL     1      -6.549  -5.384  -9.227  0.00  0.00    -0.263 NA
ATOM     40  C   UNL     1      -7.771  -5.353  -8.538  0.00  0.00    +0.111 A 
ENDBRANCH   4   3
ENDBRANCH  10   9
BRANCH  12  13
ATOM     13  N   UNL     1      -0.171  -4.640   0.659  0.00  0.00    -0.281 N 
ATOM     14  C   UNL     1      -1.162  -5.120   1.499  0.00  0.00    +0.248 C 
ATOM     30  O   UNL     1      -2.345  -4.826   1.411  0.00  0.00    -0.270 OA
ATOM     31  H   UNL     1       0.790  -4.805   0.959  0.00  0.00    +0.155 HD
BRANCH  14  15
ATOM     15  C   UNL     1      -0.782  -6.049   2.607  0.00  0.00    +0.037 A 
ATOM     16  C   UNL     1      -0.679  -7.494   2.385  0.00  0.00    +0.013 A 
ATOM     17  C   UNL     1      -0.328  -8.370   3.474  0.00  0.00    +0.005 A 
ATOM     18  C   UNL     1      -0.075  -7.802   4.797  0.00  0.00    -0.033 A 
ATOM     28  C   UNL     1      -0.179  -6.365   4.988  0.00  0.00    +0.005 A 
ATOM     29  C   UNL     1      -0.525  -5.503   3.922  0.00  0.00    +0.013 A 
BRANCH  18  19
ATOM     19  C   UNL     1       0.284  -8.663   6.022  0.00  0.00    +0.119 C 
BRANCH  19  20
ATOM     20  N   UNL     1       1.681  -8.565   6.540  0.00  0.00    -0.302 NA
ATOM     21  C   UNL     1       1.757  -7.754   7.838  0.00  0.00    +0.066 C 
ATOM     22  C   UNL     1       3.222  -7.680   8.378  0.00  0.00    -0.064 C 
ATOM     23  N   UNL     1       4.128  -7.072   7.306  0.00  0.00    +0.379 N 
ATOM     24  C   UNL     1       5.495  -6.948   7.833  0.00  0.00    -0.096 C 
ATOM     25  H   UNL     1       3.753  -6.044   7.091  0.00  0.00    -0.082 HD
ATOM     26  C   UNL     1       4.057  -7.870   6.012  0.00  0.00    -0.064 C 
ATOM     27  C   UNL     1       2.593  -7.963   5.499  0.00  0.00    +0.066 C 
ENDBRANCH  19  20
ENDBRANCH  18  19
ENDBRANCH  14  15
ENDBRANCH  12  13
TORSDOF 6
ENDMDL
