MODEL 1
REMARK VINA RESULT:      -9.1      0.000      0.000
REMARK  Name = C:\Users\Docking\Desktop\test protocol\1iep_ligandH.pdb
REMARK  8 active torsions:
REMARK  status: ('A' for Active; 'I' for Inactive)
REMARK    1  A    between atoms: _5  and  _11
REMARK    2  A    between atoms: _19  and  _21
REMARK    3  A    between atoms: _22  and  _66
REMARK    4  A    between atoms: _27  and  _30
REMARK    5  A    between atoms: _32  and  _33
REMARK    6  A    between atoms: _38  and  _43
REMARK    7  A    between atoms: _43  and  _46
REMARK    8  A    between atoms: _53  and  _55
REMARK                            x       y       z     vdW  Elec       q    Type
REMARK                         _______ _______ _______ _____ _____    ______ ____
ROOT
ATOM     10  C   UNL     1       0.381 -30.767  15.109  0.00  0.00    +0.038 A 
ATOM     11  C   UNL     1      -0.123 -31.871  14.374  0.00  0.00    +0.047 A 
ATOM     12  C   UNL     1      -0.820 -32.962  15.038  0.00  0.00    +0.035 A 
ATOM     32  C   UNL     1      -0.990 -32.894  16.452  0.00  0.00    +0.024 A 
ATOM     33  C   UNL     1      -0.484 -31.780  17.214  0.00  0.00    +0.007 A 
ATOM     34  C   UNL     1       0.207 -30.703  16.565  0.00  0.00    -0.029 A 
ATOM     35  C   UNL     1       0.735 -29.536  17.433  0.00  0.00    +0.045 C 
ENDROOT
BRANCH  10   9
ATOM      4  C   UNL     1       4.370 -28.690  13.432  0.00  0.00    +0.077 A 
ATOM      5  C   UNL     1       5.208 -29.708  13.998  0.00  0.00    +0.048 A 
ATOM      6  C   UNL     1       4.574 -30.744  14.719  0.00  0.00    +0.116 A 
ATOM      7  N   UNL     1       3.203 -30.753  14.858  0.00  0.00    -0.223 NA
ATOM      8  C   UNL     1       2.424 -29.755  14.301  0.00  0.00    +0.220 A 
ATOM      9  N   UNL     1       1.043 -29.748  14.421  0.00  0.00    -0.283 N 
ATOM     36  H   UNL     1       0.504 -28.991  14.001  0.00  0.00    +0.155 HD
ATOM     37  N   UNL     1       3.006 -28.754  13.608  0.00  0.00    -0.214 NA
BRANCH   4   3
ATOM      1  C   UNL     1       5.962 -26.526  10.589  0.00  0.00    +0.020 A 
ATOM      2  C   UNL     1       5.474 -27.678  11.312  0.00  0.00    +0.013 A 
ATOM      3  C   UNL     1       4.891 -27.532  12.640  0.00  0.00    +0.019 A 
ATOM     38  C   UNL     1       4.815 -26.196  13.211  0.00  0.00    +0.120 A 
ATOM     39  N   UNL     1       5.294 -25.106  12.492  0.00  0.00    -0.263 NA
ATOM     40  C   UNL     1       5.859 -25.234  11.214  0.00  0.00    +0.111 A 
ENDBRANCH   4   3
ENDBRANCH  10   9
BRANCH  12  13
ATOM     13  N   UNL     1      -1.346 -34.112  14.346  0.00  0.00    -0.281 N 
ATOM     14  C   UNL     1      -0.639 -35.118  13.707  0.00  0.00    +0.248 C 
ATOM     30  O   UNL     1       0.554 -35.068  13.450  0.00  0.00    -0.270 OA
ATOM     31  H   UNL     1      -2.362 -34.195  14.323  0.00  0.00    +0.155 HD
BRANCH  14  15
ATOM     15  C   UNL     1      -1.367 -36.352  13.280  0.00  0.00    +0.037 A 
ATOM     16  C   UNL     1      -1.065 -37.009  12.006  0.00  0.00    +0.013 A 
ATOM     17  C   UNL     1      -1.794 -38.189  11.610  0.00  0.00    +0.005 A 
ATOM     18  C   UNL     1      -2.831 -38.719  12.492  0.00  0.00    -0.033 A 
ATOM     28  C   UNL     1      -3.106 -38.050  13.752  0.00  0.00    +0.005 A 
ATOM     29  C   UNL     1      -2.395 -36.894  14.143  0.00  0.00    +0.013 A 
BRANCH  18  19
ATOM     19  C   UNL     1      -3.672 -39.960  12.140  0.00  0.00    +0.119 C 
BRANCH  19  20
ATOM     20  N   UNL     1      -4.362 -40.660  13.265  0.00  0.00    -0.302 NA
ATOM     21  C   UNL     1      -3.898 -42.112  13.409  0.00  0.00    +0.066 C 
ATOM     22  C   UNL     1      -4.613 -42.822  14.605  0.00  0.00    -0.064 C 
ATOM     23  N   UNL     1      -6.128 -42.754  14.403  0.00  0.00    +0.379 N 
ATOM     24  C   UNL     1      -6.801 -43.472  15.495  0.00  0.00    -0.096 C 
ATOM     25  H   UNL     1      -6.366 -43.286  13.452  0.00  0.00    -0.082 HD
ATOM     26  C   UNL     1      -6.597 -41.314  14.256  0.00  0.00    -0.064 C 
ATOM     27  C   UNL     1      -5.859 -40.609  13.084  0.00  0.00    +0.066 C 
ENDBRANCH  19  20
ENDBRANCH  18  19
ENDBRANCH  14  15
ENDBRANCH  12  13
TORSDOF 6
ENDMDL
MODEL 2
REMARK VINA RESULT:      -8.9     19.584     26.538
REMARK  Name = C:\Users\Docking\Desktop\test protocol\1iep_ligandH.pdb
REMARK  8 active torsions:
REMARK  status: ('A' for Active; 'I' for Inactive)
REMARK    1  A    between atoms: _5  and  _11
REMARK    2  A    between atoms: _19  and  _21
REMARK    3  A    between atoms: _22  and  _66
REMARK    4  A    between atoms: _27  and  _30
REMARK    5  A    between atoms: _32  and  _33
REMARK    6  A    between atoms: _38  and  _43
REMARK    7  A    between atoms: _43  and  _46
REMARK    8  A    between atoms: _53  and  _55
REMARK                            x       y       z     vdW  Elec       q    Type
REMARK                         _______ _______ _______ _____ _____    ______ ____
ROOT
ATOM     10  C   UNL     1     -22.461 -41.459  12.693  0.00  0.00    +0.038 A 
ATOM     11  C   UNL     1     -23.302 -42.070  13.659  0.00  0.00    +0.047 A 
ATOM     12  C   UNL     1     -24.684 -42.404  13.349  0.00  0.00    +0.035 A 
ATOM     32  C   UNL     1     -25.176 -42.104  12.045  0.00  0.00    +0.024 A 
ATOM     33  C   UNL     1     -24.335 -41.483  11.052  0.00  0.00    +0.007 A 
ATOM     34  C   UNL     1     -22.972 -41.149  11.353  0.00  0.00    -0.029 A 
ATOM     35  C   UNL     1     -22.118 -40.478  10.251  0.00  0.00    +0.045 C 
ENDROOT
BRANCH  10   9
ATOM      4  C   UNL     1     -19.046 -38.393  14.097  0.00  0.00    +0.077 A 
ATOM      5  C   UNL     1     -19.960 -37.287  14.106  0.00  0.00    +0.048 A 
ATOM      6  C   UNL     1     -21.298 -37.548  13.737  0.00  0.00    +0.116 A 
ATOM      7  N   UNL     1     -21.683 -38.824  13.386  0.00  0.00    -0.223 NA
ATOM      8  C   UNL     1     -20.776 -39.868  13.386  0.00  0.00    +0.220 A 
ATOM      9  N   UNL     1     -21.143 -41.161  13.044  0.00  0.00    -0.283 N 
ATOM     36  H   UNL     1     -20.442 -41.901  13.049  0.00  0.00    +0.155 HD
ATOM     37  N   UNL     1     -19.492 -39.644  13.733  0.00  0.00    -0.214 NA
BRANCH   4   3
ATOM      1  C   UNL     1     -15.147 -38.155  13.888  0.00  0.00    +0.020 A 
ATOM      2  C   UNL     1     -16.528 -38.270  13.478  0.00  0.00    +0.013 A 
ATOM      3  C   UNL     1     -17.600 -38.277  14.466  0.00  0.00    +0.019 A 
ATOM     38  C   UNL     1     -17.237 -38.165  15.871  0.00  0.00    +0.120 A 
ATOM     39  N   UNL     1     -15.899 -38.057  16.235  0.00  0.00    -0.263 NA
ATOM     40  C   UNL     1     -14.859 -38.051  15.294  0.00  0.00    +0.111 A 
ENDBRANCH   4   3
ENDBRANCH  10   9
BRANCH  12  13
ATOM     13  N   UNL     1     -25.587 -43.017  14.291  0.00  0.00    -0.281 N 
ATOM     14  C   UNL     1     -25.916 -42.580  15.564  0.00  0.00    +0.248 C 
ATOM     30  O   UNL     1     -25.316 -41.705  16.171  0.00  0.00    -0.270 OA
ATOM     31  H   UNL     1     -26.039 -43.877  13.982  0.00  0.00    +0.155 HD
BRANCH  14  15
ATOM     15  C   UNL     1     -27.068 -43.217  16.271  0.00  0.00    +0.037 A 
ATOM     16  C   UNL     1     -27.802 -44.335  15.673  0.00  0.00    +0.013 A 
ATOM     17  C   UNL     1     -28.921 -44.920  16.369  0.00  0.00    +0.005 A 
ATOM     18  C   UNL     1     -29.312 -44.388  17.672  0.00  0.00    -0.033 A 
ATOM     28  C   UNL     1     -28.563 -43.281  18.244  0.00  0.00    +0.005 A 
ATOM     29  C   UNL     1     -27.466 -42.705  17.565  0.00  0.00    +0.013 A 
BRANCH  18  19
ATOM     19  C   UNL     1     -30.506 -44.936  18.476  0.00  0.00    +0.119 C 
BRANCH  19  20
ATOM     20  N   UNL     1     -31.837 -44.303  18.241  0.00  0.00    -0.302 NA
ATOM     21  C   UNL     1     -32.023 -43.031  19.073  0.00  0.00    +0.066 C 
ATOM     22  C   UNL     1     -33.413 -42.369  18.798  0.00  0.00    -0.064 C 
ATOM     23  N   UNL     1     -34.523 -43.378  19.095  0.00  0.00    +0.379 N 
ATOM     24  C   UNL     1     -35.832 -42.740  18.893  0.00  0.00    -0.096 C 
ATOM     25  H   UNL     1     -34.446 -43.658  20.171  0.00  0.00    -0.082 HD
ATOM     26  C   UNL     1     -34.344 -44.646  18.273  0.00  0.00    -0.064 C 
ATOM     27  C   UNL     1     -32.949 -45.280  18.532  0.00  0.00    +0.066 C 
ENDBRANCH  19  20
ENDBRANCH  18  19
ENDBRANCH  14  15
ENDBRANCH  12  13
TORSDOF 6
ENDMDL
MODEL 3
REMARK VINA RESULT:      -8.7      1.092      1.607
REMARK  Name = C:\Users\Docking\Desktop\test protocol\1iep_ligandH.pdb
REMARK  8 active torsions:
REMARK  status: ('A' for Active; 'I' for Inactive)
REMARK    1  A    between atoms: _5  and  _11
REMARK    2  A    between atoms: _19  and  _21
REMARK    3  A    between atoms: _22  and  _66
REMARK    4  A    between atoms: _27  and  _30
REMARK    5  A    between atoms: _32  and  _33
REMARK    6  A    between atoms: _38  and  _43
REMARK    7  A    between atoms: _43  and  _46
REMARK    8  A    between atoms: _53  and  _55
REMARK                            x       y       z     vdW  Elec       q    Type
REMARK                         _______ _______ _______ _____ _____    ______ ____
ROOT
ATOM     10  C   UNL     1       0.212 -31.144  15.033  0.00  0.00    +0.038 A 
ATOM     11  C   UNL     1      -0.262 -32.235  14.261  0.00  0.00    +0.047 A 
ATOM     12  C   UNL     1      -0.972 -33.343  14.880  0.00  0.00    +0.035 A 
ATOM     32  C   UNL     1      -1.185 -33.306  16.289  0.00  0.00    +0.024 A 
ATOM     33  C   UNL     1      -0.710 -32.205  17.089  0.00  0.00    +0.007 A 
ATOM     34  C   UNL     1      -0.006 -31.111  16.484  0.00  0.00    -0.029 A 
ATOM     35  C   UNL     1       0.487 -29.960  17.392  0.00  0.00    +0.045 C 
ENDROOT
BRANCH  10   9
ATOM      4  C   UNL     1       4.231 -29.041  13.464  0.00  0.00    +0.077 A 
ATOM      5  C   UNL     1       5.057 -30.084  14.002  0.00  0.00    +0.048 A 
ATOM      6  C   UNL     1       4.408 -31.140  14.681  0.00  0.00    +0.116 A 
ATOM      7  N   UNL     1       3.036 -31.143  14.807  0.00  0.00    -0.223 NA
ATOM      8  C   UNL     1       2.270 -30.120  14.278  0.00  0.00    +0.220 A 
ATOM      9  N   UNL     1       0.887 -30.107  14.386  0.00  0.00    -0.283 N 
ATOM     36  H   UNL     1       0.358 -29.331  13.989  0.00  0.00    +0.155 HD
ATOM     37  N   UNL     1       2.865 -29.100  13.627  0.00  0.00    -0.214 NA
BRANCH   4   3
ATOM      1  C   UNL     1       5.790 -26.778  10.681  0.00  0.00    +0.020 A 
ATOM      2  C   UNL     1       5.284 -27.950  11.358  0.00  0.00    +0.013 A 
ATOM      3  C   UNL     1       4.768 -27.860  12.718  0.00  0.00    +0.019 A 
ATOM     38  C   UNL     1       4.778 -26.559  13.370  0.00  0.00    +0.120 A 
ATOM     39  N   UNL     1       5.273 -25.448  12.694  0.00  0.00    -0.263 NA
ATOM     40  C   UNL     1       5.774 -25.523  11.385  0.00  0.00    +0.111 A 
ENDBRANCH   4   3
ENDBRANCH  10   9
BRANCH  12  13
ATOM     13  N   UNL     1      -1.469 -34.482  14.148  0.00  0.00    -0.281 N 
ATOM     14  C   UNL     1      -0.774 -35.615  13.761  0.00  0.00    +0.248 C 
ATOM     30  O   UNL     1       0.443 -35.727  13.801  0.00  0.00    -0.270 OA
ATOM     31  H   UNL     1      -2.454 -34.448  13.883  0.00  0.00    +0.155 HD
BRANCH  14  15
ATOM     15  C   UNL     1      -1.538 -36.790  13.241  0.00  0.00    +0.037 A 
ATOM     16  C   UNL     1      -1.259 -37.353  11.918  0.00  0.00    +0.013 A 
ATOM     17  C   UNL     1      -2.023 -38.475  11.434  0.00  0.00    +0.005 A 
ATOM     18  C   UNL     1      -3.073 -39.043  12.276  0.00  0.00    -0.033 A 
ATOM     28  C   UNL     1      -3.326 -38.468  13.587  0.00  0.00    +0.005 A 
ATOM     29  C   UNL     1      -2.579 -37.368  14.064  0.00  0.00    +0.013 A 
BRANCH  18  19
ATOM     19  C   UNL     1      -3.952 -40.228  11.832  0.00  0.00    +0.119 C 
BRANCH  19  20
ATOM     20  N   UNL     1      -3.568 -41.585  12.322  0.00  0.00    -0.302 NA
ATOM     21  C   UNL     1      -4.249 -41.931  13.649  0.00  0.00    +0.066 C 
ATOM     22  C   UNL     1      -3.853 -43.363  14.135  0.00  0.00    -0.064 C 
ATOM     23  N   UNL     1      -2.332 -43.453  14.267  0.00  0.00    +0.379 N 
ATOM     24  C   UNL     1      -1.961 -44.780  14.779  0.00  0.00    -0.096 C 
ATOM     25  H   UNL     1      -2.013 -42.697  15.022  0.00  0.00    -0.082 HD
ATOM     26  C   UNL     1      -1.648 -43.108  12.952  0.00  0.00    -0.064 C 
ATOM     27  C   UNL     1      -2.070 -41.694  12.463  0.00  0.00    +0.066 C 
ENDBRANCH  19  20
ENDBRANCH  18  19
ENDBRANCH  14  15
ENDBRANCH  12  13
TORSDOF 6
ENDMDL
MODEL 4
REMARK VINA RESULT:      -8.5     19.297     28.198
REMARK  Name = C:\Users\Docking\Desktop\test protocol\1iep_ligandH.pdb
REMARK  8 active torsions:
REMARK  status: ('A' for Active; 'I' for Inactive)
REMARK    1  A    between atoms: _5  and  _11
REMARK    2  A    between atoms: _19  and  _21
REMARK    3  A    between atoms: _22  and  _66
REMARK    4  A    between atoms: _27  and  _30
REMARK    5  A    between atoms: _32  and  _33
REMARK    6  A    between atoms: _38  and  _43
REMARK    7  A    between atoms: _43  and  _46
REMARK    8  A    between atoms: _53  and  _55
REMARK                            x       y       z     vdW  Elec       q    Type
REMARK                         _______ _______ _______ _____ _____    ______ ____
ROOT
ATOM     10  C   UNL     1     -27.652 -43.811  17.243  0.00  0.00    +0.038 A 
ATOM     11  C   UNL     1     -26.616 -43.095  16.590  0.00  0.00    +0.047 A 
ATOM     12  C   UNL     1     -26.387 -43.241  15.161  0.00  0.00    +0.035 A 
ATOM     32  C   UNL     1     -27.233 -44.122  14.427  0.00  0.00    +0.024 A 
ATOM     33  C   UNL     1     -28.290 -44.858  15.076  0.00  0.00    +0.007 A 
ATOM     34  C   UNL     1     -28.519 -44.721  16.485  0.00  0.00    -0.029 A 
ATOM     35  C   UNL     1     -29.663 -45.539  17.129  0.00  0.00    +0.045 C 
ENDROOT
BRANCH  10   9
ATOM      4  C   UNL     1     -27.707 -41.071  21.184  0.00  0.00    +0.077 A 
ATOM      5  C   UNL     1     -27.328 -39.900  20.447  0.00  0.00    +0.048 A 
ATOM      6  C   UNL     1     -27.121 -40.047  19.057  0.00  0.00    +0.116 A 
ATOM      7  N   UNL     1     -27.285 -41.278  18.459  0.00  0.00    -0.223 NA
ATOM      8  C   UNL     1     -27.649 -42.388  19.200  0.00  0.00    +0.220 A 
ATOM      9  N   UNL     1     -27.827 -43.633  18.618  0.00  0.00    -0.283 N 
ATOM     36  H   UNL     1     -28.089 -44.429  19.199  0.00  0.00    +0.155 HD
ATOM     37  N   UNL     1     -27.851 -42.274  20.529  0.00  0.00    -0.214 NA
BRANCH   4   3
ATOM      1  C   UNL     1     -27.525 -41.900  25.003  0.00  0.00    +0.020 A 
ATOM      2  C   UNL     1     -27.239 -41.935  23.587  0.00  0.00    +0.013 A 
ATOM      3  C   UNL     1     -27.964 -41.076  22.659  0.00  0.00    +0.019 A 
ATOM     38  C   UNL     1     -28.981 -40.187  23.200  0.00  0.00    +0.120 A 
ATOM     39  N   UNL     1     -29.237 -40.177  24.568  0.00  0.00    -0.263 NA
ATOM     40  C   UNL     1     -28.546 -41.000  25.470  0.00  0.00    +0.111 A 
ENDBRANCH   4   3
ENDBRANCH  10   9
BRANCH  12  13
ATOM     13  N   UNL     1     -25.346 -42.546  14.444  0.00  0.00    -0.281 N 
ATOM     14  C   UNL     1     -25.115 -41.181  14.389  0.00  0.00    +0.248 C 
ATOM     30  O   UNL     1     -25.902 -40.331  14.778  0.00  0.00    -0.270 OA
ATOM     31  H   UNL     1     -24.701 -43.132  13.913  0.00  0.00    +0.155 HD
BRANCH  14  15
ATOM     15  C   UNL     1     -23.830 -40.689  13.805  0.00  0.00    +0.037 A 
ATOM     16  C   UNL     1     -23.601 -39.262  13.566  0.00  0.00    +0.013 A 
ATOM     17  C   UNL     1     -22.359 -38.816  12.986  0.00  0.00    +0.005 A 
ATOM     18  C   UNL     1     -21.336 -39.800  12.640  0.00  0.00    -0.033 A 
ATOM     28  C   UNL     1     -21.588 -41.209  12.892  0.00  0.00    +0.005 A 
ATOM     29  C   UNL     1     -22.804 -41.650  13.460  0.00  0.00    +0.013 A 
BRANCH  18  19
ATOM     19  C   UNL     1     -19.990 -39.416  11.997  0.00  0.00    +0.119 C 
BRANCH  19  20
ATOM     20  N   UNL     1     -18.793 -39.376  12.889  0.00  0.00    -0.302 NA
ATOM     21  C   UNL     1     -18.857 -38.215  13.884  0.00  0.00    +0.066 C 
ATOM     22  C   UNL     1     -17.608 -38.202  14.824  0.00  0.00    -0.064 C 
ATOM     23  N   UNL     1     -16.337 -38.119  13.977  0.00  0.00    +0.379 N 
ATOM     24  C   UNL     1     -15.163 -38.048  14.860  0.00  0.00    -0.096 C 
ATOM     25  H   UNL     1     -16.380 -37.170  13.394  0.00  0.00    -0.082 HD
ATOM     26  C   UNL     1     -16.266 -39.269  12.982  0.00  0.00    -0.064 C 
ATOM     27  C   UNL     1     -17.527 -39.291  12.073  0.00  0.00    +0.066 C 
ENDBRANCH  19  20
ENDBRANCH  18  19
ENDBRANCH  14  15
ENDBRANCH  12  13
TORSDOF 6
ENDMDL
MODEL 5
REMARK VINA RESULT:      -8.5     26.004     29.058
REMARK  Name = C:\Users\Docking\Desktop\test protocol\1iep_ligandH.pdb
REMARK  8 active torsions:
REMARK  status: ('A' for Active; 'I' for Inactive)
REMARK    1  A    between atoms: _5  and  _11
REMARK    2  A    between atoms: _19  and  _21
REMARK    3  A    between atoms: _22  and  _66
REMARK    4  A    between atoms: _27  and  _30
REMARK    5  A    between atoms: _32  and  _33
REMARK    6  A    between atoms: _38  and  _43
REMARK    7  A    between atoms: _43  and  _46
REMARK    8  A    between atoms: _53  and  _55
REMARK                            x       y       z     vdW  Elec       q    Type
REMARK                         _______ _______ _______ _____ _____    ______ ____
ROOT
ATOM     10  C   UNL     1      14.833 -35.153  34.745  0.00  0.00    +0.038 A 
ATOM     11  C   UNL     1      14.148 -35.243  35.983  0.00  0.00    +0.047 A 
ATOM     12  C   UNL     1      13.286 -36.375  36.286  0.00  0.00    +0.035 A 
ATOM     32  C   UNL     1      13.147 -37.400  35.305  0.00  0.00    +0.024 A 
ATOM     33  C   UNL     1      13.835 -37.324  34.040  0.00  0.00    +0.007 A 
ATOM     34  C   UNL     1      14.684 -36.208  33.735  0.00  0.00    -0.029 A 
ATOM     35  C   UNL     1      15.392 -36.176  32.360  0.00  0.00    +0.045 C 
ENDROOT
BRANCH  10   9
ATOM      4  C   UNL     1      19.118 -32.994  34.638  0.00  0.00    +0.077 A 
ATOM      5  C   UNL     1      19.787 -34.167  35.123  0.00  0.00    +0.048 A 
ATOM      6  C   UNL     1      18.991 -35.302  35.394  0.00  0.00    +0.116 A 
ATOM      7  N   UNL     1      17.629 -35.257  35.192  0.00  0.00    -0.223 NA
ATOM      8  C   UNL     1      17.015 -34.109  34.725  0.00  0.00    +0.220 A 
ATOM      9  N   UNL     1      15.648 -34.044  34.507  0.00  0.00    -0.283 N 
ATOM     36  H   UNL     1      15.232 -33.176  34.168  0.00  0.00    +0.155 HD
ATOM     37  N   UNL     1      17.753 -33.011  34.459  0.00  0.00    -0.214 NA
BRANCH   4   3
ATOM      1  C   UNL     1      19.848 -29.251  33.768  0.00  0.00    +0.020 A 
ATOM      2  C   UNL     1      19.120 -30.457  34.089  0.00  0.00    +0.013 A 
ATOM      3  C   UNL     1      19.822 -31.716  34.302  0.00  0.00    +0.019 A 
ATOM     38  C   UNL     1      21.273 -31.721  34.183  0.00  0.00    +0.120 A 
ATOM     39  N   UNL     1      21.946 -30.544  33.871  0.00  0.00    -0.263 NA
ATOM     40  C   UNL     1      21.281 -29.327  33.662  0.00  0.00    +0.111 A 
ENDBRANCH   4   3
ENDBRANCH  10   9
BRANCH  12  13
ATOM     13  N   UNL     1      12.559 -36.517  37.523  0.00  0.00    -0.281 N 
ATOM     14  C   UNL     1      13.025 -36.317  38.812  0.00  0.00    +0.248 C 
ATOM     30  O   UNL     1      14.204 -36.192  39.110  0.00  0.00    -0.270 OA
ATOM     31  H   UNL     1      11.582 -36.799  37.438  0.00  0.00    +0.155 HD
BRANCH  14  15
ATOM     15  C   UNL     1      12.040 -36.262  39.936  0.00  0.00    +0.037 A 
ATOM     16  C   UNL     1      12.447 -36.532  41.317  0.00  0.00    +0.013 A 
ATOM     17  C   UNL     1      11.474 -36.489  42.379  0.00  0.00    +0.005 A 
ATOM     18  C   UNL     1      10.083 -36.174  42.064  0.00  0.00    -0.033 A 
ATOM     28  C   UNL     1       9.708 -35.905  40.685  0.00  0.00    +0.005 A 
ATOM     29  C   UNL     1      10.659 -35.947  39.641  0.00  0.00    +0.013 A 
BRANCH  18  19
ATOM     19  C   UNL     1       8.973 -36.127  43.131  0.00  0.00    +0.119 C 
BRANCH  19  20
ATOM     20  N   UNL     1       8.867 -34.884  43.952  0.00  0.00    -0.302 NA
ATOM     21  C   UNL     1       9.323 -33.643  43.179  0.00  0.00    +0.066 C 
ATOM     22  C   UNL     1       9.183 -32.350  44.046  0.00  0.00    -0.064 C 
ATOM     23  N   UNL     1       9.992 -32.513  45.334  0.00  0.00    +0.379 N 
ATOM     24  C   UNL     1       9.910 -31.276  46.125  0.00  0.00    -0.096 C 
ATOM     25  H   UNL     1      11.059 -32.661  45.047  0.00  0.00    -0.082 HD
ATOM     26  C   UNL     1       9.547 -33.746  46.108  0.00  0.00    -0.064 C 
ATOM     27  C   UNL     1       9.662 -35.022  45.228  0.00  0.00    +0.066 C 
ENDBRANCH  19  20
ENDBRANCH  18  19
ENDBRANCH  14  15
ENDBRANCH  12  13
TORSDOF 6
ENDMDL
