MODEL 1
REMARK VINA RESULT:      -8.1      0.000      0.000
REMARK  Name = C:\Users\Docking\Desktop\test protocol\1iep_ligandH.pdb
REMARK  8 active torsions:
REMARK  status: ('A' for Active; 'I' for Inactive)
REMARK    1  A    between atoms: _5  and  _11
REMARK    2  A    between atoms: _19  and  _21
REMARK    3  A    between atoms: _22  and  _66
REMARK    4  A    between atoms: _27  and  _30
REMARK    5  A    between atoms: _32  and  _33
REMARK    6  A    between atoms: _38  and  _43
REMARK    7  A    between atoms: _43  and  _46
REMARK    8  A    between atoms: _53  and  _55
REMARK                            x       y       z     vdW  Elec       q    Type
REMARK                         _______ _______ _______ _____ _____    ______ ____
ROOT
ATOM     10  C   UNL     1      14.390   0.545 -11.549  0.00  0.00    +0.038 A 
ATOM     11  C   UNL     1      14.767   1.677 -10.781  0.00  0.00    +0.047 A 
ATOM     12  C   UNL     1      14.398   3.022 -11.194  0.00  0.00    +0.035 A 
ATOM     32  C   UNL     1      13.642   3.178 -12.392  0.00  0.00    +0.024 A 
ATOM     33  C   UNL     1      13.252   2.039 -13.185  0.00  0.00    +0.007 A 
ATOM     34  C   UNL     1      13.616   0.710 -12.785  0.00  0.00    -0.029 A 
ATOM     35  C   UNL     1      13.176  -0.475 -13.677  0.00  0.00    +0.045 C 
ENDROOT
BRANCH  10   9
ATOM      4  C   UNL     1      17.505  -3.099 -11.322  0.00  0.00    +0.077 A 
ATOM      5  C   UNL     1      18.441  -2.431 -12.179  0.00  0.00    +0.048 A 
ATOM      6  C   UNL     1      18.080  -1.153 -12.663  0.00  0.00    +0.116 A 
ATOM      7  N   UNL     1      16.870  -0.596 -12.309  0.00  0.00    -0.223 NA
ATOM      8  C   UNL     1      15.990  -1.268 -11.482  0.00  0.00    +0.220 A 
ATOM      9  N   UNL     1      14.772  -0.723 -11.106  0.00  0.00    -0.283 N 
ATOM     36  H   UNL     1      14.147  -1.255 -10.500  0.00  0.00    +0.155 HD
ATOM     37  N   UNL     1      16.311  -2.490 -11.007  0.00  0.00    -0.214 NA
BRANCH   4   3
ATOM      1  C   UNL     1      17.030  -6.461  -9.378  0.00  0.00    +0.020 A 
ATOM      2  C   UNL     1      16.748  -5.155  -9.929  0.00  0.00    +0.013 A 
ATOM      3  C   UNL     1      17.745  -4.453 -10.728  0.00  0.00    +0.019 A 
ATOM     38  C   UNL     1      19.026  -5.105 -10.953  0.00  0.00    +0.120 A 
ATOM     39  N   UNL     1      19.269  -6.362 -10.409  0.00  0.00    -0.263 NA
ATOM     40  C   UNL     1      18.319  -7.047  -9.637  0.00  0.00    +0.111 A 
ENDBRANCH   4   3
ENDBRANCH  10   9
BRANCH  12  13
ATOM     13  N   UNL     1      14.758   4.210 -10.459  0.00  0.00    -0.281 N 
ATOM     14  C   UNL     1      15.867   4.409  -9.653  0.00  0.00    +0.248 C 
ATOM     30  O   UNL     1      16.611   3.518  -9.269  0.00  0.00    -0.270 OA
ATOM     31  H   UNL     1      14.118   4.999 -10.544  0.00  0.00    +0.155 HD
BRANCH  14  15
ATOM     15  C   UNL     1      16.188   5.795  -9.196  0.00  0.00    +0.037 A 
ATOM     16  C   UNL     1      15.635   6.967  -9.879  0.00  0.00    +0.013 A 
ATOM     17  C   UNL     1      15.975   8.294  -9.428  0.00  0.00    +0.005 A 
ATOM     18  C   UNL     1      16.871   8.454  -8.286  0.00  0.00    -0.033 A 
ATOM     28  C   UNL     1      17.401   7.274  -7.624  0.00  0.00    +0.005 A 
ATOM     29  C   UNL     1      17.072   5.972  -8.064  0.00  0.00    +0.013 A 
BRANCH  18  19
ATOM     19  C   UNL     1      17.304   9.832  -7.750  0.00  0.00    +0.119 C 
BRANCH  19  20
ATOM     20  N   UNL     1      17.282  10.027  -6.269  0.00  0.00    -0.302 NA
ATOM     21  C   UNL     1      16.365  11.181  -5.856  0.00  0.00    +0.066 C 
ATOM     22  C   UNL     1      16.336  11.356  -4.302  0.00  0.00    -0.064 C 
ATOM     23  N   UNL     1      17.759  11.587  -3.792  0.00  0.00    +0.379 N 
ATOM     24  C   UNL     1      17.729  11.810  -2.339  0.00  0.00    -0.096 C 
ATOM     25  H   UNL     1      18.143  12.518  -4.269  0.00  0.00    -0.082 HD
ATOM     26  C   UNL     1      18.679  10.445  -4.201  0.00  0.00    -0.064 C 
ATOM     27  C   UNL     1      18.678  10.260  -5.744  0.00  0.00    +0.066 C 
ENDBRANCH  19  20
ENDBRANCH  18  19
ENDBRANCH  14  15
ENDBRANCH  12  13
TORSDOF 6
ENDMDL
MODEL 2
REMARK VINA RESULT:      -8.1      4.527     14.278
REMARK  Name = C:\Users\Docking\Desktop\test protocol\1iep_ligandH.pdb
REMARK  8 active torsions:
REMARK  status: ('A' for Active; 'I' for Inactive)
REMARK    1  A    between atoms: _5  and  _11
REMARK    2  A    between atoms: _19  and  _21
REMARK    3  A    between atoms: _22  and  _66
REMARK    4  A    between atoms: _27  and  _30
REMARK    5  A    between atoms: _32  and  _33
REMARK    6  A    between atoms: _38  and  _43
REMARK    7  A    between atoms: _43  and  _46
REMARK    8  A    between atoms: _53  and  _55
REMARK                            x       y       z     vdW  Elec       q    Type
REMARK                         _______ _______ _______ _____ _____    ______ ____
ROOT
ATOM     10  C   UNL     1      16.876  -1.377 -10.930  0.00  0.00    +0.038 A 
ATOM     11  C   UNL     1      16.447  -2.478 -10.145  0.00  0.00    +0.047 A 
ATOM     12  C   UNL     1      16.453  -3.831 -10.679  0.00  0.00    +0.035 A 
ATOM     32  C   UNL     1      16.904  -4.027 -12.017  0.00  0.00    +0.024 A 
ATOM     33  C   UNL     1      17.342  -2.920 -12.829  0.00  0.00    +0.007 A 
ATOM     34  C   UNL     1      17.336  -1.583 -12.309  0.00  0.00    -0.029 A 
ATOM     35  C   UNL     1      17.811  -0.433 -13.227  0.00  0.00    +0.045 C 
ENDROOT
BRANCH  10   9
ATOM      4  C   UNL     1      15.044   3.043 -10.547  0.00  0.00    +0.077 A 
ATOM      5  C   UNL     1      14.075   2.794 -11.575  0.00  0.00    +0.048 A 
ATOM      6  C   UNL     1      14.086   1.518 -12.182  0.00  0.00    +0.116 A 
ATOM      7  N   UNL     1      15.002   0.569 -11.783  0.00  0.00    -0.223 NA
ATOM      8  C   UNL     1      15.924   0.842 -10.790  0.00  0.00    +0.220 A 
ATOM      9  N   UNL     1      16.849  -0.100 -10.367  0.00  0.00    -0.283 N 
ATOM     36  H   UNL     1      17.518   0.143  -9.636  0.00  0.00    +0.155 HD
ATOM     37  N   UNL     1      15.935   2.054 -10.195  0.00  0.00    -0.214 NA
BRANCH   4   3
ATOM      1  C   UNL     1      15.022   6.856  -9.676  0.00  0.00    +0.020 A 
ATOM      2  C   UNL     1      14.900   5.632 -10.434  0.00  0.00    +0.013 A 
ATOM      3  C   UNL     1      15.157   4.340  -9.809  0.00  0.00    +0.019 A 
ATOM     38  C   UNL     1      15.538   4.322  -8.405  0.00  0.00    +0.120 A 
ATOM     39  N   UNL     1      15.649   5.517  -7.701  0.00  0.00    -0.263 NA
ATOM     40  C   UNL     1      15.406   6.766  -8.292  0.00  0.00    +0.111 A 
ENDBRANCH   4   3
ENDBRANCH  10   9
BRANCH  12  13
ATOM     13  N   UNL     1      16.022  -4.986  -9.931  0.00  0.00    -0.281 N 
ATOM     14  C   UNL     1      16.757  -6.116  -9.611  0.00  0.00    +0.248 C 
ATOM     30  O   UNL     1      17.838  -6.400 -10.104  0.00  0.00    -0.270 OA
ATOM     31  H   UNL     1      15.058  -4.969  -9.598  0.00  0.00    +0.155 HD
BRANCH  14  15
ATOM     15  C   UNL     1      16.204  -7.077  -8.608  0.00  0.00    +0.037 A 
ATOM     16  C   UNL     1      14.820  -6.971  -8.137  0.00  0.00    +0.013 A 
ATOM     17  C   UNL     1      14.317  -7.900  -7.156  0.00  0.00    +0.005 A 
ATOM     18  C   UNL     1      15.199  -8.945  -6.641  0.00  0.00    -0.033 A 
ATOM     28  C   UNL     1      16.565  -9.030  -7.130  0.00  0.00    +0.005 A 
ATOM     29  C   UNL     1      17.062  -8.121  -8.090  0.00  0.00    +0.013 A 
BRANCH  18  19
ATOM     19  C   UNL     1      14.753  -9.966  -5.578  0.00  0.00    +0.119 C 
BRANCH  19  20
ATOM     20  N   UNL     1      15.179 -11.385  -5.772  0.00  0.00    -0.302 NA
ATOM     21  C   UNL     1      14.147 -12.191  -6.565  0.00  0.00    +0.066 C 
ATOM     22  C   UNL     1      14.619 -13.666  -6.778  0.00  0.00    -0.064 C 
ATOM     23  N   UNL     1      14.884 -14.315  -5.418  0.00  0.00    +0.379 N 
ATOM     24  C   UNL     1      15.272 -15.720  -5.612  0.00  0.00    -0.096 C 
ATOM     25  H   UNL     1      13.927 -14.304  -4.846  0.00  0.00    -0.082 HD
ATOM     26  C   UNL     1      15.907 -13.518  -4.621  0.00  0.00    -0.064 C 
ATOM     27  C   UNL     1      15.442 -12.046  -4.441  0.00  0.00    +0.066 C 
ENDBRANCH  19  20
ENDBRANCH  18  19
ENDBRANCH  14  15
ENDBRANCH  12  13
TORSDOF 6
ENDMDL
MODEL 3
REMARK VINA RESULT:      -8.0      6.879     12.853
REMARK  Name = C:\Users\Docking\Desktop\test protocol\1iep_ligandH.pdb
REMARK  8 active torsions:
REMARK  status: ('A' for Active; 'I' for Inactive)
REMARK    1  A    between atoms: _5  and  _11
REMARK    2  A    between atoms: _19  and  _21
REMARK    3  A    between atoms: _22  and  _66
REMARK    4  A    between atoms: _27  and  _30
REMARK    5  A    between atoms: _32  and  _33
REMARK    6  A    between atoms: _38  and  _43
REMARK    7  A    between atoms: _43  and  _46
REMARK    8  A    between atoms: _53  and  _55
REMARK                            x       y       z     vdW  Elec       q    Type
REMARK                         _______ _______ _______ _____ _____    ______ ____
ROOT
ATOM     10  C   UNL     1      16.092  11.937  -9.969  0.00  0.00    +0.038 A 
ATOM     11  C   UNL     1      16.336  10.969 -10.976  0.00  0.00    +0.047 A 
ATOM     12  C   UNL     1      15.800  11.128 -12.319  0.00  0.00    +0.035 A 
ATOM     32  C   UNL     1      15.021  12.287 -12.603  0.00  0.00    +0.024 A 
ATOM     33  C   UNL     1      14.762  13.281 -11.591  0.00  0.00    +0.007 A 
ATOM     34  C   UNL     1      15.286  13.128 -10.264  0.00  0.00    -0.029 A 
ATOM     35  C   UNL     1      14.970  14.222  -9.217  0.00  0.00    +0.045 C 
ENDROOT
BRANCH  10   9
ATOM      4  C   UNL     1      17.701   9.085  -6.461  0.00  0.00    +0.077 A 
ATOM      5  C   UNL     1      17.419   7.898  -7.215  0.00  0.00    +0.048 A 
ATOM      6  C   UNL     1      16.854   8.065  -8.500  0.00  0.00    +0.116 A 
ATOM      7  N   UNL     1      16.594   9.329  -8.983  0.00  0.00    -0.223 NA
ATOM      8  C   UNL     1      16.876  10.453  -8.228  0.00  0.00    +0.220 A 
ATOM      9  N   UNL     1      16.631  11.734  -8.697  0.00  0.00    -0.283 N 
ATOM     36  H   UNL     1      16.846  12.537  -8.107  0.00  0.00    +0.155 HD
ATOM     37  N   UNL     1      17.415  10.320  -6.998  0.00  0.00    -0.214 NA
BRANCH   4   3
ATOM      1  C   UNL     1      20.229   9.379  -3.490  0.00  0.00    +0.020 A 
ATOM      2  C   UNL     1      19.698   9.406  -4.833  0.00  0.00    +0.013 A 
ATOM      3  C   UNL     1      18.302   9.073  -5.089  0.00  0.00    +0.019 A 
ATOM     38  C   UNL     1      17.464   8.716  -3.955  0.00  0.00    +0.120 A 
ATOM     39  N   UNL     1      18.003   8.698  -2.673  0.00  0.00    -0.263 NA
ATOM     40  C   UNL     1      19.345   9.014  -2.414  0.00  0.00    +0.111 A 
ENDBRANCH   4   3
ENDBRANCH  10   9
BRANCH  12  13
ATOM     13  N   UNL     1      16.009  10.174 -13.380  0.00  0.00    -0.281 N 
ATOM     14  C   UNL     1      15.164   9.154 -13.787  0.00  0.00    +0.248 C 
ATOM     30  O   UNL     1      14.190   8.771 -13.156  0.00  0.00    -0.270 OA
ATOM     31  H   UNL     1      16.886  10.262 -13.894  0.00  0.00    +0.155 HD
BRANCH  14  15
ATOM     15  C   UNL     1      15.451   8.448 -15.073  0.00  0.00    +0.037 A 
ATOM     16  C   UNL     1      14.385   7.793 -15.834  0.00  0.00    +0.013 A 
ATOM     17  C   UNL     1      14.692   7.104 -17.063  0.00  0.00    +0.005 A 
ATOM     18  C   UNL     1      16.073   7.069 -17.538  0.00  0.00    -0.033 A 
ATOM     28  C   UNL     1      17.110   7.731 -16.765  0.00  0.00    +0.005 A 
ATOM     29  C   UNL     1      16.813   8.407 -15.560  0.00  0.00    +0.013 A 
BRANCH  18  19
ATOM     19  C   UNL     1      16.495   6.339 -18.827  0.00  0.00    +0.119 C 
BRANCH  19  20
ATOM     20  N   UNL     1      17.151   5.006 -18.675  0.00  0.00    -0.302 NA
ATOM     21  C   UNL     1      18.003   4.642 -19.894  0.00  0.00    +0.066 C 
ATOM     22  C   UNL     1      18.700   3.255 -19.708  0.00  0.00    -0.064 C 
ATOM     23  N   UNL     1      17.638   2.185 -19.450  0.00  0.00    +0.379 N 
ATOM     24  C   UNL     1      18.285   0.870 -19.333  0.00  0.00    -0.096 C 
ATOM     25  H   UNL     1      16.967   2.153 -20.340  0.00  0.00    -0.082 HD
ATOM     26  C   UNL     1      16.785   2.540 -18.241  0.00  0.00    -0.064 C 
ATOM     27  C   UNL     1      16.120   3.933 -18.423  0.00  0.00    +0.066 C 
ENDBRANCH  19  20
ENDBRANCH  18  19
ENDBRANCH  14  15
ENDBRANCH  12  13
TORSDOF 6
ENDMDL
MODEL 4
REMARK VINA RESULT:      -8.0      4.489     13.941
REMARK  Name = C:\Users\Docking\Desktop\test protocol\1iep_ligandH.pdb
REMARK  8 active torsions:
REMARK  status: ('A' for Active; 'I' for Inactive)
REMARK    1  A    between atoms: _5  and  _11
REMARK    2  A    between atoms: _19  and  _21
REMARK    3  A    between atoms: _22  and  _66
REMARK    4  A    between atoms: _27  and  _30
REMARK    5  A    between atoms: _32  and  _33
REMARK    6  A    between atoms: _38  and  _43
REMARK    7  A    between atoms: _43  and  _46
REMARK    8  A    between atoms: _53  and  _55
REMARK                            x       y       z     vdW  Elec       q    Type
REMARK                         _______ _______ _______ _____ _____    ______ ____
ROOT
ATOM     10  C   UNL     1      16.498  -1.128 -10.836  0.00  0.00    +0.038 A 
ATOM     11  C   UNL     1      15.827  -2.113 -10.068  0.00  0.00    +0.047 A 
ATOM     12  C   UNL     1      15.720  -3.487 -10.534  0.00  0.00    +0.035 A 
ATOM     32  C   UNL     1      16.310  -3.822 -11.788  0.00  0.00    +0.024 A 
ATOM     33  C   UNL     1      16.995  -2.833 -12.582  0.00  0.00    +0.007 A 
ATOM     34  C   UNL     1      17.102  -1.476 -12.128  0.00  0.00    -0.029 A 
ATOM     35  C   UNL     1      17.842  -0.455 -13.024  0.00  0.00    +0.045 C 
ENDROOT
BRANCH  10   9
ATOM      4  C   UNL     1      14.950   3.410 -10.613  0.00  0.00    +0.077 A 
ATOM      5  C   UNL     1      13.925   3.171 -11.588  0.00  0.00    +0.048 A 
ATOM      6  C   UNL     1      13.835   1.868 -12.127  0.00  0.00    +0.116 A 
ATOM      7  N   UNL     1      14.709   0.886 -11.715  0.00  0.00    -0.223 NA
ATOM      8  C   UNL     1      15.687   1.150 -10.774  0.00  0.00    +0.220 A 
ATOM      9  N   UNL     1      16.572   0.176 -10.339  0.00  0.00    -0.283 N 
ATOM     36  H   UNL     1      17.284   0.413  -9.649  0.00  0.00    +0.155 HD
ATOM     37  N   UNL     1      15.795   2.387 -10.245  0.00  0.00    -0.214 NA
BRANCH   4   3
ATOM      1  C   UNL     1      15.290   7.253  -9.969  0.00  0.00    +0.020 A 
ATOM      2  C   UNL     1      15.068   6.003 -10.658  0.00  0.00    +0.013 A 
ATOM      3  C   UNL     1      15.170   4.734  -9.949  0.00  0.00    +0.019 A 
ATOM     38  C   UNL     1      15.500   4.765  -8.532  0.00  0.00    +0.120 A 
ATOM     39  N   UNL     1      15.710   5.984  -7.895  0.00  0.00    -0.263 NA
ATOM     40  C   UNL     1      15.616   7.212  -8.568  0.00  0.00    +0.111 A 
ENDBRANCH   4   3
ENDBRANCH  10   9
BRANCH  12  13
ATOM     13  N   UNL     1      15.044  -4.529  -9.802  0.00  0.00    -0.281 N 
ATOM     14  C   UNL     1      13.905  -5.227 -10.169  0.00  0.00    +0.248 C 
ATOM     30  O   UNL     1      13.168  -4.911 -11.092  0.00  0.00    -0.270 OA
ATOM     31  H   UNL     1      15.455  -4.782  -8.903  0.00  0.00    +0.155 HD
BRANCH  14  15
ATOM     15  C   UNL     1      13.521  -6.443  -9.390  0.00  0.00    +0.037 A 
ATOM     16  C   UNL     1      12.271  -7.157  -9.663  0.00  0.00    +0.013 A 
ATOM     17  C   UNL     1      11.917  -8.318  -8.885  0.00  0.00    +0.005 A 
ATOM     18  C   UNL     1      12.815  -8.773  -7.827  0.00  0.00    -0.033 A 
ATOM     28  C   UNL     1      14.051  -8.049  -7.581  0.00  0.00    +0.005 A 
ATOM     29  C   UNL     1      14.402  -6.910  -8.341  0.00  0.00    +0.013 A 
BRANCH  18  19
ATOM     19  C   UNL     1      12.507  -9.989  -6.934  0.00  0.00    +0.119 C 
BRANCH  19  20
ATOM     20  N   UNL     1      13.669 -10.698  -6.320  0.00  0.00    -0.302 NA
ATOM     21  C   UNL     1      14.067 -11.945  -7.115  0.00  0.00    +0.066 C 
ATOM     22  C   UNL     1      15.298 -12.662  -6.471  0.00  0.00    -0.064 C 
ATOM     23  N   UNL     1      14.973 -13.025  -5.021  0.00  0.00    +0.379 N 
ATOM     24  C   UNL     1      16.107 -13.751  -4.431  0.00  0.00    -0.096 C 
ATOM     25  H   UNL     1      14.098 -13.716  -5.034  0.00  0.00    -0.082 HD
ATOM     26  C   UNL     1      14.574 -11.791  -4.224  0.00  0.00    -0.064 C 
ATOM     27  C   UNL     1      13.368 -11.069  -4.889  0.00  0.00    +0.066 C 
ENDBRANCH  19  20
ENDBRANCH  18  19
ENDBRANCH  14  15
ENDBRANCH  12  13
TORSDOF 6
ENDMDL
MODEL 5
REMARK VINA RESULT:      -8.0      7.698     12.352
REMARK  Name = C:\Users\Docking\Desktop\test protocol\1iep_ligandH.pdb
REMARK  8 active torsions:
REMARK  status: ('A' for Active; 'I' for Inactive)
REMARK    1  A    between atoms: _5  and  _11
REMARK    2  A    between atoms: _19  and  _21
REMARK    3  A    between atoms: _22  and  _66
REMARK    4  A    between atoms: _27  and  _30
REMARK    5  A    between atoms: _32  and  _33
REMARK    6  A    between atoms: _38  and  _43
REMARK    7  A    between atoms: _43  and  _46
REMARK    8  A    between atoms: _53  and  _55
REMARK                            x       y       z     vdW  Elec       q    Type
REMARK                         _______ _______ _______ _____ _____    ______ ____
ROOT
ATOM     10  C   UNL     1      14.556  -8.713  -6.692  0.00  0.00    +0.038 A 
ATOM     11  C   UNL     1      14.902  -7.533  -7.399  0.00  0.00    +0.047 A 
ATOM     12  C   UNL     1      16.243  -7.339  -7.929  0.00  0.00    +0.035 A 
ATOM     32  C   UNL     1      17.206  -8.369  -7.723  0.00  0.00    +0.024 A 
ATOM     33  C   UNL     1      16.872  -9.574  -7.005  0.00  0.00    +0.007 A 
ATOM     34  C   UNL     1      15.552  -9.770  -6.478  0.00  0.00    -0.029 A 
ATOM     35  C   UNL     1      15.252 -11.079  -5.711  0.00  0.00    +0.045 C 
ENDROOT
BRANCH  10   9
ATOM      4  C   UNL     1      11.154  -7.858  -3.416  0.00  0.00    +0.077 A 
ATOM      5  C   UNL     1      12.054  -7.103  -2.592  0.00  0.00    +0.048 A 
ATOM      6  C   UNL     1      13.386  -6.965  -3.043  0.00  0.00    +0.116 A 
ATOM      7  N   UNL     1      13.777  -7.542  -4.232  0.00  0.00    -0.223 NA
ATOM      8  C   UNL     1      12.884  -8.265  -5.002  0.00  0.00    +0.220 A 
ATOM      9  N   UNL     1      13.254  -8.847  -6.204  0.00  0.00    -0.283 N 
ATOM     36  H   UNL     1      12.568  -9.378  -6.739  0.00  0.00    +0.155 HD
ATOM     37  N   UNL     1      11.607  -8.413  -4.592  0.00  0.00    -0.214 NA
BRANCH   4   3
ATOM      1  C   UNL     1       7.871  -8.746  -1.483  0.00  0.00    +0.020 A 
ATOM      2  C   UNL     1       9.274  -8.537  -1.760  0.00  0.00    +0.013 A 
ATOM      3  C   UNL     1       9.715  -8.090  -3.076  0.00  0.00    +0.019 A 
ATOM     38  C   UNL     1       8.703  -7.862  -4.096  0.00  0.00    +0.120 A 
ATOM     39  N   UNL     1       7.360  -8.073  -3.801  0.00  0.00    -0.263 NA
ATOM     40  C   UNL     1       6.924  -8.504  -2.539  0.00  0.00    +0.111 A 
ENDBRANCH   4   3
ENDBRANCH  10   9
BRANCH  12  13
ATOM     13  N   UNL     1      16.654  -6.159  -8.648  0.00  0.00    -0.281 N 
ATOM     14  C   UNL     1      16.988  -6.051  -9.988  0.00  0.00    +0.248 C 
ATOM     30  O   UNL     1      17.189  -7.002 -10.729  0.00  0.00    -0.270 OA
ATOM     31  H   UNL     1      16.706  -5.298  -8.103  0.00  0.00    +0.155 HD
BRANCH  14  15
ATOM     15  C   UNL     1      17.132  -4.690 -10.589  0.00  0.00    +0.037 A 
ATOM     16  C   UNL     1      18.346  -4.304 -11.312  0.00  0.00    +0.013 A 
ATOM     17  C   UNL     1      18.466  -2.979 -11.868  0.00  0.00    +0.005 A 
ATOM     18  C   UNL     1      17.367  -2.031 -11.703  0.00  0.00    -0.033 A 
ATOM     28  C   UNL     1      16.171  -2.443 -10.986  0.00  0.00    +0.005 A 
ATOM     29  C   UNL     1      16.050  -3.740 -10.439  0.00  0.00    +0.013 A 
BRANCH  18  19
ATOM     19  C   UNL     1      17.417  -0.590 -12.244  0.00  0.00    +0.119 C 
BRANCH  19  20
ATOM     20  N   UNL     1      17.032  -0.382 -13.672  0.00  0.00    -0.302 NA
ATOM     21  C   UNL     1      18.227  -0.535 -14.617  0.00  0.00    +0.066 C 
ATOM     22  C   UNL     1      17.802  -0.337 -16.109  0.00  0.00    -0.064 C 
ATOM     23  N   UNL     1      17.154   1.039 -16.273  0.00  0.00    +0.379 N 
ATOM     24  C   UNL     1      16.806   1.252 -17.685  0.00  0.00    -0.096 C 
ATOM     25  H   UNL     1      17.914   1.806 -15.992  0.00  0.00    -0.082 HD
ATOM     26  C   UNL     1      15.967   1.201 -15.335  0.00  0.00    -0.064 C 
ATOM     27  C   UNL     1      16.394   0.973 -13.858  0.00  0.00    +0.066 C 
ENDBRANCH  19  20
ENDBRANCH  18  19
ENDBRANCH  14  15
ENDBRANCH  12  13
TORSDOF 6
ENDMDL
