MODEL 1
REMARK VINA RESULT:      -8.9      0.000      0.000
REMARK  Name = C:\Users\Docking\Desktop\test protocol\1iep_ligandH.pdb
REMARK  8 active torsions:
REMARK  status: ('A' for Active; 'I' for Inactive)
REMARK    1  A    between atoms: _5  and  _11
REMARK    2  A    between atoms: _19  and  _21
REMARK    3  A    between atoms: _22  and  _66
REMARK    4  A    between atoms: _27  and  _30
REMARK    5  A    between atoms: _32  and  _33
REMARK    6  A    between atoms: _38  and  _43
REMARK    7  A    between atoms: _43  and  _46
REMARK    8  A    between atoms: _53  and  _55
REMARK                            x       y       z     vdW  Elec       q    Type
REMARK                         _______ _______ _______ _____ _____    ______ ____
ROOT
ATOM     10  C   UNL     1      -9.433  94.192  61.445  0.00  0.00    +0.038 A 
ATOM     11  C   UNL     1      -9.299  93.147  60.495  0.00  0.00    +0.047 A 
ATOM     12  C   UNL     1      -8.135  92.275  60.495  0.00  0.00    +0.035 A 
ATOM     32  C   UNL     1      -7.127  92.492  61.479  0.00  0.00    +0.024 A 
ATOM     33  C   UNL     1      -7.247  93.550  62.452  0.00  0.00    +0.007 A 
ATOM     34  C   UNL     1      -8.391  94.415  62.455  0.00  0.00    -0.029 A 
ATOM     35  C   UNL     1      -8.464  95.537  63.518  0.00  0.00    +0.045 C 
ENDROOT
BRANCH  10   9
ATOM      4  C   UNL     1     -11.751  98.165  60.076  0.00  0.00    +0.077 A 
ATOM      5  C   UNL     1     -10.588  98.688  59.419  0.00  0.00    +0.048 A 
ATOM      6  C   UNL     1      -9.411  97.907  59.463  0.00  0.00    +0.116 A 
ATOM      7  N   UNL     1      -9.410  96.694  60.117  0.00  0.00    -0.223 NA
ATOM      8  C   UNL     1     -10.548  96.220  60.742  0.00  0.00    +0.220 A 
ATOM      9  N   UNL     1     -10.571  94.999  61.400  0.00  0.00    -0.283 N 
ATOM     36  H   UNL     1     -11.429  94.688  61.855  0.00  0.00    +0.155 HD
ATOM     37  N   UNL     1     -11.684  96.948  60.716  0.00  0.00    -0.214 NA
BRANCH   4   3
ATOM      1  C   UNL     1     -14.611 100.767  59.485  0.00  0.00    +0.020 A 
ATOM      2  C   UNL     1     -13.318 100.126  59.416  0.00  0.00    +0.013 A 
ATOM      3  C   UNL     1     -13.070  98.872  60.115  0.00  0.00    +0.019 A 
ATOM     38  C   UNL     1     -14.161  98.288  60.882  0.00  0.00    +0.120 A 
ATOM     39  N   UNL     1     -15.394  98.929  60.932  0.00  0.00    -0.263 NA
ATOM     40  C   UNL     1     -15.644 100.137  60.264  0.00  0.00    +0.111 A 
ENDBRANCH   4   3
ENDBRANCH  10   9
BRANCH  12  13
ATOM     13  N   UNL     1      -7.941  91.203  59.549  0.00  0.00    -0.281 N 
ATOM     14  C   UNL     1      -8.335  89.881  59.669  0.00  0.00    +0.248 C 
ATOM     30  O   UNL     1      -8.729  89.367  60.705  0.00  0.00    -0.270 OA
ATOM     31  H   UNL     1      -7.453  91.450  58.688  0.00  0.00    +0.155 HD
BRANCH  14  15
ATOM     15  C   UNL     1      -8.268  88.996  58.466  0.00  0.00    +0.037 A 
ATOM     16  C   UNL     1      -8.179  87.540  58.597  0.00  0.00    +0.013 A 
ATOM     17  C   UNL     1      -8.099  86.711  57.420  0.00  0.00    +0.005 A 
ATOM     18  C   UNL     1      -8.110  87.338  56.101  0.00  0.00    -0.033 A 
ATOM     28  C   UNL     1      -8.204  88.785  55.999  0.00  0.00    +0.005 A 
ATOM     29  C   UNL     1      -8.282  89.600  57.150  0.00  0.00    +0.013 A 
BRANCH  18  19
ATOM     19  C   UNL     1      -8.007  86.533  54.792  0.00  0.00    +0.119 C 
BRANCH  19  20
ATOM     20  N   UNL     1      -8.832  85.292  54.685  0.00  0.00    -0.302 NA
ATOM     21  C   UNL     1      -7.966  84.034  54.575  0.00  0.00    +0.066 C 
ATOM     22  C   UNL     1      -8.845  82.744  54.487  0.00  0.00    -0.064 C 
ATOM     23  N   UNL     1      -9.792  82.856  53.291  0.00  0.00    +0.379 N 
ATOM     24  C   UNL     1     -10.579  81.620  53.171  0.00  0.00    -0.096 C 
ATOM     25  H   UNL     1      -9.167  82.950  52.373  0.00  0.00    -0.082 HD
ATOM     26  C   UNL     1     -10.655  84.106  53.391  0.00  0.00    -0.064 C 
ATOM     27  C   UNL     1      -9.772  85.380  53.508  0.00  0.00    +0.066 C 
ENDBRANCH  19  20
ENDBRANCH  18  19
ENDBRANCH  14  15
ENDBRANCH  12  13
TORSDOF 6
ENDMDL
MODEL 2
REMARK VINA RESULT:      -8.7      1.762      2.113
REMARK  Name = C:\Users\Docking\Desktop\test protocol\1iep_ligandH.pdb
REMARK  8 active torsions:
REMARK  status: ('A' for Active; 'I' for Inactive)
REMARK    1  A    between atoms: _5  and  _11
REMARK    2  A    between atoms: _19  and  _21
REMARK    3  A    between atoms: _22  and  _66
REMARK    4  A    between atoms: _27  and  _30
REMARK    5  A    between atoms: _32  and  _33
REMARK    6  A    between atoms: _38  and  _43
REMARK    7  A    between atoms: _43  and  _46
REMARK    8  A    between atoms: _53  and  _55
REMARK                            x       y       z     vdW  Elec       q    Type
REMARK                         _______ _______ _______ _____ _____    ______ ____
ROOT
ATOM     10  C   UNL     1      -8.584  95.101  59.118  0.00  0.00    +0.038 A 
ATOM     11  C   UNL     1      -8.756  93.745  58.740  0.00  0.00    +0.047 A 
ATOM     12  C   UNL     1      -7.673  92.783  58.873  0.00  0.00    +0.035 A 
ATOM     32  C   UNL     1      -6.427  93.237  59.396  0.00  0.00    +0.024 A 
ATOM     33  C   UNL     1      -6.234  94.613  59.783  0.00  0.00    +0.007 A 
ATOM     34  C   UNL     1      -7.299  95.566  59.652  0.00  0.00    -0.029 A 
ATOM     35  C   UNL     1      -7.033  97.029  60.077  0.00  0.00    +0.045 C 
ENDROOT
BRANCH  10   9
ATOM      4  C   UNL     1     -12.319  97.554  60.869  0.00  0.00    +0.077 A 
ATOM      5  C   UNL     1     -12.131  97.016  62.185  0.00  0.00    +0.048 A 
ATOM      6  C   UNL     1     -11.066  96.106  62.368  0.00  0.00    +0.116 A 
ATOM      7  N   UNL     1     -10.255  95.766  61.307  0.00  0.00    -0.223 NA
ATOM      8  C   UNL     1     -10.466  96.302  60.049  0.00  0.00    +0.220 A 
ATOM      9  N   UNL     1      -9.658  95.981  58.969  0.00  0.00    -0.283 N 
ATOM     36  H   UNL     1      -9.851  96.392  58.056  0.00  0.00    +0.155 HD
ATOM     37  N   UNL     1     -11.477  97.173  59.848  0.00  0.00    -0.214 NA
BRANCH   4   3
ATOM      1  C   UNL     1     -14.293 100.511  59.236  0.00  0.00    +0.020 A 
ATOM      2  C   UNL     1     -13.217  99.594  59.539  0.00  0.00    +0.013 A 
ATOM      3  C   UNL     1     -13.399  98.530  60.518  0.00  0.00    +0.019 A 
ATOM     38  C   UNL     1     -14.691  98.419  61.177  0.00  0.00    +0.120 A 
ATOM     39  N   UNL     1     -15.708  99.316  60.867  0.00  0.00    -0.263 NA
ATOM     40  C   UNL     1     -15.544 100.346  59.927  0.00  0.00    +0.111 A 
ENDBRANCH   4   3
ENDBRANCH  10   9
BRANCH  12  13
ATOM     13  N   UNL     1      -7.787  91.395  58.499  0.00  0.00    -0.281 N 
ATOM     14  C   UNL     1      -7.749  90.850  57.226  0.00  0.00    +0.248 C 
ATOM     30  O   UNL     1      -7.826  91.500  56.194  0.00  0.00    -0.270 OA
ATOM     31  H   UNL     1      -7.910  90.734  59.266  0.00  0.00    +0.155 HD
BRANCH  14  15
ATOM     15  C   UNL     1      -7.622  89.369  57.078  0.00  0.00    +0.037 A 
ATOM     16  C   UNL     1      -8.359  88.452  57.952  0.00  0.00    +0.013 A 
ATOM     17  C   UNL     1      -8.206  87.027  57.799  0.00  0.00    +0.005 A 
ATOM     18  C   UNL     1      -7.311  86.510  56.767  0.00  0.00    -0.033 A 
ATOM     28  C   UNL     1      -6.596  87.441  55.910  0.00  0.00    +0.005 A 
ATOM     29  C   UNL     1      -6.743  88.839  56.058  0.00  0.00    +0.013 A 
BRANCH  18  19
ATOM     19  C   UNL     1      -7.070  85.004  56.546  0.00  0.00    +0.119 C 
BRANCH  19  20
ATOM     20  N   UNL     1      -8.182  84.216  55.937  0.00  0.00    -0.302 NA
ATOM     21  C   UNL     1      -7.869  82.717  55.896  0.00  0.00    +0.066 C 
ATOM     22  C   UNL     1      -9.052  81.905  55.276  0.00  0.00    -0.064 C 
ATOM     23  N   UNL     1      -9.350  82.434  53.872  0.00  0.00    +0.379 N 
ATOM     24  C   UNL     1     -10.423  81.635  53.264  0.00  0.00    -0.096 C 
ATOM     25  H   UNL     1      -8.432  82.293  53.256  0.00  0.00    -0.082 HD
ATOM     26  C   UNL     1      -9.660  83.924  53.903  0.00  0.00    -0.064 C 
ATOM     27  C   UNL     1      -8.490  84.719  54.548  0.00  0.00    +0.066 C 
ENDBRANCH  19  20
ENDBRANCH  18  19
ENDBRANCH  14  15
ENDBRANCH  12  13
TORSDOF 6
ENDMDL
MODEL 3
REMARK VINA RESULT:      -8.1      1.806      2.640
REMARK  Name = C:\Users\Docking\Desktop\test protocol\1iep_ligandH.pdb
REMARK  8 active torsions:
REMARK  status: ('A' for Active; 'I' for Inactive)
REMARK    1  A    between atoms: _5  and  _11
REMARK    2  A    between atoms: _19  and  _21
REMARK    3  A    between atoms: _22  and  _66
REMARK    4  A    between atoms: _27  and  _30
REMARK    5  A    between atoms: _32  and  _33
REMARK    6  A    between atoms: _38  and  _43
REMARK    7  A    between atoms: _43  and  _46
REMARK    8  A    between atoms: _53  and  _55
REMARK                            x       y       z     vdW  Elec       q    Type
REMARK                         _______ _______ _______ _____ _____    ______ ____
ROOT
ATOM     10  C   UNL     1      -7.758  95.971  59.621  0.00  0.00    +0.038 A 
ATOM     11  C   UNL     1      -7.789  94.583  59.328  0.00  0.00    +0.047 A 
ATOM     12  C   UNL     1      -6.625  93.741  59.552  0.00  0.00    +0.035 A 
ATOM     32  C   UNL     1      -5.446  94.344  60.079  0.00  0.00    +0.024 A 
ATOM     33  C   UNL     1      -5.396  95.753  60.382  0.00  0.00    +0.007 A 
ATOM     34  C   UNL     1      -6.541  96.589  60.160  0.00  0.00    -0.029 A 
ATOM     35  C   UNL     1      -6.429  98.095  60.497  0.00  0.00    +0.045 C 
ENDROOT
BRANCH  10   9
ATOM      4  C   UNL     1     -11.944  97.859  61.018  0.00  0.00    +0.077 A 
ATOM      5  C   UNL     1     -11.851  97.255  62.316  0.00  0.00    +0.048 A 
ATOM      6  C   UNL     1     -10.714  96.459  62.581  0.00  0.00    +0.116 A 
ATOM      7  N   UNL     1      -9.747  96.289  61.614  0.00  0.00    -0.223 NA
ATOM      8  C   UNL     1      -9.869  96.884  60.372  0.00  0.00    +0.220 A 
ATOM      9  N   UNL     1      -8.905  96.733  59.387  0.00  0.00    -0.283 N 
ATOM     36  H   UNL     1      -9.035  97.182  58.481  0.00  0.00    +0.155 HD
ATOM     37  N   UNL     1     -10.946  97.647  60.093  0.00  0.00    -0.214 NA
BRANCH   4   3
ATOM      1  C   UNL     1     -15.528  99.354  60.543  0.00  0.00    +0.020 A 
ATOM      2  C   UNL     1     -14.464  98.482  60.986  0.00  0.00    +0.013 A 
ATOM      3  C   UNL     1     -13.084  98.729  60.588  0.00  0.00    +0.019 A 
ATOM     38  C   UNL     1     -12.812  99.876  59.734  0.00  0.00    +0.120 A 
ATOM     39  N   UNL     1     -13.857 100.697  59.322  0.00  0.00    -0.263 NA
ATOM     40  C   UNL     1     -15.189 100.468  59.698  0.00  0.00    +0.111 A 
ENDBRANCH   4   3
ENDBRANCH  10   9
BRANCH  12  13
ATOM     13  N   UNL     1      -6.594  92.328  59.265  0.00  0.00    -0.281 N 
ATOM     14  C   UNL     1      -7.068  91.290  60.050  0.00  0.00    +0.248 C 
ATOM     30  O   UNL     1      -7.400  91.404  61.221  0.00  0.00    -0.270 OA
ATOM     31  H   UNL     1      -6.172  92.061  58.376  0.00  0.00    +0.155 HD
BRANCH  14  15
ATOM     15  C   UNL     1      -7.176  89.924  59.453  0.00  0.00    +0.037 A 
ATOM     16  C   UNL     1      -8.294  89.036  59.782  0.00  0.00    +0.013 A 
ATOM     17  C   UNL     1      -8.365  87.717  59.204  0.00  0.00    +0.005 A 
ATOM     18  C   UNL     1      -7.313  87.279  58.290  0.00  0.00    -0.033 A 
ATOM     28  C   UNL     1      -6.218  88.181  57.977  0.00  0.00    +0.005 A 
ATOM     29  C   UNL     1      -6.145  89.474  58.542  0.00  0.00    +0.013 A 
BRANCH  18  19
ATOM     19  C   UNL     1      -7.296  85.880  57.644  0.00  0.00    +0.119 C 
BRANCH  19  20
ATOM     20  N   UNL     1      -7.664  85.790  56.200  0.00  0.00    -0.302 NA
ATOM     21  C   UNL     1      -8.786  86.764  55.830  0.00  0.00    +0.066 C 
ATOM     22  C   UNL     1      -9.142  86.673  54.311  0.00  0.00    -0.064 C 
ATOM     23  N   UNL     1      -9.538  85.235  53.968  0.00  0.00    +0.379 N 
ATOM     24  C   UNL     1      -9.930  85.158  52.553  0.00  0.00    -0.096 C 
ATOM     25  H   UNL     1     -10.432  84.976  54.582  0.00  0.00    -0.082 HD
ATOM     26  C   UNL     1      -8.429  84.260  54.335  0.00  0.00    -0.064 C 
ATOM     27  C   UNL     1      -8.062  84.380  55.841  0.00  0.00    +0.066 C 
ENDBRANCH  19  20
ENDBRANCH  18  19
ENDBRANCH  14  15
ENDBRANCH  12  13
TORSDOF 6
ENDMDL
MODEL 4
REMARK VINA RESULT:      -7.9     34.125     36.038
REMARK  Name = C:\Users\Docking\Desktop\test protocol\1iep_ligandH.pdb
REMARK  8 active torsions:
REMARK  status: ('A' for Active; 'I' for Inactive)
REMARK    1  A    between atoms: _5  and  _11
REMARK    2  A    between atoms: _19  and  _21
REMARK    3  A    between atoms: _22  and  _66
REMARK    4  A    between atoms: _27  and  _30
REMARK    5  A    between atoms: _32  and  _33
REMARK    6  A    between atoms: _38  and  _43
REMARK    7  A    between atoms: _43  and  _46
REMARK    8  A    between atoms: _53  and  _55
REMARK                            x       y       z     vdW  Elec       q    Type
REMARK                         _______ _______ _______ _____ _____    ______ ____
ROOT
ATOM     10  C   UNL     1       2.358 112.942  33.111  0.00  0.00    +0.038 A 
ATOM     11  C   UNL     1       2.917 112.097  32.117  0.00  0.00    +0.047 A 
ATOM     12  C   UNL     1       2.890 112.469  30.711  0.00  0.00    +0.035 A 
ATOM     32  C   UNL     1       2.287 113.710  30.352  0.00  0.00    +0.024 A 
ATOM     33  C   UNL     1       1.713 114.580  31.349  0.00  0.00    +0.007 A 
ATOM     34  C   UNL     1       1.735 114.217  32.737  0.00  0.00    -0.029 A 
ATOM     35  C   UNL     1       1.099 115.186  33.761  0.00  0.00    +0.045 C 
ENDROOT
BRANCH  10   9
ATOM      4  C   UNL     1       4.554 112.679  37.370  0.00  0.00    +0.077 A 
ATOM      5  C   UNL     1       5.704 113.388  36.887  0.00  0.00    +0.048 A 
ATOM      6  C   UNL     1       5.693 113.797  35.535  0.00  0.00    +0.116 A 
ATOM      7  N   UNL     1       4.608 113.513  34.734  0.00  0.00    -0.223 NA
ATOM      8  C   UNL     1       3.516 112.825  35.231  0.00  0.00    +0.220 A 
ATOM      9  N   UNL     1       2.411 112.535  34.446  0.00  0.00    -0.283 N 
ATOM     36  H   UNL     1       1.629 112.019  34.847  0.00  0.00    +0.155 HD
ATOM     37  N   UNL     1       3.503 112.422  36.519  0.00  0.00    -0.214 NA
BRANCH   4   3
ATOM      1  C   UNL     1       3.305 112.169  41.042  0.00  0.00    +0.020 A 
ATOM      2  C   UNL     1       3.397 112.681  39.694  0.00  0.00    +0.013 A 
ATOM      3  C   UNL     1       4.415 112.184  38.776  0.00  0.00    +0.019 A 
ATOM     38  C   UNL     1       5.330 111.160  39.257  0.00  0.00    +0.120 A 
ATOM     39  N   UNL     1       5.218 110.687  40.561  0.00  0.00    -0.263 NA
ATOM     40  C   UNL     1       4.244 111.159  41.454  0.00  0.00    +0.111 A 
ENDBRANCH   4   3
ENDBRANCH  10   9
BRANCH  12  13
ATOM     13  N   UNL     1       3.434 111.649  29.658  0.00  0.00    -0.281 N 
ATOM     14  C   UNL     1       4.758 111.530  29.270  0.00  0.00    +0.248 C 
ATOM     30  O   UNL     1       5.655 112.277  29.633  0.00  0.00    -0.270 OA
ATOM     31  H   UNL     1       2.761 111.089  29.135  0.00  0.00    +0.155 HD
BRANCH  14  15
ATOM     15  C   UNL     1       5.140 110.431  28.332  0.00  0.00    +0.037 A 
ATOM     16  C   UNL     1       4.289 110.074  27.193  0.00  0.00    +0.013 A 
ATOM     17  C   UNL     1       4.672 108.998  26.313  0.00  0.00    +0.005 A 
ATOM     18  C   UNL     1       5.913 108.272  26.569  0.00  0.00    -0.033 A 
ATOM     28  C   UNL     1       6.741 108.650  27.702  0.00  0.00    +0.005 A 
ATOM     29  C   UNL     1       6.368 109.703  28.567  0.00  0.00    +0.013 A 
BRANCH  18  19
ATOM     19  C   UNL     1       6.389 107.096  25.695  0.00  0.00    +0.119 C 
BRANCH  19  20
ATOM     20  N   UNL     1       5.824 105.747  25.996  0.00  0.00    -0.302 NA
ATOM     21  C   UNL     1       6.910 104.747  26.401  0.00  0.00    +0.066 C 
ATOM     22  C   UNL     1       6.299 103.347  26.735  0.00  0.00    -0.064 C 
ATOM     23  N   UNL     1       5.514 102.835  25.525  0.00  0.00    +0.379 N 
ATOM     24  C   UNL     1       4.987 101.493  25.815  0.00  0.00    -0.096 C 
ATOM     25  H   UNL     1       6.229 102.741  24.674  0.00  0.00    -0.082 HD
ATOM     26  C   UNL     1       4.434 103.825  25.114  0.00  0.00    -0.064 C 
ATOM     27  C   UNL     1       5.049 105.220  24.813  0.00  0.00    +0.066 C 
ENDBRANCH  19  20
ENDBRANCH  18  19
ENDBRANCH  14  15
ENDBRANCH  12  13
TORSDOF 6
ENDMDL
MODEL 5
REMARK VINA RESULT:      -7.8     17.913     20.998
REMARK  Name = C:\Users\Docking\Desktop\test protocol\1iep_ligandH.pdb
REMARK  8 active torsions:
REMARK  status: ('A' for Active; 'I' for Inactive)
REMARK    1  A    between atoms: _5  and  _11
REMARK    2  A    between atoms: _19  and  _21
REMARK    3  A    between atoms: _22  and  _66
REMARK    4  A    between atoms: _27  and  _30
REMARK    5  A    between atoms: _32  and  _33
REMARK    6  A    between atoms: _38  and  _43
REMARK    7  A    between atoms: _43  and  _46
REMARK    8  A    between atoms: _53  and  _55
REMARK                            x       y       z     vdW  Elec       q    Type
REMARK                         _______ _______ _______ _____ _____    ______ ____
ROOT
ATOM     10  C   UNL     1     -16.097 110.649  52.120  0.00  0.00    +0.038 A 
ATOM     11  C   UNL     1     -14.988 110.509  52.992  0.00  0.00    +0.047 A 
ATOM     12  C   UNL     1     -13.718 111.159  52.706  0.00  0.00    +0.035 A 
ATOM     32  C   UNL     1     -13.614 111.947  51.523  0.00  0.00    +0.024 A 
ATOM     33  C   UNL     1     -14.731 112.099  50.624  0.00  0.00    +0.007 A 
ATOM     34  C   UNL     1     -15.985 111.459  50.900  0.00  0.00    -0.029 A 
ATOM     35  C   UNL     1     -17.147 111.652  49.898  0.00  0.00    +0.045 C 
ENDROOT
BRANCH  10   9
ATOM      4  C   UNL     1     -19.279 108.980  55.302  0.00  0.00    +0.077 A 
ATOM      5  C   UNL     1     -18.479 109.406  56.414  0.00  0.00    +0.048 A 
ATOM      6  C   UNL     1     -17.253 110.045  56.124  0.00  0.00    +0.116 A 
ATOM      7  N   UNL     1     -16.865 110.238  54.816  0.00  0.00    -0.223 NA
ATOM      8  C   UNL     1     -17.659 109.813  53.767  0.00  0.00    +0.220 A 
ATOM      9  N   UNL     1     -17.293 110.004  52.443  0.00  0.00    -0.283 N 
ATOM     36  H   UNL     1     -17.903 109.669  51.698  0.00  0.00    +0.155 HD
ATOM     37  N   UNL     1     -18.834 109.199  54.017  0.00  0.00    -0.214 NA
BRANCH   4   3
ATOM      1  C   UNL     1     -22.404 106.721  54.643  0.00  0.00    +0.020 A 
ATOM      2  C   UNL     1     -21.121 107.358  54.456  0.00  0.00    +0.013 A 
ATOM      3  C   UNL     1     -20.602 108.293  55.446  0.00  0.00    +0.019 A 
ATOM     38  C   UNL     1     -21.412 108.564  56.623  0.00  0.00    +0.120 A 
ATOM     39  N   UNL     1     -22.645 107.938  56.776  0.00  0.00    -0.263 NA
ATOM     40  C   UNL     1     -23.155 107.037  55.829  0.00  0.00    +0.111 A 
ENDBRANCH   4   3
ENDBRANCH  10   9
BRANCH  12  13
ATOM     13  N   UNL     1     -12.555 111.046  53.551  0.00  0.00    -0.281 N 
ATOM     14  C   UNL     1     -11.822 112.067  54.131  0.00  0.00    +0.248 C 
ATOM     30  O   UNL     1     -11.929 113.249  53.837  0.00  0.00    -0.270 OA
ATOM     31  H   UNL     1     -12.234 110.097  53.744  0.00  0.00    +0.155 HD
BRANCH  14  15
ATOM     15  C   UNL     1     -10.814 111.726  55.181  0.00  0.00    +0.037 A 
ATOM     16  C   UNL     1     -10.436 110.337  55.449  0.00  0.00    +0.013 A 
ATOM     17  C   UNL     1      -9.474 110.034  56.478  0.00  0.00    +0.005 A 
ATOM     18  C   UNL     1      -8.881 111.126  57.248  0.00  0.00    -0.033 A 
ATOM     28  C   UNL     1      -9.270 112.496  56.958  0.00  0.00    +0.005 A 
ATOM     29  C   UNL     1     -10.214 112.796  55.950  0.00  0.00    +0.013 A 
BRANCH  18  19
ATOM     19  C   UNL     1      -7.862 110.894  58.379  0.00  0.00    +0.119 C 
BRANCH  19  20
ATOM     20  N   UNL     1      -8.142 109.781  59.334  0.00  0.00    -0.302 NA
ATOM     21  C   UNL     1      -9.405 110.038  60.162  0.00  0.00    +0.066 C 
ATOM     22  C   UNL     1      -9.695 108.854  61.140  0.00  0.00    -0.064 C 
ATOM     23  N   UNL     1      -8.485 108.639  62.051  0.00  0.00    +0.379 N 
ATOM     24  C   UNL     1      -8.777 107.564  63.010  0.00  0.00    -0.096 C 
ATOM     25  H   UNL     1      -8.328 109.577  62.632  0.00  0.00    -0.082 HD
ATOM     26  C   UNL     1      -7.224 108.385  61.236  0.00  0.00    -0.064 C 
ATOM     27  C   UNL     1      -6.961 109.555  60.246  0.00  0.00    +0.066 C 
ENDBRANCH  19  20
ENDBRANCH  18  19
ENDBRANCH  14  15
ENDBRANCH  12  13
TORSDOF 6
ENDMDL
