MODEL 1
REMARK VINA RESULT:      -8.8      0.000      0.000
REMARK  Name = C:\Users\Docking\Desktop\test protocol\1iep_ligandH.pdb
REMARK  8 active torsions:
REMARK  status: ('A' for Active; 'I' for Inactive)
REMARK    1  A    between atoms: _5  and  _11
REMARK    2  A    between atoms: _19  and  _21
REMARK    3  A    between atoms: _22  and  _66
REMARK    4  A    between atoms: _27  and  _30
REMARK    5  A    between atoms: _32  and  _33
REMARK    6  A    between atoms: _38  and  _43
REMARK    7  A    between atoms: _43  and  _46
REMARK    8  A    between atoms: _53  and  _55
REMARK                            x       y       z     vdW  Elec       q    Type
REMARK                         _______ _______ _______ _____ _____    ______ ____
ROOT
ATOM     10  C   UNL     1     -20.390 -10.930  -9.040  0.00  0.00    +0.038 A 
ATOM     11  C   UNL     1     -20.526 -10.237 -10.270  0.00  0.00    +0.047 A 
ATOM     12  C   UNL     1     -21.718  -9.458 -10.567  0.00  0.00    +0.035 A 
ATOM     32  C   UNL     1     -22.752  -9.405  -9.588  0.00  0.00    +0.024 A 
ATOM     33  C   UNL     1     -22.631 -10.105  -8.333  0.00  0.00    +0.007 A 
ATOM     34  C   UNL     1     -21.459 -10.877  -8.035  0.00  0.00    -0.029 A 
ATOM     35  C   UNL     1     -21.386 -11.612  -6.676  0.00  0.00    +0.045 C 
ENDROOT
BRANCH  10   9
ATOM      4  C   UNL     1     -17.811 -14.971  -9.279  0.00  0.00    +0.077 A 
ATOM      5  C   UNL     1     -18.887 -15.691  -9.897  0.00  0.00    +0.048 A 
ATOM      6  C   UNL     1     -20.090 -14.987 -10.129  0.00  0.00    +0.116 A 
ATOM      7  N   UNL     1     -20.197 -13.662  -9.767  0.00  0.00    -0.223 NA
ATOM      8  C   UNL     1     -19.141 -12.998  -9.172  0.00  0.00    +0.220 A 
ATOM      9  N   UNL     1     -19.224 -11.663  -8.807  0.00  0.00    -0.283 N 
ATOM     36  H   UNL     1     -18.425 -11.210  -8.363  0.00  0.00    +0.155 HD
ATOM     37  N   UNL     1     -17.982 -13.648  -8.938  0.00  0.00    -0.214 NA
BRANCH   4   3
ATOM      1  C   UNL     1     -14.843 -17.498  -8.957  0.00  0.00    +0.020 A 
ATOM      2  C   UNL     1     -16.147 -16.963  -9.274  0.00  0.00    +0.013 A 
ATOM      3  C   UNL     1     -16.476 -15.576  -8.972  0.00  0.00    +0.019 A 
ATOM     38  C   UNL     1     -15.456 -14.750  -8.344  0.00  0.00    +0.120 A 
ATOM     39  N   UNL     1     -14.209 -15.293  -8.049  0.00  0.00    -0.263 NA
ATOM     40  C   UNL     1     -13.881 -16.627  -8.334  0.00  0.00    +0.111 A 
ENDBRANCH   4   3
ENDBRANCH  10   9
BRANCH  12  13
ATOM     13  N   UNL     1     -21.915  -8.739 -11.802  0.00  0.00    -0.281 N 
ATOM     14  C   UNL     1     -21.419  -7.494 -12.151  0.00  0.00    +0.248 C 
ATOM     30  O   UNL     1     -20.903  -6.711 -11.367  0.00  0.00    -0.270 OA
ATOM     31  H   UNL     1     -22.490  -9.206 -12.504  0.00  0.00    +0.155 HD
BRANCH  14  15
ATOM     15  C   UNL     1     -21.524  -7.048 -13.573  0.00  0.00    +0.037 A 
ATOM     16  C   UNL     1     -21.853  -7.992 -14.644  0.00  0.00    +0.013 A 
ATOM     17  C   UNL     1     -21.931  -7.539 -16.010  0.00  0.00    +0.005 A 
ATOM     18  C   UNL     1     -21.681  -6.132 -16.313  0.00  0.00    -0.033 A 
ATOM     28  C   UNL     1     -21.361  -5.215 -15.231  0.00  0.00    +0.005 A 
ATOM     29  C   UNL     1     -21.283  -5.656 -13.891  0.00  0.00    +0.013 A 
BRANCH  18  19
ATOM     19  C   UNL     1     -21.722  -5.564 -17.744  0.00  0.00    +0.119 C 
BRANCH  19  20
ATOM     20  N   UNL     1     -20.866  -4.375 -18.033  0.00  0.00    -0.302 NA
ATOM     21  C   UNL     1     -21.694  -3.098 -18.197  0.00  0.00    +0.066 C 
ATOM     22  C   UNL     1     -20.781  -1.860 -18.477  0.00  0.00    -0.064 C 
ATOM     23  N   UNL     1     -19.938  -2.123 -19.725  0.00  0.00    +0.379 N 
ATOM     24  C   UNL     1     -19.121  -0.937 -20.024  0.00  0.00    -0.096 C 
ATOM     25  H   UNL     1     -20.637  -2.276 -20.580  0.00  0.00    -0.082 HD
ATOM     26  C   UNL     1     -19.113  -3.393 -19.571  0.00  0.00    -0.064 C 
ATOM     27  C   UNL     1     -20.027  -4.612 -19.265  0.00  0.00    +0.066 C 
ENDBRANCH  19  20
ENDBRANCH  18  19
ENDBRANCH  14  15
ENDBRANCH  12  13
TORSDOF 6
ENDMDL
MODEL 2
REMARK VINA RESULT:      -8.7     19.271     24.540
REMARK  Name = C:\Users\Docking\Desktop\test protocol\1iep_ligandH.pdb
REMARK  8 active torsions:
REMARK  status: ('A' for Active; 'I' for Inactive)
REMARK    1  A    between atoms: _5  and  _11
REMARK    2  A    between atoms: _19  and  _21
REMARK    3  A    between atoms: _22  and  _66
REMARK    4  A    between atoms: _27  and  _30
REMARK    5  A    between atoms: _32  and  _33
REMARK    6  A    between atoms: _38  and  _43
REMARK    7  A    between atoms: _43  and  _46
REMARK    8  A    between atoms: _53  and  _55
REMARK                            x       y       z     vdW  Elec       q    Type
REMARK                         _______ _______ _______ _____ _____    ______ ____
ROOT
ATOM     10  C   UNL     1     -13.859 -28.912 -12.810  0.00  0.00    +0.038 A 
ATOM     11  C   UNL     1     -13.287 -29.419 -14.004  0.00  0.00    +0.047 A 
ATOM     12  C   UNL     1     -14.004 -30.372 -14.837  0.00  0.00    +0.035 A 
ATOM     32  C   UNL     1     -15.305 -30.784 -14.425  0.00  0.00    +0.024 A 
ATOM     33  C   UNL     1     -15.902 -30.280 -13.213  0.00  0.00    +0.007 A 
ATOM     34  C   UNL     1     -15.198 -29.342 -12.386  0.00  0.00    -0.029 A 
ATOM     35  C   UNL     1     -15.884 -28.839 -11.095  0.00  0.00    +0.045 C 
ENDROOT
BRANCH  10   9
ATOM      4  C   UNL     1     -10.166 -25.907 -12.205  0.00  0.00    +0.077 A 
ATOM      5  C   UNL     1      -9.638 -26.200 -13.506  0.00  0.00    +0.048 A 
ATOM      6  C   UNL     1     -10.343 -27.135 -14.297  0.00  0.00    +0.116 A 
ATOM      7  N   UNL     1     -11.489 -27.726 -13.813  0.00  0.00    -0.223 NA
ATOM      8  C   UNL     1     -11.971 -27.423 -12.552  0.00  0.00    +0.220 A 
ATOM      9  N   UNL     1     -13.126 -27.999 -12.048  0.00  0.00    -0.283 N 
ATOM     36  H   UNL     1     -13.444 -27.755 -11.111  0.00  0.00    +0.155 HD
ATOM     37  N   UNL     1     -11.315 -26.534 -11.777  0.00  0.00    -0.214 NA
BRANCH   4   3
ATOM      1  C   UNL     1      -7.846 -23.161 -10.663  0.00  0.00    +0.020 A 
ATOM      2  C   UNL     1      -8.417 -24.080 -11.620  0.00  0.00    +0.013 A 
ATOM      3  C   UNL     1      -9.536 -24.938 -11.253  0.00  0.00    +0.019 A 
ATOM     38  C   UNL     1     -10.059 -24.840  -9.898  0.00  0.00    +0.120 A 
ATOM     39  N   UNL     1      -9.487 -23.947  -8.997  0.00  0.00    -0.263 NA
ATOM     40  C   UNL     1      -8.409 -23.118  -9.339  0.00  0.00    +0.111 A 
ENDBRANCH   4   3
ENDBRANCH  10   9
BRANCH  12  13
ATOM     13  N   UNL     1     -13.470 -30.927 -16.056  0.00  0.00    -0.281 N 
ATOM     14  C   UNL     1     -12.173 -30.841 -16.535  0.00  0.00    +0.248 C 
ATOM     30  O   UNL     1     -11.321 -30.087 -16.089  0.00  0.00    -0.270 OA
ATOM     31  H   UNL     1     -14.128 -31.448 -16.636  0.00  0.00    +0.155 HD
BRANCH  14  15
ATOM     15  C   UNL     1     -11.768 -31.707 -17.684  0.00  0.00    +0.037 A 
ATOM     16  C   UNL     1     -10.469 -31.541 -18.340  0.00  0.00    +0.013 A 
ATOM     17  C   UNL     1     -10.110 -32.378 -19.457  0.00  0.00    +0.005 A 
ATOM     18  C   UNL     1     -11.053 -33.391 -19.924  0.00  0.00    -0.033 A 
ATOM     28  C   UNL     1     -12.334 -33.538 -19.252  0.00  0.00    +0.005 A 
ATOM     29  C   UNL     1     -12.689 -32.719 -18.157  0.00  0.00    +0.013 A 
BRANCH  18  19
ATOM     19  C   UNL     1     -10.763 -34.315 -21.122  0.00  0.00    +0.119 C 
BRANCH  19  20
ATOM     20  N   UNL     1     -10.195 -35.663 -20.824  0.00  0.00    -0.302 NA
ATOM     21  C   UNL     1      -8.677 -35.617 -20.630  0.00  0.00    +0.066 C 
ATOM     22  C   UNL     1      -8.102 -37.032 -20.297  0.00  0.00    -0.064 C 
ATOM     23  N   UNL     1      -8.475 -38.007 -21.414  0.00  0.00    +0.379 N 
ATOM     24  C   UNL     1      -7.887 -39.324 -21.133  0.00  0.00    -0.096 C 
ATOM     25  H   UNL     1      -8.020 -37.628 -22.359  0.00  0.00    -0.082 HD
ATOM     26  C   UNL     1      -9.983 -38.058 -21.616  0.00  0.00    -0.064 C 
ATOM     27  C   UNL     1     -10.548 -36.641 -21.917  0.00  0.00    +0.066 C 
ENDBRANCH  19  20
ENDBRANCH  18  19
ENDBRANCH  14  15
ENDBRANCH  12  13
TORSDOF 6
ENDMDL
MODEL 3
REMARK VINA RESULT:      -8.7      1.675      2.146
REMARK  Name = C:\Users\Docking\Desktop\test protocol\1iep_ligandH.pdb
REMARK  8 active torsions:
REMARK  status: ('A' for Active; 'I' for Inactive)
REMARK    1  A    between atoms: _5  and  _11
REMARK    2  A    between atoms: _19  and  _21
REMARK    3  A    between atoms: _22  and  _66
REMARK    4  A    between atoms: _27  and  _30
REMARK    5  A    between atoms: _32  and  _33
REMARK    6  A    between atoms: _38  and  _43
REMARK    7  A    between atoms: _43  and  _46
REMARK    8  A    between atoms: _53  and  _55
REMARK                            x       y       z     vdW  Elec       q    Type
REMARK                         _______ _______ _______ _____ _____    ______ ____
ROOT
ATOM     10  C   UNL     1     -21.363 -12.244 -11.118  0.00  0.00    +0.038 A 
ATOM     11  C   UNL     1     -21.187 -11.054 -11.871  0.00  0.00    +0.047 A 
ATOM     12  C   UNL     1     -22.258 -10.078 -11.997  0.00  0.00    +0.035 A 
ATOM     32  C   UNL     1     -23.495 -10.344 -11.341  0.00  0.00    +0.024 A 
ATOM     33  C   UNL     1     -23.692 -11.548 -10.573  0.00  0.00    +0.007 A 
ATOM     34  C   UNL     1     -22.640 -12.516 -10.448  0.00  0.00    -0.029 A 
ATOM     35  C   UNL     1     -22.910 -13.793  -9.617  0.00  0.00    +0.045 C 
ENDROOT
BRANCH  10   9
ATOM      4  C   UNL     1     -17.599 -14.141  -8.822  0.00  0.00    +0.077 A 
ATOM      5  C   UNL     1     -17.744 -13.238  -7.717  0.00  0.00    +0.048 A 
ATOM      6  C   UNL     1     -18.796 -12.297  -7.781  0.00  0.00    +0.116 A 
ATOM      7  N   UNL     1     -19.634 -12.269  -8.874  0.00  0.00    -0.223 NA
ATOM      8  C   UNL     1     -19.465 -13.152  -9.925  0.00  0.00    +0.220 A 
ATOM      9  N   UNL     1     -20.301 -13.147 -11.031  0.00  0.00    -0.283 N 
ATOM     36  H   UNL     1     -20.139 -13.810 -11.788  0.00  0.00    +0.155 HD
ATOM     37  N   UNL     1     -18.468 -14.060  -9.888  0.00  0.00    -0.214 NA
BRANCH   4   3
ATOM      1  C   UNL     1     -15.650 -17.418  -9.693  0.00  0.00    +0.020 A 
ATOM      2  C   UNL     1     -16.706 -16.433  -9.650  0.00  0.00    +0.013 A 
ATOM      3  C   UNL     1     -16.539 -15.194  -8.900  0.00  0.00    +0.019 A 
ATOM     38  C   UNL     1     -15.281 -14.982  -8.200  0.00  0.00    +0.120 A 
ATOM     39  N   UNL     1     -14.282 -15.949  -8.259  0.00  0.00    -0.263 NA
ATOM     40  C   UNL     1     -14.433 -17.145  -8.976  0.00  0.00    +0.111 A 
ENDBRANCH   4   3
ENDBRANCH  10   9
BRANCH  12  13
ATOM     13  N   UNL     1     -22.139  -8.857 -12.754  0.00  0.00    -0.281 N 
ATOM     14  C   UNL     1     -21.753  -8.708 -14.076  0.00  0.00    +0.248 C 
ATOM     30  O   UNL     1     -21.243  -9.590 -14.750  0.00  0.00    -0.270 OA
ATOM     31  H   UNL     1     -22.368  -7.997 -12.255  0.00  0.00    +0.155 HD
BRANCH  14  15
ATOM     15  C   UNL     1     -21.950  -7.384 -14.741  0.00  0.00    +0.037 A 
ATOM     16  C   UNL     1     -21.298  -6.174 -14.233  0.00  0.00    +0.013 A 
ATOM     17  C   UNL     1     -21.518  -4.907 -14.883  0.00  0.00    +0.005 A 
ATOM     18  C   UNL     1     -22.393  -4.843 -16.051  0.00  0.00    -0.033 A 
ATOM     28  C   UNL     1     -23.023  -6.060 -16.538  0.00  0.00    +0.005 A 
ATOM     29  C   UNL     1     -22.810  -7.304 -15.902  0.00  0.00    +0.013 A 
BRANCH  18  19
ATOM     19  C   UNL     1     -22.701  -3.530 -16.795  0.00  0.00    +0.119 C 
BRANCH  19  20
ATOM     20  N   UNL     1     -21.548  -2.802 -17.403  0.00  0.00    -0.302 NA
ATOM     21  C   UNL     1     -21.939  -1.397 -17.871  0.00  0.00    +0.066 C 
ATOM     22  C   UNL     1     -20.715  -0.641 -18.484  0.00  0.00    -0.064 C 
ATOM     23  N   UNL     1     -20.142  -1.458 -19.643  0.00  0.00    +0.379 N 
ATOM     24  C   UNL     1     -19.027  -0.723 -20.258  0.00  0.00    -0.096 C 
ATOM     25  H   UNL     1     -20.943  -1.564 -20.411  0.00  0.00    -0.082 HD
ATOM     26  C   UNL     1     -19.753  -2.858 -19.186  0.00  0.00    -0.064 C 
ATOM     27  C   UNL     1     -20.969  -3.590 -18.552  0.00  0.00    +0.066 C 
ENDBRANCH  19  20
ENDBRANCH  18  19
ENDBRANCH  14  15
ENDBRANCH  12  13
TORSDOF 6
ENDMDL
MODEL 4
REMARK VINA RESULT:      -8.6      1.952      2.405
REMARK  Name = C:\Users\Docking\Desktop\test protocol\1iep_ligandH.pdb
REMARK  8 active torsions:
REMARK  status: ('A' for Active; 'I' for Inactive)
REMARK    1  A    between atoms: _5  and  _11
REMARK    2  A    between atoms: _19  and  _21
REMARK    3  A    between atoms: _22  and  _66
REMARK    4  A    between atoms: _27  and  _30
REMARK    5  A    between atoms: _32  and  _33
REMARK    6  A    between atoms: _38  and  _43
REMARK    7  A    between atoms: _43  and  _46
REMARK    8  A    between atoms: _53  and  _55
REMARK                            x       y       z     vdW  Elec       q    Type
REMARK                         _______ _______ _______ _____ _____    ______ ____
ROOT
ATOM     10  C   UNL     1     -21.986 -12.638 -10.667  0.00  0.00    +0.038 A 
ATOM     11  C   UNL     1     -21.947 -11.405 -11.366  0.00  0.00    +0.047 A 
ATOM     12  C   UNL     1     -23.100 -10.519 -11.397  0.00  0.00    +0.035 A 
ATOM     32  C   UNL     1     -24.278 -10.920 -10.701  0.00  0.00    +0.024 A 
ATOM     33  C   UNL     1     -24.336 -12.171  -9.986  0.00  0.00    +0.007 A 
ATOM     34  C   UNL     1     -23.202 -13.049  -9.954  0.00  0.00    -0.029 A 
ATOM     35  C   UNL     1     -23.322 -14.381  -9.177  0.00  0.00    +0.045 C 
ENDROOT
BRANCH  10   9
ATOM      4  C   UNL     1     -17.877 -14.175  -8.720  0.00  0.00    +0.077 A 
ATOM      5  C   UNL     1     -17.992 -13.267  -7.616  0.00  0.00    +0.048 A 
ATOM      6  C   UNL     1     -19.119 -12.416  -7.590  0.00  0.00    +0.116 A 
ATOM      7  N   UNL     1     -20.056 -12.478  -8.598  0.00  0.00    -0.223 NA
ATOM      8  C   UNL     1     -19.915 -13.364  -9.650  0.00  0.00    +0.220 A 
ATOM      9  N   UNL     1     -20.849 -13.449 -10.671  0.00  0.00    -0.283 N 
ATOM     36  H   UNL     1     -20.705 -14.111 -11.433  0.00  0.00    +0.155 HD
ATOM     37  N   UNL     1     -18.846 -14.186  -9.698  0.00  0.00    -0.214 NA
BRANCH   4   3
ATOM      1  C   UNL     1     -15.734 -17.268  -9.791  0.00  0.00    +0.020 A 
ATOM      2  C   UNL     1     -16.859 -16.370  -9.660  0.00  0.00    +0.013 A 
ATOM      3  C   UNL     1     -16.744 -15.140  -8.887  0.00  0.00    +0.019 A 
ATOM     38  C   UNL     1     -15.468 -14.845  -8.254  0.00  0.00    +0.120 A 
ATOM     39  N   UNL     1     -14.403 -15.729  -8.395  0.00  0.00    -0.263 NA
ATOM     40  C   UNL     1     -14.502 -16.916  -9.136  0.00  0.00    +0.111 A 
ENDBRANCH   4   3
ENDBRANCH  10   9
BRANCH  12  13
ATOM     13  N   UNL     1     -23.122  -9.259 -12.097  0.00  0.00    -0.281 N 
ATOM     14  C   UNL     1     -22.372  -8.125 -11.832  0.00  0.00    +0.248 C 
ATOM     30  O   UNL     1     -21.720  -7.950 -10.814  0.00  0.00    -0.270 OA
ATOM     31  H   UNL     1     -23.768  -9.196 -12.884  0.00  0.00    +0.155 HD
BRANCH  14  15
ATOM     15  C   UNL     1     -22.357  -7.018 -12.837  0.00  0.00    +0.037 A 
ATOM     16  C   UNL     1     -23.349  -6.955 -13.913  0.00  0.00    +0.013 A 
ATOM     17  C   UNL     1     -23.301  -5.887 -14.880  0.00  0.00    +0.005 A 
ATOM     18  C   UNL     1     -22.256  -4.871 -14.773  0.00  0.00    -0.033 A 
ATOM     28  C   UNL     1     -21.288  -4.955 -13.692  0.00  0.00    +0.005 A 
ATOM     29  C   UNL     1     -21.331  -6.001 -12.744  0.00  0.00    +0.013 A 
BRANCH  18  19
ATOM     19  C   UNL     1     -22.116  -3.707 -15.772  0.00  0.00    +0.119 C 
BRANCH  19  20
ATOM     20  N   UNL     1     -21.630  -4.039 -17.144  0.00  0.00    -0.302 NA
ATOM     21  C   UNL     1     -22.785  -4.303 -18.115  0.00  0.00    +0.066 C 
ATOM     22  C   UNL     1     -22.259  -4.626 -19.551  0.00  0.00    -0.064 C 
ATOM     23  N   UNL     1     -21.319  -5.832 -19.487  0.00  0.00    +0.379 N 
ATOM     24  C   UNL     1     -20.868  -6.174 -20.844  0.00  0.00    -0.096 C 
ATOM     25  H   UNL     1     -21.904  -6.696 -19.097  0.00  0.00    -0.082 HD
ATOM     26  C   UNL     1     -20.169  -5.579 -18.523  0.00  0.00    -0.064 C 
ATOM     27  C   UNL     1     -20.703  -5.230 -17.106  0.00  0.00    +0.066 C 
ENDBRANCH  19  20
ENDBRANCH  18  19
ENDBRANCH  14  15
ENDBRANCH  12  13
TORSDOF 6
ENDMDL
MODEL 5
REMARK VINA RESULT:      -8.6     15.221     21.349
REMARK  Name = C:\Users\Docking\Desktop\test protocol\1iep_ligandH.pdb
REMARK  8 active torsions:
REMARK  status: ('A' for Active; 'I' for Inactive)
REMARK    1  A    between atoms: _5  and  _11
REMARK    2  A    between atoms: _19  and  _21
REMARK    3  A    between atoms: _22  and  _66
REMARK    4  A    between atoms: _27  and  _30
REMARK    5  A    between atoms: _32  and  _33
REMARK    6  A    between atoms: _38  and  _43
REMARK    7  A    between atoms: _43  and  _46
REMARK    8  A    between atoms: _53  and  _55
REMARK                            x       y       z     vdW  Elec       q    Type
REMARK                         _______ _______ _______ _____ _____    ______ ____
ROOT
ATOM     10  C   UNL     1     -15.277 -30.143 -14.116  0.00  0.00    +0.038 A 
ATOM     11  C   UNL     1     -14.545 -29.297 -13.244  0.00  0.00    +0.047 A 
ATOM     12  C   UNL     1     -15.102 -28.865 -11.971  0.00  0.00    +0.035 A 
ATOM     32  C   UNL     1     -16.407 -29.316 -11.617  0.00  0.00    +0.024 A 
ATOM     33  C   UNL     1     -17.165 -30.176 -12.491  0.00  0.00    +0.007 A 
ATOM     34  C   UNL     1     -16.622 -30.603 -13.749  0.00  0.00    -0.029 A 
ATOM     35  C   UNL     1     -17.483 -31.520 -14.649  0.00  0.00    +0.045 C 
ENDROOT
BRANCH  10   9
ATOM      4  C   UNL     1     -11.480 -31.368 -16.784  0.00  0.00    +0.077 A 
ATOM      5  C   UNL     1     -10.578 -31.203 -15.681  0.00  0.00    +0.048 A 
ATOM      6  C   UNL     1     -11.130 -30.795 -14.446  0.00  0.00    +0.116 A 
ATOM      7  N   UNL     1     -12.485 -30.572 -14.334  0.00  0.00    -0.223 NA
ATOM      8  C   UNL     1     -13.327 -30.739 -15.418  0.00  0.00    +0.220 A 
ATOM      9  N   UNL     1     -14.694 -30.527 -15.325  0.00  0.00    -0.283 N 
ATOM     36  H   UNL     1     -15.281 -30.654 -16.150  0.00  0.00    +0.155 HD
ATOM     37  N   UNL     1     -12.825 -31.126 -16.608  0.00  0.00    -0.214 NA
BRANCH   4   3
ATOM      1  C   UNL     1      -9.487 -31.721 -20.131  0.00  0.00    +0.020 A 
ATOM      2  C   UNL     1      -9.860 -31.272 -18.809  0.00  0.00    +0.013 A 
ATOM      3  C   UNL     1     -11.049 -31.798 -18.152  0.00  0.00    +0.019 A 
ATOM     38  C   UNL     1     -11.846 -32.786 -18.864  0.00  0.00    +0.120 A 
ATOM     39  N   UNL     1     -11.464 -33.198 -20.137  0.00  0.00    -0.263 NA
ATOM     40  C   UNL     1     -10.322 -32.697 -20.780  0.00  0.00    +0.111 A 
ENDBRANCH   4   3
ENDBRANCH  10   9
BRANCH  12  13
ATOM     13  N   UNL     1     -14.409 -28.000 -11.049  0.00  0.00    -0.281 N 
ATOM     14  C   UNL     1     -13.050 -27.741 -10.982  0.00  0.00    +0.248 C 
ATOM     30  O   UNL     1     -12.194 -28.383 -11.572  0.00  0.00    -0.270 OA
ATOM     31  H   UNL     1     -14.991 -27.520 -10.363  0.00  0.00    +0.155 HD
BRANCH  14  15
ATOM     15  C   UNL     1     -12.571 -26.615 -10.124  0.00  0.00    +0.037 A 
ATOM     16  C   UNL     1     -11.145 -26.296 -10.015  0.00  0.00    +0.013 A 
ATOM     17  C   UNL     1     -10.708 -25.215  -9.167  0.00  0.00    +0.005 A 
ATOM     18  C   UNL     1     -11.701 -24.444  -8.421  0.00  0.00    -0.033 A 
ATOM     28  C   UNL     1     -13.109 -24.779  -8.552  0.00  0.00    +0.005 A 
ATOM     29  C   UNL     1     -13.540 -25.838  -9.381  0.00  0.00    +0.013 A 
BRANCH  18  19
ATOM     19  C   UNL     1     -11.324 -23.288  -7.476  0.00  0.00    +0.119 C 
BRANCH  19  20
ATOM     20  N   UNL     1     -12.432 -22.411  -6.993  0.00  0.00    -0.302 NA
ATOM     21  C   UNL     1     -12.198 -20.940  -7.350  0.00  0.00    +0.066 C 
ATOM     22  C   UNL     1     -13.377 -20.040  -6.857  0.00  0.00    -0.064 C 
ATOM     23  N   UNL     1     -13.547 -20.210  -5.346  0.00  0.00    +0.379 N 
ATOM     24  C   UNL     1     -14.618 -19.322  -4.870  0.00  0.00    -0.096 C 
ATOM     25  H   UNL     1     -12.598 -19.887  -4.861  0.00  0.00    -0.082 HD
ATOM     26  C   UNL     1     -13.778 -21.670  -4.982  0.00  0.00    -0.064 C 
ATOM     27  C   UNL     1     -12.614 -22.560  -5.502  0.00  0.00    +0.066 C 
ENDBRANCH  19  20
ENDBRANCH  18  19
ENDBRANCH  14  15
ENDBRANCH  12  13
TORSDOF 6
ENDMDL
