MODEL 1
REMARK VINA RESULT:      -9.7      0.000      0.000
REMARK  Name = C:\Users\Docking\Desktop\test protocol\1iep_ligandH.pdb
REMARK  8 active torsions:
REMARK  status: ('A' for Active; 'I' for Inactive)
REMARK    1  A    between atoms: _5  and  _11
REMARK    2  A    between atoms: _19  and  _21
REMARK    3  A    between atoms: _22  and  _66
REMARK    4  A    between atoms: _27  and  _30
REMARK    5  A    between atoms: _32  and  _33
REMARK    6  A    between atoms: _38  and  _43
REMARK    7  A    between atoms: _43  and  _46
REMARK    8  A    between atoms: _53  and  _55
REMARK                            x       y       z     vdW  Elec       q    Type
REMARK                         _______ _______ _______ _____ _____    ______ ____
ROOT
ATOM     10  C   UNL     1      16.618  23.005  14.381  0.00  0.00    +0.038 A 
ATOM     11  C   UNL     1      15.461  23.221  15.173  0.00  0.00    +0.047 A 
ATOM     12  C   UNL     1      14.144  22.812  14.709  0.00  0.00    +0.035 A 
ATOM     32  C   UNL     1      14.043  22.182  13.434  0.00  0.00    +0.024 A 
ATOM     33  C   UNL     1      15.208  21.956  12.616  0.00  0.00    +0.007 A 
ATOM     34  C   UNL     1      16.509  22.360  13.067  0.00  0.00    -0.029 A 
ATOM     35  C   UNL     1      17.723  22.097  12.145  0.00  0.00    +0.045 C 
ENDROOT
BRANCH  10   9
ATOM      4  C   UNL     1      20.130  26.245  14.828  0.00  0.00    +0.077 A 
ATOM      5  C   UNL     1      19.451  27.185  13.983  0.00  0.00    +0.048 A 
ATOM      6  C   UNL     1      18.204  26.793  13.447  0.00  0.00    +0.116 A 
ATOM      7  N   UNL     1      17.684  25.551  13.742  0.00  0.00    -0.223 NA
ATOM      8  C   UNL     1      18.365  24.668  14.559  0.00  0.00    +0.220 A 
ATOM      9  N   UNL     1      17.857  23.418  14.876  0.00  0.00    -0.283 N 
ATOM     36  H   UNL     1      18.394  22.792  15.476  0.00  0.00    +0.155 HD
ATOM     37  N   UNL     1      19.559  25.018  15.082  0.00  0.00    -0.214 NA
BRANCH   4   3
ATOM      1  C   UNL     1      23.866  27.252  15.401  0.00  0.00    +0.020 A 
ATOM      2  C   UNL     1      22.610  27.008  14.731  0.00  0.00    +0.013 A 
ATOM      3  C   UNL     1      21.455  26.514  15.471  0.00  0.00    +0.019 A 
ATOM     38  C   UNL     1      21.606  26.277  16.899  0.00  0.00    +0.120 A 
ATOM     39  N   UNL     1      22.829  26.520  17.517  0.00  0.00    -0.263 NA
ATOM     40  C   UNL     1      23.948  26.993  16.814  0.00  0.00    +0.111 A 
ENDBRANCH   4   3
ENDBRANCH  10   9
BRANCH  12  13
ATOM     13  N   UNL     1      12.933  23.013  15.465  0.00  0.00    -0.281 N 
ATOM     14  C   UNL     1      12.492  22.304  16.571  0.00  0.00    +0.248 C 
ATOM     30  O   UNL     1      12.972  21.246  16.950  0.00  0.00    -0.270 OA
ATOM     31  H   UNL     1      12.327  23.769  15.147  0.00  0.00    +0.155 HD
BRANCH  14  15
ATOM     15  C   UNL     1      11.343  22.841  17.361  0.00  0.00    +0.037 A 
ATOM     16  C   UNL     1      11.496  24.016  18.223  0.00  0.00    +0.013 A 
ATOM     17  C   UNL     1      10.376  24.502  18.988  0.00  0.00    +0.005 A 
ATOM     18  C   UNL     1       9.091  23.814  18.893  0.00  0.00    -0.033 A 
ATOM     28  C   UNL     1       8.965  22.654  18.027  0.00  0.00    +0.005 A 
ATOM     29  C   UNL     1      10.062  22.173  17.276  0.00  0.00    +0.013 A 
BRANCH  18  19
ATOM     19  C   UNL     1       7.847  24.251  19.690  0.00  0.00    +0.119 C 
BRANCH  19  20
ATOM     20  N   UNL     1       6.978  23.172  20.248  0.00  0.00    -0.302 NA
ATOM     21  C   UNL     1       5.544  23.258  19.718  0.00  0.00    +0.066 C 
ATOM     22  C   UNL     1       4.655  22.108  20.294  0.00  0.00    -0.064 C 
ATOM     23  N   UNL     1       4.672  22.171  21.822  0.00  0.00    +0.379 N 
ATOM     24  C   UNL     1       3.791  21.128  22.366  0.00  0.00    -0.096 C 
ATOM     25  H   UNL     1       4.254  23.159  22.125  0.00  0.00    -0.082 HD
ATOM     26  C   UNL     1       6.095  22.089  22.358  0.00  0.00    -0.064 C 
ATOM     27  C   UNL     1       6.978  23.218  21.756  0.00  0.00    +0.066 C 
ENDBRANCH  19  20
ENDBRANCH  18  19
ENDBRANCH  14  15
ENDBRANCH  12  13
TORSDOF 6
ENDMDL
MODEL 2
REMARK VINA RESULT:      -9.7      4.176     12.489
REMARK  Name = C:\Users\Docking\Desktop\test protocol\1iep_ligandH.pdb
REMARK  8 active torsions:
REMARK  status: ('A' for Active; 'I' for Inactive)
REMARK    1  A    between atoms: _5  and  _11
REMARK    2  A    between atoms: _19  and  _21
REMARK    3  A    between atoms: _22  and  _66
REMARK    4  A    between atoms: _27  and  _30
REMARK    5  A    between atoms: _32  and  _33
REMARK    6  A    between atoms: _38  and  _43
REMARK    7  A    between atoms: _43  and  _46
REMARK    8  A    between atoms: _53  and  _55
REMARK                            x       y       z     vdW  Elec       q    Type
REMARK                         _______ _______ _______ _____ _____    ______ ____
ROOT
ATOM     10  C   UNL     1       9.249  25.362  19.179  0.00  0.00    +0.038 A 
ATOM     11  C   UNL     1      10.479  25.136  18.510  0.00  0.00    +0.047 A 
ATOM     12  C   UNL     1      11.097  23.820  18.496  0.00  0.00    +0.035 A 
ATOM     32  C   UNL     1      10.433  22.754  19.171  0.00  0.00    +0.024 A 
ATOM     33  C   UNL     1       9.182  22.967  19.857  0.00  0.00    +0.007 A 
ATOM     34  C   UNL     1       8.569  24.264  19.876  0.00  0.00    -0.029 A 
ATOM     35  C   UNL     1       7.231  24.435  20.632  0.00  0.00    +0.045 C 
ENDROOT
BRANCH  10   9
ATOM      4  C   UNL     1       8.268  29.576  21.257  0.00  0.00    +0.077 A 
ATOM      5  C   UNL     1       8.875  29.175  22.493  0.00  0.00    +0.048 A 
ATOM      6  C   UNL     1       9.423  27.874  22.555  0.00  0.00    +0.116 A 
ATOM      7  N   UNL     1       9.361  27.044  21.456  0.00  0.00    -0.223 NA
ATOM      8  C   UNL     1       8.766  27.462  20.280  0.00  0.00    +0.220 A 
ATOM      9  N   UNL     1       8.700  26.647  19.160  0.00  0.00    -0.283 N 
ATOM     36  H   UNL     1       8.246  26.989  18.314  0.00  0.00    +0.155 HD
ATOM     37  N   UNL     1       8.235  28.699  20.196  0.00  0.00    -0.214 NA
BRANCH   4   3
ATOM      1  C   UNL     1       5.942  32.709  21.542  0.00  0.00    +0.020 A 
ATOM      2  C   UNL     1       6.502  31.401  21.795  0.00  0.00    +0.013 A 
ATOM      3  C   UNL     1       7.649  30.921  21.034  0.00  0.00    +0.019 A 
ATOM     38  C   UNL     1       8.210  31.796  20.017  0.00  0.00    +0.120 A 
ATOM     39  N   UNL     1       7.649  33.050  19.793  0.00  0.00    -0.263 NA
ATOM     40  C   UNL     1       6.545  33.522  20.518  0.00  0.00    +0.111 A 
ENDBRANCH   4   3
ENDBRANCH  10   9
BRANCH  12  13
ATOM     13  N   UNL     1      12.349  23.532  17.841  0.00  0.00    -0.281 N 
ATOM     14  C   UNL     1      12.591  22.616  16.831  0.00  0.00    +0.248 C 
ATOM     30  O   UNL     1      11.805  21.748  16.483  0.00  0.00    -0.270 OA
ATOM     31  H   UNL     1      13.155  24.069  18.162  0.00  0.00    +0.155 HD
BRANCH  14  15
ATOM     15  C   UNL     1      13.901  22.661  16.114  0.00  0.00    +0.037 A 
ATOM     16  C   UNL     1      13.969  22.625  14.651  0.00  0.00    +0.013 A 
ATOM     17  C   UNL     1      15.247  22.652  13.984  0.00  0.00    +0.005 A 
ATOM     18  C   UNL     1      16.469  22.718  14.782  0.00  0.00    -0.033 A 
ATOM     28  C   UNL     1      16.373  22.758  16.232  0.00  0.00    +0.005 A 
ATOM     29  C   UNL     1      15.122  22.730  16.888  0.00  0.00    +0.013 A 
BRANCH  18  19
ATOM     19  C   UNL     1      17.876  22.730  14.156  0.00  0.00    +0.119 C 
BRANCH  19  20
ATOM     20  N   UNL     1      18.601  24.035  14.129  0.00  0.00    -0.302 NA
ATOM     21  C   UNL     1      17.733  25.163  13.563  0.00  0.00    +0.066 C 
ATOM     22  C   UNL     1      18.500  26.525  13.563  0.00  0.00    -0.064 C 
ATOM     23  N   UNL     1      19.792  26.380  12.758  0.00  0.00    +0.379 N 
ATOM     24  C   UNL     1      20.486  27.675  12.707  0.00  0.00    -0.096 C 
ATOM     25  H   UNL     1      19.511  26.106  11.714  0.00  0.00    -0.082 HD
ATOM     26  C   UNL     1      20.660  25.260  13.312  0.00  0.00    -0.064 C 
ATOM     27  C   UNL     1      19.879  23.916  13.335  0.00  0.00    +0.066 C 
ENDBRANCH  19  20
ENDBRANCH  18  19
ENDBRANCH  14  15
ENDBRANCH  12  13
TORSDOF 6
ENDMDL
MODEL 3
REMARK VINA RESULT:      -9.7      7.857     12.530
REMARK  Name = C:\Users\Docking\Desktop\test protocol\1iep_ligandH.pdb
REMARK  8 active torsions:
REMARK  status: ('A' for Active; 'I' for Inactive)
REMARK    1  A    between atoms: _5  and  _11
REMARK    2  A    between atoms: _19  and  _21
REMARK    3  A    between atoms: _22  and  _66
REMARK    4  A    between atoms: _27  and  _30
REMARK    5  A    between atoms: _32  and  _33
REMARK    6  A    between atoms: _38  and  _43
REMARK    7  A    between atoms: _43  and  _46
REMARK    8  A    between atoms: _53  and  _55
REMARK                            x       y       z     vdW  Elec       q    Type
REMARK                         _______ _______ _______ _____ _____    ______ ____
ROOT
ATOM     10  C   UNL     1      18.946  17.332  11.938  0.00  0.00    +0.038 A 
ATOM     11  C   UNL     1      19.030  18.700  12.304  0.00  0.00    +0.047 A 
ATOM     12  C   UNL     1      19.143  19.743  11.296  0.00  0.00    +0.035 A 
ATOM     32  C   UNL     1      19.166  19.357   9.924  0.00  0.00    +0.024 A 
ATOM     33  C   UNL     1      19.083  17.971   9.535  0.00  0.00    +0.007 A 
ATOM     34  C   UNL     1      18.974  16.938  10.524  0.00  0.00    -0.029 A 
ATOM     35  C   UNL     1      18.895  15.468  10.049  0.00  0.00    +0.045 C 
ENDROOT
BRANCH  10   9
ATOM      4  C   UNL     1      16.363  14.553  14.878  0.00  0.00    +0.077 A 
ATOM      5  C   UNL     1      15.124  15.078  14.381  0.00  0.00    +0.048 A 
ATOM      6  C   UNL     1      15.195  16.066  13.374  0.00  0.00    +0.116 A 
ATOM      7  N   UNL     1      16.419  16.491  12.906  0.00  0.00    -0.223 NA
ATOM      8  C   UNL     1      17.596  15.966  13.408  0.00  0.00    +0.220 A 
ATOM      9  N   UNL     1      18.838  16.372  12.947  0.00  0.00    -0.283 N 
ATOM     36  H   UNL     1      19.683  15.966  13.349  0.00  0.00    +0.155 HD
ATOM     37  N   UNL     1      17.555  15.022  14.372  0.00  0.00    -0.214 NA
BRANCH   4   3
ATOM      1  C   UNL     1      17.741  11.866  17.364  0.00  0.00    +0.020 A 
ATOM      2  C   UNL     1      17.710  12.876  16.332  0.00  0.00    +0.013 A 
ATOM      3  C   UNL     1      16.453  13.502  15.940  0.00  0.00    +0.019 A 
ATOM     38  C   UNL     1      15.237  13.079  16.618  0.00  0.00    +0.120 A 
ATOM     39  N   UNL     1      15.298  12.103  17.608  0.00  0.00    -0.263 NA
ATOM     40  C   UNL     1      16.501  11.493  17.991  0.00  0.00    +0.111 A 
ENDBRANCH   4   3
ENDBRANCH  10   9
BRANCH  12  13
ATOM     13  N   UNL     1      19.239  21.147  11.608  0.00  0.00    -0.281 N 
ATOM     14  C   UNL     1      18.238  21.989  12.064  0.00  0.00    +0.248 C 
ATOM     30  O   UNL     1      17.049  21.709  12.070  0.00  0.00    -0.270 OA
ATOM     31  H   UNL     1      20.157  21.573  11.477  0.00  0.00    +0.155 HD
BRANCH  14  15
ATOM     15  C   UNL     1      18.610  23.344  12.574  0.00  0.00    +0.037 A 
ATOM     16  C   UNL     1      17.636  24.188  13.270  0.00  0.00    +0.013 A 
ATOM     17  C   UNL     1      18.016  25.498  13.736  0.00  0.00    +0.005 A 
ATOM     18  C   UNL     1      19.380  25.970  13.511  0.00  0.00    -0.033 A 
ATOM     28  C   UNL     1      20.328  25.110  12.823  0.00  0.00    +0.005 A 
ATOM     29  C   UNL     1      19.959  23.826  12.363  0.00  0.00    +0.013 A 
BRANCH  18  19
ATOM     19  C   UNL     1      19.867  27.362  13.956  0.00  0.00    +0.119 C 
BRANCH  19  20
ATOM     20  N   UNL     1      20.851  27.415  15.078  0.00  0.00    -0.302 NA
ATOM     21  C   UNL     1      22.272  27.085  14.613  0.00  0.00    +0.066 C 
ATOM     22  C   UNL     1      23.292  27.167  15.795  0.00  0.00    -0.064 C 
ATOM     23  N   UNL     1      22.853  26.217  16.910  0.00  0.00    +0.379 N 
ATOM     24  C   UNL     1      23.841  26.249  17.999  0.00  0.00    -0.096 C 
ATOM     25  H   UNL     1      22.845  25.184  16.491  0.00  0.00    -0.082 HD
ATOM     26  C   UNL     1      21.440  26.537  17.377  0.00  0.00    -0.064 C 
ATOM     27  C   UNL     1      20.439  26.481  16.189  0.00  0.00    +0.066 C 
ENDBRANCH  19  20
ENDBRANCH  18  19
ENDBRANCH  14  15
ENDBRANCH  12  13
TORSDOF 6
ENDMDL
MODEL 4
REMARK VINA RESULT:      -9.6      1.829      2.698
REMARK  Name = C:\Users\Docking\Desktop\test protocol\1iep_ligandH.pdb
REMARK  8 active torsions:
REMARK  status: ('A' for Active; 'I' for Inactive)
REMARK    1  A    between atoms: _5  and  _11
REMARK    2  A    between atoms: _19  and  _21
REMARK    3  A    between atoms: _22  and  _66
REMARK    4  A    between atoms: _27  and  _30
REMARK    5  A    between atoms: _32  and  _33
REMARK    6  A    between atoms: _38  and  _43
REMARK    7  A    between atoms: _43  and  _46
REMARK    8  A    between atoms: _53  and  _55
REMARK                            x       y       z     vdW  Elec       q    Type
REMARK                         _______ _______ _______ _____ _____    ______ ____
ROOT
ATOM     10  C   UNL     1      16.895  23.038  14.278  0.00  0.00    +0.038 A 
ATOM     11  C   UNL     1      15.746  23.236  15.085  0.00  0.00    +0.047 A 
ATOM     12  C   UNL     1      14.425  22.837  14.626  0.00  0.00    +0.035 A 
ATOM     32  C   UNL     1      14.310  22.236  13.338  0.00  0.00    +0.024 A 
ATOM     33  C   UNL     1      15.467  22.028  12.504  0.00  0.00    +0.007 A 
ATOM     34  C   UNL     1      16.773  22.422  12.951  0.00  0.00    -0.029 A 
ATOM     35  C   UNL     1      17.977  22.181  12.011  0.00  0.00    +0.045 C 
ENDROOT
BRANCH  10   9
ATOM      4  C   UNL     1      20.370  26.300  14.840  0.00  0.00    +0.077 A 
ATOM      5  C   UNL     1      19.659  27.277  14.066  0.00  0.00    +0.048 A 
ATOM      6  C   UNL     1      18.406  26.898  13.536  0.00  0.00    +0.116 A 
ATOM      7  N   UNL     1      17.910  25.634  13.768  0.00  0.00    -0.223 NA
ATOM      8  C   UNL     1      18.622  24.715  14.516  0.00  0.00    +0.220 A 
ATOM      9  N   UNL     1      18.139  23.440  14.769  0.00  0.00    -0.283 N 
ATOM     36  H   UNL     1      18.698  22.789  15.320  0.00  0.00    +0.155 HD
ATOM     37  N   UNL     1      19.822  25.052  15.033  0.00  0.00    -0.214 NA
BRANCH   4   3
ATOM      1  C   UNL     1      24.115  27.291  15.381  0.00  0.00    +0.020 A 
ATOM      2  C   UNL     1      22.848  27.065  14.725  0.00  0.00    +0.013 A 
ATOM      3  C   UNL     1      21.705  26.551  15.469  0.00  0.00    +0.019 A 
ATOM     38  C   UNL     1      21.879  26.275  16.887  0.00  0.00    +0.120 A 
ATOM     39  N   UNL     1      23.112  26.500  17.492  0.00  0.00    -0.263 NA
ATOM     40  C   UNL     1      24.219  26.993  16.785  0.00  0.00    +0.111 A 
ENDBRANCH   4   3
ENDBRANCH  10   9
BRANCH  12  13
ATOM     13  N   UNL     1      13.221  23.021  15.398  0.00  0.00    -0.281 N 
ATOM     14  C   UNL     1      12.616  22.120  16.259  0.00  0.00    +0.248 C 
ATOM     30  O   UNL     1      12.904  20.934  16.332  0.00  0.00    -0.270 OA
ATOM     31  H   UNL     1      12.759  23.925  15.298  0.00  0.00    +0.155 HD
BRANCH  14  15
ATOM     15  C   UNL     1      11.524  22.602  17.159  0.00  0.00    +0.037 A 
ATOM     16  C   UNL     1      10.183  22.014  17.109  0.00  0.00    +0.013 A 
ATOM     17  C   UNL     1       9.144  22.509  17.976  0.00  0.00    +0.005 A 
ATOM     18  C   UNL     1       9.442  23.599  18.902  0.00  0.00    -0.033 A 
ATOM     28  C   UNL     1      10.783  24.161  18.934  0.00  0.00    +0.005 A 
ATOM     29  C   UNL     1      11.804  23.679  18.085  0.00  0.00    +0.013 A 
BRANCH  18  19
ATOM     19  C   UNL     1       8.389  24.205  19.848  0.00  0.00    +0.119 C 
BRANCH  19  20
ATOM     20  N   UNL     1       8.857  25.236  20.822  0.00  0.00    -0.302 NA
ATOM     21  C   UNL     1       8.719  24.761  22.272  0.00  0.00    +0.066 C 
ATOM     22  C   UNL     1       9.234  25.842  23.276  0.00  0.00    -0.064 C 
ATOM     23  N   UNL     1       8.464  27.146  23.058  0.00  0.00    +0.379 N 
ATOM     24  C   UNL     1       8.906  28.147  24.039  0.00  0.00    -0.096 C 
ATOM     25  H   UNL     1       7.386  26.937  23.249  0.00  0.00    -0.082 HD
ATOM     26  C   UNL     1       8.594  27.624  21.618  0.00  0.00    -0.064 C 
ATOM     27  C   UNL     1       8.107  26.530  20.627  0.00  0.00    +0.066 C 
ENDBRANCH  19  20
ENDBRANCH  18  19
ENDBRANCH  14  15
ENDBRANCH  12  13
TORSDOF 6
ENDMDL
MODEL 5
REMARK VINA RESULT:      -9.5      2.299     13.110
REMARK  Name = C:\Users\Docking\Desktop\test protocol\1iep_ligandH.pdb
REMARK  8 active torsions:
REMARK  status: ('A' for Active; 'I' for Inactive)
REMARK    1  A    between atoms: _5  and  _11
REMARK    2  A    between atoms: _19  and  _21
REMARK    3  A    between atoms: _22  and  _66
REMARK    4  A    between atoms: _27  and  _30
REMARK    5  A    between atoms: _32  and  _33
REMARK    6  A    between atoms: _38  and  _43
REMARK    7  A    between atoms: _43  and  _46
REMARK    8  A    between atoms: _53  and  _55
REMARK                            x       y       z     vdW  Elec       q    Type
REMARK                         _______ _______ _______ _____ _____    ______ ____
ROOT
ATOM     10  C   UNL     1      14.434  22.817  14.483  0.00  0.00    +0.038 A 
ATOM     11  C   UNL     1      15.619  23.575  14.662  0.00  0.00    +0.047 A 
ATOM     12  C   UNL     1      16.853  23.216  13.981  0.00  0.00    +0.035 A 
ATOM     32  C   UNL     1      16.843  22.078  13.123  0.00  0.00    +0.024 A 
ATOM     33  C   UNL     1      15.648  21.295  12.930  0.00  0.00    +0.007 A 
ATOM     34  C   UNL     1      14.429  21.644  13.601  0.00  0.00    -0.029 A 
ATOM     35  C   UNL     1      13.179  20.765  13.362  0.00  0.00    +0.045 C 
ENDROOT
BRANCH  10   9
ATOM      4  C   UNL     1      11.469  22.625  18.253  0.00  0.00    +0.077 A 
ATOM      5  C   UNL     1      12.280  21.643  18.915  0.00  0.00    +0.048 A 
ATOM      6  C   UNL     1      13.447  21.209  18.249  0.00  0.00    +0.116 A 
ATOM      7  N   UNL     1      13.771  21.725  17.012  0.00  0.00    -0.223 NA
ATOM      8  C   UNL     1      12.967  22.669  16.401  0.00  0.00    +0.220 A 
ATOM      9  N   UNL     1      13.277  23.208  15.162  0.00  0.00    -0.283 N 
ATOM     36  H   UNL     1      12.654  23.897  14.741  0.00  0.00    +0.155 HD
ATOM     37  N   UNL     1      11.846  23.099  17.016  0.00  0.00    -0.214 NA
BRANCH   4   3
ATOM      1  C   UNL     1       7.736  23.685  18.742  0.00  0.00    +0.020 A 
ATOM      2  C   UNL     1       8.926  23.128  18.139  0.00  0.00    +0.013 A 
ATOM      3  C   UNL     1      10.207  23.185  18.831  0.00  0.00    +0.019 A 
ATOM     38  C   UNL     1      10.251  23.816  20.142  0.00  0.00    +0.120 A 
ATOM     39  N   UNL     1       9.089  24.344  20.696  0.00  0.00    -0.263 NA
ATOM     40  C   UNL     1       7.851  24.297  20.039  0.00  0.00    +0.111 A 
ENDBRANCH   4   3
ENDBRANCH  10   9
BRANCH  12  13
ATOM     13  N   UNL     1      18.089  23.943  14.131  0.00  0.00    -0.281 N 
ATOM     14  C   UNL     1      18.308  25.298  13.939  0.00  0.00    +0.248 C 
ATOM     30  O   UNL     1      17.516  26.057  13.400  0.00  0.00    -0.270 OA
ATOM     31  H   UNL     1      18.900  23.393  14.412  0.00  0.00    +0.155 HD
BRANCH  14  15
ATOM     15  C   UNL     1      19.600  25.892  14.401  0.00  0.00    +0.037 A 
ATOM     16  C   UNL     1      20.523  26.527  13.457  0.00  0.00    +0.013 A 
ATOM     17  C   UNL     1      21.771  27.078  13.926  0.00  0.00    +0.005 A 
ATOM     18  C   UNL     1      22.100  26.996  15.347  0.00  0.00    -0.033 A 
ATOM     28  C   UNL     1      21.163  26.365  16.262  0.00  0.00    +0.005 A 
ATOM     29  C   UNL     1      19.940  25.824  15.806  0.00  0.00    +0.013 A 
BRANCH  18  19
ATOM     19  C   UNL     1      23.418  27.538  15.932  0.00  0.00    +0.119 C 
BRANCH  19  20
ATOM     20  N   UNL     1      24.618  26.654  15.847  0.00  0.00    -0.302 NA
ATOM     21  C   UNL     1      24.916  25.958  17.178  0.00  0.00    +0.066 C 
ATOM     22  C   UNL     1      26.161  25.020  17.065  0.00  0.00    -0.064 C 
ATOM     23  N   UNL     1      27.369  25.835  16.598  0.00  0.00    +0.379 N 
ATOM     24  C   UNL     1      28.555  24.968  16.546  0.00  0.00    -0.096 C 
ATOM     25  H   UNL     1      27.560  26.624  17.362  0.00  0.00    -0.082 HD
ATOM     26  C   UNL     1      27.081  26.532  15.276  0.00  0.00    -0.064 C 
ATOM     27  C   UNL     1      25.824  27.439  15.391  0.00  0.00    +0.066 C 
ENDBRANCH  19  20
ENDBRANCH  18  19
ENDBRANCH  14  15
ENDBRANCH  12  13
TORSDOF 6
ENDMDL
