MODEL 1
REMARK VINA RESULT:      -8.1      0.000      0.000
REMARK  Name = C:\Users\Docking\Desktop\test protocol\1iep_ligandH.pdb
REMARK  8 active torsions:
REMARK  status: ('A' for Active; 'I' for Inactive)
REMARK    1  A    between atoms: _5  and  _11
REMARK    2  A    between atoms: _19  and  _21
REMARK    3  A    between atoms: _22  and  _66
REMARK    4  A    between atoms: _27  and  _30
REMARK    5  A    between atoms: _32  and  _33
REMARK    6  A    between atoms: _38  and  _43
REMARK    7  A    between atoms: _43  and  _46
REMARK    8  A    between atoms: _53  and  _55
REMARK                            x       y       z     vdW  Elec       q    Type
REMARK                         _______ _______ _______ _____ _____    ______ ____
ROOT
ATOM     10  C   UNL     1     -15.158  20.218  29.661  0.00  0.00    +0.038 A 
ATOM     11  C   UNL     1     -14.290  19.570  28.746  0.00  0.00    +0.047 A 
ATOM     12  C   UNL     1     -13.413  18.492  29.175  0.00  0.00    +0.035 A 
ATOM     32  C   UNL     1     -13.448  18.097  30.544  0.00  0.00    +0.024 A 
ATOM     33  C   UNL     1     -14.323  18.746  31.488  0.00  0.00    +0.007 A 
ATOM     34  C   UNL     1     -15.189  19.811  31.071  0.00  0.00    -0.029 A 
ATOM     35  C   UNL     1     -16.103  20.475  32.128  0.00  0.00    +0.045 C 
ENDROOT
BRANCH  10   9
ATOM      4  C   UNL     1     -16.094  24.859  28.871  0.00  0.00    +0.077 A 
ATOM      5  C   UNL     1     -14.853  25.270  29.463  0.00  0.00    +0.048 A 
ATOM      6  C   UNL     1     -14.006  24.257  29.965  0.00  0.00    +0.116 A 
ATOM      7  N   UNL     1     -14.382  22.934  29.877  0.00  0.00    -0.223 NA
ATOM      8  C   UNL     1     -15.585  22.572  29.301  0.00  0.00    +0.220 A 
ATOM      9  N   UNL     1     -15.979  21.247  29.194  0.00  0.00    -0.283 N 
ATOM     36  H   UNL     1     -16.879  21.021  28.769  0.00  0.00    +0.155 HD
ATOM     37  N   UNL     1     -16.413  23.520  28.816  0.00  0.00    -0.214 NA
BRANCH   4   3
ATOM      1  C   UNL     1     -18.460  27.931  28.359  0.00  0.00    +0.020 A 
ATOM      2  C   UNL     1     -17.490  27.045  28.961  0.00  0.00    +0.013 A 
ATOM      3  C   UNL     1     -17.094  25.811  28.293  0.00  0.00    +0.019 A 
ATOM     38  C   UNL     1     -17.701  25.502  27.008  0.00  0.00    +0.120 A 
ATOM     39  N   UNL     1     -18.634  26.373  26.454  0.00  0.00    -0.263 NA
ATOM     40  C   UNL     1     -19.024  27.562  27.088  0.00  0.00    +0.111 A 
ENDBRANCH   4   3
ENDBRANCH  10   9
BRANCH  12  13
ATOM     13  N   UNL     1     -12.504  17.803  28.293  0.00  0.00    -0.281 N 
ATOM     14  C   UNL     1     -11.120  17.773  28.350  0.00  0.00    +0.248 C 
ATOM     30  O   UNL     1     -10.441  18.513  29.046  0.00  0.00    -0.270 OA
ATOM     31  H   UNL     1     -12.933  17.272  27.535  0.00  0.00    +0.155 HD
BRANCH  14  15
ATOM     15  C   UNL     1     -10.383  16.788  27.500  0.00  0.00    +0.037 A 
ATOM     16  C   UNL     1      -9.000  17.030  27.083  0.00  0.00    +0.013 A 
ATOM     17  C   UNL     1      -8.318  16.072  26.249  0.00  0.00    +0.005 A 
ATOM     18  C   UNL     1      -9.020  14.861  25.829  0.00  0.00    -0.033 A 
ATOM     28  C   UNL     1     -10.390  14.644  26.262  0.00  0.00    +0.005 A 
ATOM     29  C   UNL     1     -11.062  15.581  27.078  0.00  0.00    +0.013 A 
BRANCH  18  19
ATOM     19  C   UNL     1      -8.378  13.794  24.922  0.00  0.00    +0.119 C 
BRANCH  19  20
ATOM     20  N   UNL     1      -8.836  12.384  25.095  0.00  0.00    -0.302 NA
ATOM     21  C   UNL     1      -8.106  11.678  26.241  0.00  0.00    +0.066 C 
ATOM     22  C   UNL     1      -8.614  10.211  26.422  0.00  0.00    -0.064 C 
ATOM     23  N   UNL     1      -8.432   9.445  25.110  0.00  0.00    +0.379 N 
ATOM     24  C   UNL     1      -8.855   8.049  25.294  0.00  0.00    -0.096 C 
ATOM     25  H   UNL     1      -7.343   9.440  24.871  0.00  0.00    -0.082 HD
ATOM     26  C   UNL     1      -9.153  10.142  23.965  0.00  0.00    -0.064 C 
ATOM     27  C   UNL     1      -8.661  11.608  23.813  0.00  0.00    +0.066 C 
ENDBRANCH  19  20
ENDBRANCH  18  19
ENDBRANCH  14  15
ENDBRANCH  12  13
TORSDOF 6
ENDMDL
MODEL 2
REMARK VINA RESULT:      -7.9      2.054      3.112
REMARK  Name = C:\Users\Docking\Desktop\test protocol\1iep_ligandH.pdb
REMARK  8 active torsions:
REMARK  status: ('A' for Active; 'I' for Inactive)
REMARK    1  A    between atoms: _5  and  _11
REMARK    2  A    between atoms: _19  and  _21
REMARK    3  A    between atoms: _22  and  _66
REMARK    4  A    between atoms: _27  and  _30
REMARK    5  A    between atoms: _32  and  _33
REMARK    6  A    between atoms: _38  and  _43
REMARK    7  A    between atoms: _43  and  _46
REMARK    8  A    between atoms: _53  and  _55
REMARK                            x       y       z     vdW  Elec       q    Type
REMARK                         _______ _______ _______ _____ _____    ______ ____
ROOT
ATOM     10  C   UNL     1     -15.217  19.989  30.178  0.00  0.00    +0.038 A 
ATOM     11  C   UNL     1     -14.302  19.234  29.401  0.00  0.00    +0.047 A 
ATOM     12  C   UNL     1     -13.484  18.192  30.003  0.00  0.00    +0.035 A 
ATOM     32  C   UNL     1     -13.626  17.944  31.399  0.00  0.00    +0.024 A 
ATOM     33  C   UNL     1     -14.551  18.702  32.205  0.00  0.00    +0.007 A 
ATOM     34  C   UNL     1     -15.358  19.733  31.617  0.00  0.00    -0.029 A 
ATOM     35  C   UNL     1     -16.328  20.519  32.530  0.00  0.00    +0.045 C 
ENDROOT
BRANCH  10   9
ATOM      4  C   UNL     1     -16.016  24.548  28.909  0.00  0.00    +0.077 A 
ATOM      5  C   UNL     1     -14.833  25.004  29.580  0.00  0.00    +0.048 A 
ATOM      6  C   UNL     1     -14.050  24.035  30.246  0.00  0.00    +0.116 A 
ATOM      7  N   UNL     1     -14.431  22.710  30.235  0.00  0.00    -0.223 NA
ATOM      8  C   UNL     1     -15.579  22.304  29.580  0.00  0.00    +0.220 A 
ATOM      9  N   UNL     1     -15.977  20.977  29.549  0.00  0.00    -0.283 N 
ATOM     36  H   UNL     1     -16.835  20.719  29.061  0.00  0.00    +0.155 HD
ATOM     37  N   UNL     1     -16.345  23.211  28.938  0.00  0.00    -0.214 NA
BRANCH   4   3
ATOM      1  C   UNL     1     -18.227  27.606  27.878  0.00  0.00    +0.020 A 
ATOM      2  C   UNL     1     -17.327  26.772  28.642  0.00  0.00    +0.013 A 
ATOM      3  C   UNL     1     -16.945  25.452  28.159  0.00  0.00    +0.019 A 
ATOM     38  C   UNL     1     -17.494  25.000  26.889  0.00  0.00    +0.120 A 
ATOM     39  N   UNL     1     -18.360  25.824  26.176  0.00  0.00    -0.263 NA
ATOM     40  C   UNL     1     -18.736  27.096  26.632  0.00  0.00    +0.111 A 
ENDBRANCH   4   3
ENDBRANCH  10   9
BRANCH  12  13
ATOM     13  N   UNL     1     -12.532  17.399  29.266  0.00  0.00    -0.281 N 
ATOM     14  C   UNL     1     -12.656  16.081  28.857  0.00  0.00    +0.248 C 
ATOM     30  O   UNL     1     -13.523  15.315  29.250  0.00  0.00    -0.270 OA
ATOM     31  H   UNL     1     -11.660  17.865  29.016  0.00  0.00    +0.155 HD
BRANCH  14  15
ATOM     15  C   UNL     1     -11.667  15.532  27.881  0.00  0.00    +0.037 A 
ATOM     16  C   UNL     1     -11.754  14.147  27.409  0.00  0.00    +0.013 A 
ATOM     17  C   UNL     1     -10.776  13.637  26.480  0.00  0.00    +0.005 A 
ATOM     18  C   UNL     1      -9.704  14.514  26.016  0.00  0.00    -0.033 A 
ATOM     28  C   UNL     1      -9.645  15.884  26.496  0.00  0.00    +0.005 A 
ATOM     29  C   UNL     1     -10.600  16.388  27.407  0.00  0.00    +0.013 A 
BRANCH  18  19
ATOM     19  C   UNL     1      -8.606  14.048  25.041  0.00  0.00    +0.119 C 
BRANCH  19  20
ATOM     20  N   UNL     1      -8.516  14.749  23.726  0.00  0.00    -0.302 NA
ATOM     21  C   UNL     1      -8.304  13.772  22.567  0.00  0.00    +0.066 C 
ATOM     22  C   UNL     1      -8.235  14.521  21.196  0.00  0.00    -0.064 C 
ATOM     23  N   UNL     1      -7.113  15.559  21.241  0.00  0.00    +0.379 N 
ATOM     24  C   UNL     1      -7.007  16.224  19.935  0.00  0.00    -0.096 C 
ATOM     25  H   UNL     1      -6.156  15.015  21.422  0.00  0.00    -0.082 HD
ATOM     26  C   UNL     1      -7.314  16.533  22.393  0.00  0.00    -0.064 C 
ATOM     27  C   UNL     1      -7.411  15.777  23.747  0.00  0.00    +0.066 C 
ENDBRANCH  19  20
ENDBRANCH  18  19
ENDBRANCH  14  15
ENDBRANCH  12  13
TORSDOF 6
ENDMDL
MODEL 3
REMARK VINA RESULT:      -7.8      9.495     14.738
REMARK  Name = C:\Users\Docking\Desktop\test protocol\1iep_ligandH.pdb
REMARK  8 active torsions:
REMARK  status: ('A' for Active; 'I' for Inactive)
REMARK    1  A    between atoms: _5  and  _11
REMARK    2  A    between atoms: _19  and  _21
REMARK    3  A    between atoms: _22  and  _66
REMARK    4  A    between atoms: _27  and  _30
REMARK    5  A    between atoms: _32  and  _33
REMARK    6  A    between atoms: _38  and  _43
REMARK    7  A    between atoms: _43  and  _46
REMARK    8  A    between atoms: _53  and  _55
REMARK                            x       y       z     vdW  Elec       q    Type
REMARK                         _______ _______ _______ _____ _____    ______ ____
ROOT
ATOM     10  C   UNL     1      -8.039  14.750  22.029  0.00  0.00    +0.038 A 
ATOM     11  C   UNL     1      -7.059  14.681  21.006  0.00  0.00    +0.047 A 
ATOM     12  C   UNL     1      -7.123  15.551  19.842  0.00  0.00    +0.035 A 
ATOM     32  C   UNL     1      -8.199  16.482  19.753  0.00  0.00    +0.024 A 
ATOM     33  C   UNL     1      -9.205  16.565  20.783  0.00  0.00    +0.007 A 
ATOM     34  C   UNL     1      -9.148  15.707  21.932  0.00  0.00    -0.029 A 
ATOM     35  C   UNL     1     -10.257  15.835  23.003  0.00  0.00    +0.045 C 
ENDROOT
BRANCH  10   9
ATOM      4  C   UNL     1      -9.130  10.697  24.357  0.00  0.00    +0.077 A 
ATOM      5  C   UNL     1     -10.017  10.267  23.315  0.00  0.00    +0.048 A 
ATOM      6  C   UNL     1     -10.170  11.121  22.200  0.00  0.00    +0.116 A 
ATOM      7  N   UNL     1      -9.482  12.314  22.142  0.00  0.00    -0.223 NA
ATOM      8  C   UNL     1      -8.636  12.699  23.165  0.00  0.00    +0.220 A 
ATOM      9  N   UNL     1      -7.928  13.891  23.124  0.00  0.00    -0.283 N 
ATOM     36  H   UNL     1      -7.319  14.143  23.903  0.00  0.00    +0.155 HD
ATOM     37  N   UNL     1      -8.474  11.902  24.241  0.00  0.00    -0.214 NA
BRANCH   4   3
ATOM      1  C   UNL     1      -7.997   7.862  26.802  0.00  0.00    +0.020 A 
ATOM      2  C   UNL     1      -8.235   8.587  25.575  0.00  0.00    +0.013 A 
ATOM      3  C   UNL     1      -8.861   9.903  25.597  0.00  0.00    +0.019 A 
ATOM     38  C   UNL     1      -9.236  10.461  26.887  0.00  0.00    +0.120 A 
ATOM     39  N   UNL     1      -8.996   9.739  28.052  0.00  0.00    -0.263 NA
ATOM     40  C   UNL     1      -8.396   8.471  28.043  0.00  0.00    +0.111 A 
ENDBRANCH   4   3
ENDBRANCH  10   9
BRANCH  12  13
ATOM     13  N   UNL     1      -6.161  15.521  18.768  0.00  0.00    -0.281 N 
ATOM     14  C   UNL     1      -4.818  15.856  18.819  0.00  0.00    +0.248 C 
ATOM     30  O   UNL     1      -4.286  16.439  19.751  0.00  0.00    -0.270 OA
ATOM     31  H   UNL     1      -6.514  15.216  17.861  0.00  0.00    +0.155 HD
BRANCH  14  15
ATOM     15  C   UNL     1      -3.943  15.504  17.659  0.00  0.00    +0.037 A 
ATOM     16  C   UNL     1      -4.251  15.971  16.305  0.00  0.00    +0.013 A 
ATOM     17  C   UNL     1      -3.399  15.603  15.202  0.00  0.00    +0.005 A 
ATOM     18  C   UNL     1      -2.229  14.765  15.450  0.00  0.00    -0.033 A 
ATOM     28  C   UNL     1      -1.943  14.321  16.804  0.00  0.00    +0.005 A 
ATOM     29  C   UNL     1      -2.776  14.678  17.887  0.00  0.00    +0.013 A 
BRANCH  18  19
ATOM     19  C   UNL     1      -1.276  14.306  14.329  0.00  0.00    +0.119 C 
BRANCH  19  20
ATOM     20  N   UNL     1      -1.819  13.351  13.318  0.00  0.00    -0.302 NA
ATOM     21  C   UNL     1      -1.087  12.007  13.347  0.00  0.00    +0.066 C 
ATOM     22  C   UNL     1      -1.683  11.011  12.298  0.00  0.00    -0.064 C 
ATOM     23  N   UNL     1      -1.610  11.639  10.905  0.00  0.00    +0.379 N 
ATOM     24  C   UNL     1      -2.116  10.683   9.910  0.00  0.00    -0.096 C 
ATOM     25  H   UNL     1      -0.536  11.829  10.676  0.00  0.00    -0.082 HD
ATOM     26  C   UNL     1      -2.334  12.977  10.869  0.00  0.00    -0.064 C 
ATOM     27  C   UNL     1      -1.753  13.949  11.934  0.00  0.00    +0.066 C 
ENDBRANCH  19  20
ENDBRANCH  18  19
ENDBRANCH  14  15
ENDBRANCH  12  13
TORSDOF 6
ENDMDL
MODEL 4
REMARK VINA RESULT:      -7.7      3.444     12.499
REMARK  Name = C:\Users\Docking\Desktop\test protocol\1iep_ligandH.pdb
REMARK  8 active torsions:
REMARK  status: ('A' for Active; 'I' for Inactive)
REMARK    1  A    between atoms: _5  and  _11
REMARK    2  A    between atoms: _19  and  _21
REMARK    3  A    between atoms: _22  and  _66
REMARK    4  A    between atoms: _27  and  _30
REMARK    5  A    between atoms: _32  and  _33
REMARK    6  A    between atoms: _38  and  _43
REMARK    7  A    between atoms: _43  and  _46
REMARK    8  A    between atoms: _53  and  _55
REMARK                            x       y       z     vdW  Elec       q    Type
REMARK                         _______ _______ _______ _____ _____    ______ ____
ROOT
ATOM     10  C   UNL     1      -9.714  14.121  25.468  0.00  0.00    +0.038 A 
ATOM     11  C   UNL     1     -10.476  15.098  26.160  0.00  0.00    +0.047 A 
ATOM     12  C   UNL     1     -11.600  14.718  27.001  0.00  0.00    +0.035 A 
ATOM     32  C   UNL     1     -11.919  13.334  27.119  0.00  0.00    +0.024 A 
ATOM     33  C   UNL     1     -11.156  12.328  26.423  0.00  0.00    +0.007 A 
ATOM     34  C   UNL     1     -10.047  12.696  25.589  0.00  0.00    -0.029 A 
ATOM     35  C   UNL     1      -9.269  11.576  24.861  0.00  0.00    +0.045 C 
ENDROOT
BRANCH  10   9
ATOM      4  C   UNL     1      -7.909  15.844  21.368  0.00  0.00    +0.077 A 
ATOM      5  C   UNL     1      -9.202  15.884  20.747  0.00  0.00    +0.048 A 
ATOM      6  C   UNL     1     -10.304  15.446  21.515  0.00  0.00    +0.116 A 
ATOM      7  N   UNL     1     -10.117  15.003  22.806  0.00  0.00    -0.223 NA
ATOM      8  C   UNL     1      -8.856  14.976  23.374  0.00  0.00    +0.220 A 
ATOM      9  N   UNL     1      -8.645  14.542  24.674  0.00  0.00    -0.283 N 
ATOM     36  H   UNL     1      -7.699  14.529  25.054  0.00  0.00    +0.155 HD
ATOM     37  N   UNL     1      -7.787  15.387  22.662  0.00  0.00    -0.214 NA
BRANCH   4   3
ATOM      1  C   UNL     1      -4.950  16.136  18.827  0.00  0.00    +0.020 A 
ATOM      2  C   UNL     1      -6.175  15.681  19.444  0.00  0.00    +0.013 A 
ATOM      3  C   UNL     1      -6.648  16.276  20.687  0.00  0.00    +0.019 A 
ATOM     38  C   UNL     1      -5.853  17.338  21.285  0.00  0.00    +0.120 A 
ATOM     39  N   UNL     1      -4.677  17.755  20.669  0.00  0.00    -0.263 NA
ATOM     40  C   UNL     1      -4.210  17.188  19.474  0.00  0.00    +0.111 A 
ENDBRANCH   4   3
ENDBRANCH  10   9
BRANCH  12  13
ATOM     13  N   UNL     1     -12.414  15.666  27.721  0.00  0.00    -0.281 N 
ATOM     14  C   UNL     1     -12.403  15.941  29.078  0.00  0.00    +0.248 C 
ATOM     30  O   UNL     1     -11.836  15.257  29.917  0.00  0.00    -0.270 OA
ATOM     31  H   UNL     1     -13.081  16.198  27.161  0.00  0.00    +0.155 HD
BRANCH  14  15
ATOM     15  C   UNL     1     -13.141  17.141  29.578  0.00  0.00    +0.037 A 
ATOM     16  C   UNL     1     -14.075  17.045  30.702  0.00  0.00    +0.013 A 
ATOM     17  C   UNL     1     -14.787  18.215  31.153  0.00  0.00    +0.005 A 
ATOM     18  C   UNL     1     -14.564  19.492  30.480  0.00  0.00    -0.033 A 
ATOM     28  C   UNL     1     -13.627  19.560  29.371  0.00  0.00    +0.005 A 
ATOM     29  C   UNL     1     -12.929  18.415  28.925  0.00  0.00    +0.013 A 
BRANCH  18  19
ATOM     19  C   UNL     1     -15.295  20.787  30.881  0.00  0.00    +0.119 C 
BRANCH  19  20
ATOM     20  N   UNL     1     -14.717  22.076  30.398  0.00  0.00    -0.302 NA
ATOM     21  C   UNL     1     -13.813  22.729  31.448  0.00  0.00    +0.066 C 
ATOM     22  C   UNL     1     -13.198  24.065  30.918  0.00  0.00    -0.064 C 
ATOM     23  N   UNL     1     -14.326  25.015  30.508  0.00  0.00    +0.379 N 
ATOM     24  C   UNL     1     -13.752  26.294  30.064  0.00  0.00    -0.096 C 
ATOM     25  H   UNL     1     -14.943  25.217  31.413  0.00  0.00    -0.082 HD
ATOM     26  C   UNL     1     -15.230  24.372  29.466  0.00  0.00    -0.064 C 
ATOM     27  C   UNL     1     -15.813  23.030  29.991  0.00  0.00    +0.066 C 
ENDBRANCH  19  20
ENDBRANCH  18  19
ENDBRANCH  14  15
ENDBRANCH  12  13
TORSDOF 6
ENDMDL
MODEL 5
REMARK VINA RESULT:      -7.7      3.661     12.611
REMARK  Name = C:\Users\Docking\Desktop\test protocol\1iep_ligandH.pdb
REMARK  8 active torsions:
REMARK  status: ('A' for Active; 'I' for Inactive)
REMARK    1  A    between atoms: _5  and  _11
REMARK    2  A    between atoms: _19  and  _21
REMARK    3  A    between atoms: _22  and  _66
REMARK    4  A    between atoms: _27  and  _30
REMARK    5  A    between atoms: _32  and  _33
REMARK    6  A    between atoms: _38  and  _43
REMARK    7  A    between atoms: _43  and  _46
REMARK    8  A    between atoms: _53  and  _55
REMARK                            x       y       z     vdW  Elec       q    Type
REMARK                         _______ _______ _______ _____ _____    ______ ____
ROOT
ATOM     10  C   UNL     1      -9.878  14.440  25.713  0.00  0.00    +0.038 A 
ATOM     11  C   UNL     1     -10.672  15.411  26.374  0.00  0.00    +0.047 A 
ATOM     12  C   UNL     1     -11.807  15.022  27.196  0.00  0.00    +0.035 A 
ATOM     32  C   UNL     1     -12.103  13.633  27.326  0.00  0.00    +0.024 A 
ATOM     33  C   UNL     1     -11.306  12.633  26.660  0.00  0.00    +0.007 A 
ATOM     34  C   UNL     1     -10.187  13.011  25.845  0.00  0.00    -0.029 A 
ATOM     35  C   UNL     1      -9.373  11.896  25.150  0.00  0.00    +0.045 C 
ENDROOT
BRANCH  10   9
ATOM      4  C   UNL     1      -7.970  15.884  21.552  0.00  0.00    +0.077 A 
ATOM      5  C   UNL     1      -9.220  15.745  20.862  0.00  0.00    +0.048 A 
ATOM      6  C   UNL     1     -10.328  15.292  21.613  0.00  0.00    +0.116 A 
ATOM      7  N   UNL     1     -10.185  15.003  22.953  0.00  0.00    -0.223 NA
ATOM      8  C   UNL     1      -8.965  15.146  23.587  0.00  0.00    +0.220 A 
ATOM      9  N   UNL     1      -8.800  14.869  24.935  0.00  0.00    -0.283 N 
ATOM     36  H   UNL     1      -7.882  14.981  25.364  0.00  0.00    +0.155 HD
ATOM     37  N   UNL     1      -7.891  15.576  22.892  0.00  0.00    -0.214 NA
BRANCH   4   3
ATOM      1  C   UNL     1      -5.019  16.332  19.023  0.00  0.00    +0.020 A 
ATOM      2  C   UNL     1      -6.244  15.844  19.613  0.00  0.00    +0.013 A 
ATOM      3  C   UNL     1      -6.709  16.355  20.897  0.00  0.00    +0.019 A 
ATOM     38  C   UNL     1      -5.904  17.368  21.562  0.00  0.00    +0.120 A 
ATOM     39  N   UNL     1      -4.728  17.819  20.971  0.00  0.00    -0.263 NA
ATOM     40  C   UNL     1      -4.270  17.333  19.737  0.00  0.00    +0.111 A 
ENDBRANCH   4   3
ENDBRANCH  10   9
BRANCH  12  13
ATOM     13  N   UNL     1     -12.655  15.963  27.885  0.00  0.00    -0.281 N 
ATOM     14  C   UNL     1     -12.570  16.380  29.203  0.00  0.00    +0.248 C 
ATOM     30  O   UNL     1     -11.878  15.841  30.055  0.00  0.00    -0.270 OA
ATOM     31  H   UNL     1     -13.409  16.373  27.333  0.00  0.00    +0.155 HD
BRANCH  14  15
ATOM     15  C   UNL     1     -13.381  17.555  29.643  0.00  0.00    +0.037 A 
ATOM     16  C   UNL     1     -13.305  18.838  28.938  0.00  0.00    +0.013 A 
ATOM     17  C   UNL     1     -14.086  19.961  29.393  0.00  0.00    +0.005 A 
ATOM     18  C   UNL     1     -14.951  19.805  30.560  0.00  0.00    -0.033 A 
ATOM     28  C   UNL     1     -15.012  18.520  31.237  0.00  0.00    +0.005 A 
ATOM     29  C   UNL     1     -14.248  17.418  30.794  0.00  0.00    +0.013 A 
BRANCH  18  19
ATOM     19  C   UNL     1     -15.804  20.955  31.128  0.00  0.00    +0.119 C 
BRANCH  19  20
ATOM     20  N   UNL     1     -15.387  21.531  32.442  0.00  0.00    -0.302 NA
ATOM     21  C   UNL     1     -16.242  21.003  33.597  0.00  0.00    +0.066 C 
ATOM     22  C   UNL     1     -15.778  21.598  34.967  0.00  0.00    -0.064 C 
ATOM     23  N   UNL     1     -15.837  23.125  34.903  0.00  0.00    +0.379 N 
ATOM     24  C   UNL     1     -15.457  23.686  36.207  0.00  0.00    -0.096 C 
ATOM     25  H   UNL     1     -16.895  23.414  34.705  0.00  0.00    -0.082 HD
ATOM     26  C   UNL     1     -14.991  23.658  33.755  0.00  0.00    -0.064 C 
ATOM     27  C   UNL     1     -15.442  23.038  32.402  0.00  0.00    +0.066 C 
ENDBRANCH  19  20
ENDBRANCH  18  19
ENDBRANCH  14  15
ENDBRANCH  12  13
TORSDOF 6
ENDMDL
