MODEL 1
REMARK VINA RESULT:      -7.7      0.000      0.000
REMARK  Name = C:\Users\Docking\Desktop\test protocol\1iep_ligandH.pdb
REMARK  8 active torsions:
REMARK  status: ('A' for Active; 'I' for Inactive)
REMARK    1  A    between atoms: _5  and  _11
REMARK    2  A    between atoms: _19  and  _21
REMARK    3  A    between atoms: _22  and  _66
REMARK    4  A    between atoms: _27  and  _30
REMARK    5  A    between atoms: _32  and  _33
REMARK    6  A    between atoms: _38  and  _43
REMARK    7  A    between atoms: _43  and  _46
REMARK    8  A    between atoms: _53  and  _55
REMARK                            x       y       z     vdW  Elec       q    Type
REMARK                         _______ _______ _______ _____ _____    ______ ____
ROOT
ATOM     10  C   UNL     1      74.027 185.586  48.771  0.00  0.00    +0.038 A 
ATOM     11  C   UNL     1      74.945 184.571  49.140  0.00  0.00    +0.047 A 
ATOM     12  C   UNL     1      75.071 183.349  48.361  0.00  0.00    +0.035 A 
ATOM     32  C   UNL     1      74.246 183.196  47.208  0.00  0.00    +0.024 A 
ATOM     33  C   UNL     1      73.306 184.217  46.819  0.00  0.00    +0.007 A 
ATOM     34  C   UNL     1      73.177 185.424  47.585  0.00  0.00    -0.029 A 
ATOM     35  C   UNL     1      72.148 186.482  47.124  0.00  0.00    +0.045 C 
ENDROOT
BRANCH  10   9
ATOM      4  C   UNL     1      72.682 187.918  52.744  0.00  0.00    +0.077 A 
ATOM      5  C   UNL     1      72.060 186.747  53.292  0.00  0.00    +0.048 A 
ATOM      6  C   UNL     1      72.102 185.567  52.516  0.00  0.00    +0.116 A 
ATOM      7  N   UNL     1      72.723 185.569  51.286  0.00  0.00    -0.223 NA
ATOM      8  C   UNL     1      73.311 186.716  50.786  0.00  0.00    +0.220 A 
ATOM      9  N   UNL     1      73.948 186.739  49.555  0.00  0.00    -0.283 N 
ATOM     36  H   UNL     1      74.364 187.607  49.219  0.00  0.00    +0.155 HD
ATOM     37  N   UNL     1      73.283 187.856  51.507  0.00  0.00    -0.214 NA
BRANCH   4   3
ATOM      1  C   UNL     1      73.886 191.371  54.132  0.00  0.00    +0.020 A 
ATOM      2  C   UNL     1      73.898 190.104  53.440  0.00  0.00    +0.013 A 
ATOM      3  C   UNL     1      72.723 189.240  53.446  0.00  0.00    +0.019 A 
ATOM     38  C   UNL     1      71.543 189.693  54.167  0.00  0.00    +0.120 A 
ATOM     39  N   UNL     1      71.561 190.919  54.826  0.00  0.00    -0.263 NA
ATOM     40  C   UNL     1      72.686 191.757  54.828  0.00  0.00    +0.111 A 
ENDBRANCH   4   3
ENDBRANCH  10   9
BRANCH  12  13
ATOM     13  N   UNL     1      75.980 182.280  48.692  0.00  0.00    -0.281 N 
ATOM     14  C   UNL     1      77.229 182.026  48.150  0.00  0.00    +0.248 C 
ATOM     30  O   UNL     1      77.665 182.558  47.140  0.00  0.00    -0.270 OA
ATOM     31  H   UNL     1      75.664 181.633  49.414  0.00  0.00    +0.155 HD
BRANCH  14  15
ATOM     15  C   UNL     1      78.115 181.024  48.817  0.00  0.00    +0.037 A 
ATOM     16  C   UNL     1      77.713 180.362  50.060  0.00  0.00    +0.013 A 
ATOM     17  C   UNL     1      78.594 179.413  50.692  0.00  0.00    +0.005 A 
ATOM     18  C   UNL     1      79.888 179.119  50.080  0.00  0.00    -0.033 A 
ATOM     28  C   UNL     1      80.260 179.786  48.844  0.00  0.00    +0.005 A 
ATOM     29  C   UNL     1      79.399 180.718  48.222  0.00  0.00    +0.013 A 
BRANCH  18  19
ATOM     19  C   UNL     1      80.900 178.136  50.696  0.00  0.00    +0.119 C 
BRANCH  19  20
ATOM     20  N   UNL     1      81.384 178.429  52.079  0.00  0.00    -0.302 NA
ATOM     21  C   UNL     1      82.010 179.822  52.185  0.00  0.00    +0.066 C 
ATOM     22  C   UNL     1      82.490 180.120  53.643  0.00  0.00    -0.064 C 
ATOM     23  N   UNL     1      83.486 179.044  54.079  0.00  0.00    +0.379 N 
ATOM     24  C   UNL     1      83.983 179.354  55.428  0.00  0.00    -0.096 C 
ATOM     25  H   UNL     1      84.354 179.084  53.381  0.00  0.00    -0.082 HD
ATOM     26  C   UNL     1      82.872 177.655  53.974  0.00  0.00    -0.064 C 
ATOM     27  C   UNL     1      82.371 177.380  52.529  0.00  0.00    +0.066 C 
ENDBRANCH  19  20
ENDBRANCH  18  19
ENDBRANCH  14  15
ENDBRANCH  12  13
TORSDOF 6
ENDMDL
MODEL 2
REMARK VINA RESULT:      -7.4      4.771      7.092
REMARK  Name = C:\Users\Docking\Desktop\test protocol\1iep_ligandH.pdb
REMARK  8 active torsions:
REMARK  status: ('A' for Active; 'I' for Inactive)
REMARK    1  A    between atoms: _5  and  _11
REMARK    2  A    between atoms: _19  and  _21
REMARK    3  A    between atoms: _22  and  _66
REMARK    4  A    between atoms: _27  and  _30
REMARK    5  A    between atoms: _32  and  _33
REMARK    6  A    between atoms: _38  and  _43
REMARK    7  A    between atoms: _43  and  _46
REMARK    8  A    between atoms: _53  and  _55
REMARK                            x       y       z     vdW  Elec       q    Type
REMARK                         _______ _______ _______ _____ _____    ______ ____
ROOT
ATOM     10  C   UNL     1      70.216 188.048  52.395  0.00  0.00    +0.038 A 
ATOM     11  C   UNL     1      70.971 187.037  51.748  0.00  0.00    +0.047 A 
ATOM     12  C   UNL     1      72.417 187.139  51.626  0.00  0.00    +0.035 A 
ATOM     32  C   UNL     1      73.062 188.284  52.178  0.00  0.00    +0.024 A 
ATOM     33  C   UNL     1      72.311 189.321  52.838  0.00  0.00    +0.007 A 
ATOM     34  C   UNL     1      70.884 189.228  52.959  0.00  0.00    -0.029 A 
ATOM     35  C   UNL     1      70.128 190.373  53.672  0.00  0.00    +0.045 C 
ENDROOT
BRANCH  10   9
ATOM      4  C   UNL     1      65.838 187.932  50.432  0.00  0.00    +0.077 A 
ATOM      5  C   UNL     1      66.352 188.219  49.124  0.00  0.00    +0.048 A 
ATOM      6  C   UNL     1      67.748 188.397  49.000  0.00  0.00    +0.116 A 
ATOM      7  N   UNL     1      68.560 188.293  50.109  0.00  0.00    -0.223 NA
ATOM      8  C   UNL     1      68.032 188.016  51.357  0.00  0.00    +0.220 A 
ATOM      9  N   UNL     1      68.830 187.899  52.484  0.00  0.00    -0.283 N 
ATOM     36  H   UNL     1      68.401 187.702  53.387  0.00  0.00    +0.155 HD
ATOM     37  N   UNL     1      66.701 187.844  51.501  0.00  0.00    -0.214 NA
BRANCH   4   3
ATOM      1  C   UNL     1      62.146 188.466  51.611  0.00  0.00    +0.020 A 
ATOM      2  C   UNL     1      63.544 188.726  51.352  0.00  0.00    +0.013 A 
ATOM      3  C   UNL     1      64.385 187.715  50.724  0.00  0.00    +0.019 A 
ATOM     38  C   UNL     1      63.777 186.443  50.366  0.00  0.00    +0.120 A 
ATOM     39  N   UNL     1      62.429 186.220  50.629  0.00  0.00    -0.263 NA
ATOM     40  C   UNL     1      61.610 187.185  51.235  0.00  0.00    +0.111 A 
ENDBRANCH   4   3
ENDBRANCH  10   9
BRANCH  12  13
ATOM     13  N   UNL     1      73.235 186.148  50.972  0.00  0.00    -0.281 N 
ATOM     14  C   UNL     1      73.428 185.964  49.613  0.00  0.00    +0.248 C 
ATOM     30  O   UNL     1      72.754 186.494  48.742  0.00  0.00    -0.270 OA
ATOM     31  H   UNL     1      73.733 185.503  51.586  0.00  0.00    +0.155 HD
BRANCH  14  15
ATOM     15  C   UNL     1      74.517 185.050  49.155  0.00  0.00    +0.037 A 
ATOM     16  C   UNL     1      75.889 185.532  48.977  0.00  0.00    +0.013 A 
ATOM     17  C   UNL     1      76.918 184.632  48.517  0.00  0.00    +0.005 A 
ATOM     18  C   UNL     1      76.578 183.240  48.234  0.00  0.00    -0.033 A 
ATOM     28  C   UNL     1      75.210 182.787  48.424  0.00  0.00    +0.005 A 
ATOM     29  C   UNL     1      74.199 183.666  48.873  0.00  0.00    +0.013 A 
BRANCH  18  19
ATOM     19  C   UNL     1      77.607 182.216  47.720  0.00  0.00    +0.119 C 
BRANCH  19  20
ATOM     20  N   UNL     1      78.441 181.513  48.740  0.00  0.00    -0.302 NA
ATOM     21  C   UNL     1      79.767 181.017  48.156  0.00  0.00    +0.066 C 
ATOM     22  C   UNL     1      80.636 180.305  49.243  0.00  0.00    -0.064 C 
ATOM     23  N   UNL     1      79.843 179.145  49.847  0.00  0.00    +0.379 N 
ATOM     24  C   UNL     1      80.679 178.437  50.827  0.00  0.00    -0.096 C 
ATOM     25  H   UNL     1      79.609 178.430  49.023  0.00  0.00    -0.082 HD
ATOM     26  C   UNL     1      78.522 179.628  50.427  0.00  0.00    -0.064 C 
ATOM     27  C   UNL     1      77.678 180.361  49.347  0.00  0.00    +0.066 C 
ENDBRANCH  19  20
ENDBRANCH  18  19
ENDBRANCH  14  15
ENDBRANCH  12  13
TORSDOF 6
ENDMDL
MODEL 3
REMARK VINA RESULT:      -7.3     28.378     31.378
REMARK  Name = C:\Users\Docking\Desktop\test protocol\1iep_ligandH.pdb
REMARK  8 active torsions:
REMARK  status: ('A' for Active; 'I' for Inactive)
REMARK    1  A    between atoms: _5  and  _11
REMARK    2  A    between atoms: _19  and  _21
REMARK    3  A    between atoms: _22  and  _66
REMARK    4  A    between atoms: _27  and  _30
REMARK    5  A    between atoms: _32  and  _33
REMARK    6  A    between atoms: _38  and  _43
REMARK    7  A    between atoms: _43  and  _46
REMARK    8  A    between atoms: _53  and  _55
REMARK                            x       y       z     vdW  Elec       q    Type
REMARK                         _______ _______ _______ _____ _____    ______ ____
ROOT
ATOM     10  C   UNL     1      62.140 160.933  63.379  0.00  0.00    +0.038 A 
ATOM     11  C   UNL     1      61.568 160.724  62.098  0.00  0.00    +0.047 A 
ATOM     12  C   UNL     1      60.331 159.975  61.940  0.00  0.00    +0.035 A 
ATOM     32  C   UNL     1      59.701 159.456  63.108  0.00  0.00    +0.024 A 
ATOM     33  C   UNL     1      60.269 159.659  64.418  0.00  0.00    +0.007 A 
ATOM     34  C   UNL     1      61.491 160.394  64.580  0.00  0.00    -0.029 A 
ATOM     35  C   UNL     1      62.058 160.575  66.007  0.00  0.00    +0.045 C 
ENDROOT
BRANCH  10   9
ATOM      4  C   UNL     1      66.931 161.233  63.348  0.00  0.00    +0.077 A 
ATOM      5  C   UNL     1      67.077 159.819  63.154  0.00  0.00    +0.048 A 
ATOM      6  C   UNL     1      65.895 159.049  63.075  0.00  0.00    +0.116 A 
ATOM      7  N   UNL     1      64.663 159.659  63.183  0.00  0.00    -0.223 NA
ATOM      8  C   UNL     1      64.558 161.025  63.370  0.00  0.00    +0.220 A 
ATOM      9  N   UNL     1      63.330 161.660  63.473  0.00  0.00    -0.283 N 
ATOM     36  H   UNL     1      63.294 162.668  63.618  0.00  0.00    +0.155 HD
ATOM     37  N   UNL     1      65.672 161.782  63.450  0.00  0.00    -0.214 NA
BRANCH   4   3
ATOM      1  C   UNL     1      70.084 163.380  62.482  0.00  0.00    +0.020 A 
ATOM      2  C   UNL     1      68.983 162.456  62.333  0.00  0.00    +0.013 A 
ATOM      3  C   UNL     1      68.085 162.181  63.448  0.00  0.00    +0.019 A 
ATOM     38  C   UNL     1      68.330 162.863  64.709  0.00  0.00    +0.120 A 
ATOM     39  N   UNL     1      69.398 163.747  64.824  0.00  0.00    -0.263 NA
ATOM     40  C   UNL     1      70.270 164.018  63.758  0.00  0.00    +0.111 A 
ENDBRANCH   4   3
ENDBRANCH  10   9
BRANCH  12  13
ATOM     13  N   UNL     1      59.708 159.723  60.664  0.00  0.00    -0.281 N 
ATOM     14  C   UNL     1      59.873 158.624  59.838  0.00  0.00    +0.248 C 
ATOM     30  O   UNL     1      60.751 157.784  59.972  0.00  0.00    -0.270 OA
ATOM     31  H   UNL     1      59.067 160.443  60.330  0.00  0.00    +0.155 HD
BRANCH  14  15
ATOM     15  C   UNL     1      58.937 158.438  58.687  0.00  0.00    +0.037 A 
ATOM     16  C   UNL     1      59.428 158.395  57.308  0.00  0.00    +0.013 A 
ATOM     17  C   UNL     1      58.501 158.232  56.215  0.00  0.00    +0.005 A 
ATOM     18  C   UNL     1      57.074 158.109  56.499  0.00  0.00    -0.033 A 
ATOM     28  C   UNL     1      56.615 158.149  57.878  0.00  0.00    +0.005 A 
ATOM     29  C   UNL     1      57.520 158.310  58.951  0.00  0.00    +0.013 A 
BRANCH  18  19
ATOM     19  C   UNL     1      56.012 157.953  55.395  0.00  0.00    +0.119 C 
BRANCH  19  20
ATOM     20  N   UNL     1      55.443 159.204  54.812  0.00  0.00    -0.302 NA
ATOM     21  C   UNL     1      53.932 159.310  55.040  0.00  0.00    +0.066 C 
ATOM     22  C   UNL     1      53.358 160.635  54.443  0.00  0.00    -0.064 C 
ATOM     23  N   UNL     1      53.686 160.704  52.950  0.00  0.00    +0.379 N 
ATOM     24  C   UNL     1      53.097 161.922  52.374  0.00  0.00    -0.096 C 
ATOM     25  H   UNL     1      53.203 159.828  52.458  0.00  0.00    -0.082 HD
ATOM     26  C   UNL     1      55.186 160.597  52.714  0.00  0.00    -0.064 C 
ATOM     27  C   UNL     1      55.752 159.290  53.337  0.00  0.00    +0.066 C 
ENDBRANCH  19  20
ENDBRANCH  18  19
ENDBRANCH  14  15
ENDBRANCH  12  13
TORSDOF 6
ENDMDL
MODEL 4
REMARK VINA RESULT:      -7.1     26.161     28.941
REMARK  Name = C:\Users\Docking\Desktop\test protocol\1iep_ligandH.pdb
REMARK  8 active torsions:
REMARK  status: ('A' for Active; 'I' for Inactive)
REMARK    1  A    between atoms: _5  and  _11
REMARK    2  A    between atoms: _19  and  _21
REMARK    3  A    between atoms: _22  and  _66
REMARK    4  A    between atoms: _27  and  _30
REMARK    5  A    between atoms: _32  and  _33
REMARK    6  A    between atoms: _38  and  _43
REMARK    7  A    between atoms: _43  and  _46
REMARK    8  A    between atoms: _53  and  _55
REMARK                            x       y       z     vdW  Elec       q    Type
REMARK                         _______ _______ _______ _____ _____    ______ ____
ROOT
ATOM     10  C   UNL     1      63.006 158.904  63.816  0.00  0.00    +0.038 A 
ATOM     11  C   UNL     1      64.226 159.543  63.479  0.00  0.00    +0.047 A 
ATOM     12  C   UNL     1      65.114 160.060  64.509  0.00  0.00    +0.035 A 
ATOM     32  C   UNL     1      64.729 159.907  65.872  0.00  0.00    +0.024 A 
ATOM     33  C   UNL     1      63.491 159.260  66.233  0.00  0.00    +0.007 A 
ATOM     34  C   UNL     1      62.610 158.750  65.221  0.00  0.00    -0.029 A 
ATOM     35  C   UNL     1      61.293 158.072  65.665  0.00  0.00    +0.045 C 
ENDROOT
BRANCH  10   9
ATOM      4  C   UNL     1      60.023 159.582  60.117  0.00  0.00    +0.077 A 
ATOM      5  C   UNL     1      60.070 161.008  60.264  0.00  0.00    +0.048 A 
ATOM      6  C   UNL     1      60.868 161.527  61.309  0.00  0.00    +0.116 A 
ATOM      7  N   UNL     1      61.563 160.673  62.138  0.00  0.00    -0.223 NA
ATOM      8  C   UNL     1      61.494 159.302  61.969  0.00  0.00    +0.220 A 
ATOM      9  N   UNL     1      62.192 158.426  62.787  0.00  0.00    -0.283 N 
ATOM     36  H   UNL     1      62.109 157.421  62.634  0.00  0.00    +0.155 HD
ATOM     37  N   UNL     1      60.739 158.782  60.980  0.00  0.00    -0.214 NA
BRANCH   4   3
ATOM      1  C   UNL     1      58.961 157.874  56.762  0.00  0.00    +0.020 A 
ATOM      2  C   UNL     1      59.772 158.550  57.748  0.00  0.00    +0.013 A 
ATOM      3  C   UNL     1      59.228 158.882  59.059  0.00  0.00    +0.019 A 
ATOM     38  C   UNL     1      57.849 158.513  59.342  0.00  0.00    +0.120 A 
ATOM     39  N   UNL     1      57.092 157.863  58.372  0.00  0.00    -0.263 NA
ATOM     40  C   UNL     1      57.605 157.540  57.107  0.00  0.00    +0.111 A 
ENDBRANCH   4   3
ENDBRANCH  10   9
BRANCH  12  13
ATOM     13  N   UNL     1      66.361 160.726  64.227  0.00  0.00    -0.281 N 
ATOM     14  C   UNL     1      66.557 161.916  63.545  0.00  0.00    +0.248 C 
ATOM     30  O   UNL     1      65.699 162.483  62.885  0.00  0.00    -0.270 OA
ATOM     31  H   UNL     1      67.203 160.264  64.572  0.00  0.00    +0.155 HD
BRANCH  14  15
ATOM     15  C   UNL     1      67.904 162.562  63.591  0.00  0.00    +0.037 A 
ATOM     16  C   UNL     1      68.523 162.938  64.865  0.00  0.00    +0.013 A 
ATOM     17  C   UNL     1      69.816 163.575  64.880  0.00  0.00    +0.005 A 
ATOM     18  C   UNL     1      70.499 163.839  63.616  0.00  0.00    -0.033 A 
ATOM     28  C   UNL     1      69.865 163.450  62.368  0.00  0.00    +0.005 A 
ATOM     29  C   UNL     1      68.597 162.826  62.349  0.00  0.00    +0.013 A 
BRANCH  18  19
ATOM     19  C   UNL     1      71.872 164.534  63.536  0.00  0.00    +0.119 C 
BRANCH  19  20
ATOM     20  N   UNL     1      73.069 163.729  63.924  0.00  0.00    -0.302 NA
ATOM     21  C   UNL     1      74.365 164.535  63.806  0.00  0.00    +0.066 C 
ATOM     22  C   UNL     1      75.605 163.686  64.236  0.00  0.00    -0.064 C 
ATOM     23  N   UNL     1      75.674 162.420  63.380  0.00  0.00    +0.379 N 
ATOM     24  C   UNL     1      76.871 161.647  63.743  0.00  0.00    -0.096 C 
ATOM     25  H   UNL     1      75.785 162.737  62.317  0.00  0.00    -0.082 HD
ATOM     26  C   UNL     1      74.388 161.614  63.489  0.00  0.00    -0.064 C 
ATOM     27  C   UNL     1      73.159 162.476  63.088  0.00  0.00    +0.066 C 
ENDBRANCH  19  20
ENDBRANCH  18  19
ENDBRANCH  14  15
ENDBRANCH  12  13
TORSDOF 6
ENDMDL
MODEL 5
REMARK VINA RESULT:      -7.0      6.195      8.312
REMARK  Name = C:\Users\Docking\Desktop\test protocol\1iep_ligandH.pdb
REMARK  8 active torsions:
REMARK  status: ('A' for Active; 'I' for Inactive)
REMARK    1  A    between atoms: _5  and  _11
REMARK    2  A    between atoms: _19  and  _21
REMARK    3  A    between atoms: _22  and  _66
REMARK    4  A    between atoms: _27  and  _30
REMARK    5  A    between atoms: _32  and  _33
REMARK    6  A    between atoms: _38  and  _43
REMARK    7  A    between atoms: _43  and  _46
REMARK    8  A    between atoms: _53  and  _55
REMARK                            x       y       z     vdW  Elec       q    Type
REMARK                         _______ _______ _______ _____ _____    ______ ____
ROOT
ATOM     10  C   UNL     1      67.123 183.946  45.562  0.00  0.00    +0.038 A 
ATOM     11  C   UNL     1      68.481 183.887  45.970  0.00  0.00    +0.047 A 
ATOM     12  C   UNL     1      69.542 183.612  45.014  0.00  0.00    +0.035 A 
ATOM     32  C   UNL     1      69.185 183.403  43.650  0.00  0.00    +0.024 A 
ATOM     33  C   UNL     1      67.810 183.458  43.218  0.00  0.00    +0.007 A 
ATOM     34  C   UNL     1      66.759 183.727  44.157  0.00  0.00    -0.029 A 
ATOM     35  C   UNL     1      65.302 183.767  43.640  0.00  0.00    +0.045 C 
ENDROOT
BRANCH  10   9
ATOM      4  C   UNL     1      64.409 186.978  48.107  0.00  0.00    +0.077 A 
ATOM      5  C   UNL     1      65.010 188.126  47.491  0.00  0.00    +0.048 A 
ATOM      6  C   UNL     1      66.019 187.893  46.530  0.00  0.00    +0.116 A 
ATOM      7  N   UNL     1      66.391 186.604  46.215  0.00  0.00    -0.223 NA
ATOM      8  C   UNL     1      65.792 185.519  46.829  0.00  0.00    +0.220 A 
ATOM      9  N   UNL     1      66.145 184.214  46.522  0.00  0.00    -0.283 N 
ATOM     36  H   UNL     1      65.685 183.441  47.003  0.00  0.00    +0.155 HD
ATOM     37  N   UNL     1      64.827 185.715  47.752  0.00  0.00    -0.214 NA
BRANCH   4   3
ATOM      1  C   UNL     1      61.947 186.091  51.014  0.00  0.00    +0.020 A 
ATOM      2  C   UNL     1      63.001 185.959  50.035  0.00  0.00    +0.013 A 
ATOM      3  C   UNL     1      63.328 187.061  49.139  0.00  0.00    +0.019 A 
ATOM     38  C   UNL     1      62.563 188.293  49.261  0.00  0.00    +0.120 A 
ATOM     39  N   UNL     1      61.553 188.391  50.213  0.00  0.00    -0.263 NA
ATOM     40  C   UNL     1      61.229 187.336  51.080  0.00  0.00    +0.111 A 
ENDBRANCH   4   3
ENDBRANCH  10   9
BRANCH  12  13
ATOM     13  N   UNL     1      70.937 183.532  45.370  0.00  0.00    -0.281 N 
ATOM     14  C   UNL     1      71.826 184.576  45.570  0.00  0.00    +0.248 C 
ATOM     30  O   UNL     1      71.607 185.738  45.261  0.00  0.00    -0.270 OA
ATOM     31  H   UNL     1      71.315 182.592  45.490  0.00  0.00    +0.155 HD
BRANCH  14  15
ATOM     15  C   UNL     1      73.155 184.284  46.188  0.00  0.00    +0.037 A 
ATOM     16  C   UNL     1      73.366 184.415  47.632  0.00  0.00    +0.013 A 
ATOM     17  C   UNL     1      74.663 184.144  48.201  0.00  0.00    +0.005 A 
ATOM     18  C   UNL     1      75.758 183.737  47.324  0.00  0.00    -0.033 A 
ATOM     28  C   UNL     1      75.519 183.610  45.896  0.00  0.00    +0.005 A 
ATOM     29  C   UNL     1      74.250 183.876  45.335  0.00  0.00    +0.013 A 
BRANCH  18  19
ATOM     19  C   UNL     1      77.180 183.448  47.841  0.00  0.00    +0.119 C 
BRANCH  19  20
ATOM     20  N   UNL     1      77.651 182.032  47.791  0.00  0.00    -0.302 NA
ATOM     21  C   UNL     1      77.405 181.298  49.111  0.00  0.00    +0.066 C 
ATOM     22  C   UNL     1      77.883 179.811  49.034  0.00  0.00    -0.064 C 
ATOM     23  N   UNL     1      79.367 179.774  48.662  0.00  0.00    +0.379 N 
ATOM     24  C   UNL     1      79.834 178.380  48.645  0.00  0.00    -0.096 C 
ATOM     25  H   UNL     1      79.929 180.310  49.462  0.00  0.00    -0.082 HD
ATOM     26  C   UNL     1      79.621 180.505  47.351  0.00  0.00    -0.064 C 
ATOM     27  C   UNL     1      79.115 181.973  47.429  0.00  0.00    +0.066 C 
ENDBRANCH  19  20
ENDBRANCH  18  19
ENDBRANCH  14  15
ENDBRANCH  12  13
TORSDOF 6
ENDMDL
