MODEL 1
REMARK VINA RESULT:      -9.6      0.000      0.000
REMARK  Name = C:\Users\Docking\Desktop\test protocol\1iep_ligandH.pdb
REMARK  8 active torsions:
REMARK  status: ('A' for Active; 'I' for Inactive)
REMARK    1  A    between atoms: _5  and  _11
REMARK    2  A    between atoms: _19  and  _21
REMARK    3  A    between atoms: _22  and  _66
REMARK    4  A    between atoms: _27  and  _30
REMARK    5  A    between atoms: _32  and  _33
REMARK    6  A    between atoms: _38  and  _43
REMARK    7  A    between atoms: _43  and  _46
REMARK    8  A    between atoms: _53  and  _55
REMARK                            x       y       z     vdW  Elec       q    Type
REMARK                         _______ _______ _______ _____ _____    ______ ____
ROOT
ATOM     10  C   UNL     1      12.156  44.431 115.654  0.00  0.00    +0.038 A 
ATOM     11  C   UNL     1      11.586  44.695 114.383  0.00  0.00    +0.047 A 
ATOM     12  C   UNL     1      10.904  45.951 114.111  0.00  0.00    +0.035 A 
ATOM     32  C   UNL     1      10.823  46.917 115.156  0.00  0.00    +0.024 A 
ATOM     33  C   UNL     1      11.397  46.664 116.455  0.00  0.00    +0.007 A 
ATOM     34  C   UNL     1      12.069  45.426 116.730  0.00  0.00    -0.029 A 
ATOM     35  C   UNL     1      12.659  45.206 118.142  0.00  0.00    +0.045 C 
ENDROOT
BRANCH  10   9
ATOM      4  C   UNL     1      16.066  41.648 115.622  0.00  0.00    +0.077 A 
ATOM      5  C   UNL     1      16.892  42.711 115.127  0.00  0.00    +0.048 A 
ATOM      6  C   UNL     1      16.270  43.957 114.887  0.00  0.00    +0.116 A 
ATOM      7  N   UNL     1      14.923  44.116 115.128  0.00  0.00    -0.223 NA
ATOM      8  C   UNL     1      14.155  43.069 115.604  0.00  0.00    +0.220 A 
ATOM      9  N   UNL     1      12.800  43.208 115.861  0.00  0.00    -0.283 N 
ATOM     36  H   UNL     1      12.267  42.410 116.204  0.00  0.00    +0.155 HD
ATOM     37  N   UNL     1      14.725  41.869 115.840  0.00  0.00    -0.214 NA
BRANCH   4   3
ATOM      1  C   UNL     1      17.402  38.497 117.518  0.00  0.00    +0.020 A 
ATOM      2  C   UNL     1      16.912  39.835 117.277  0.00  0.00    +0.013 A 
ATOM      3  C   UNL     1      16.578  40.274 115.928  0.00  0.00    +0.019 A 
ATOM     38  C   UNL     1      16.752  39.327 114.836  0.00  0.00    +0.120 A 
ATOM     39  N   UNL     1      17.227  38.046 115.098  0.00  0.00    -0.263 NA
ATOM     40  C   UNL     1      17.553  37.613 116.392  0.00  0.00    +0.111 A 
ENDBRANCH   4   3
ENDBRANCH  10   9
BRANCH  12  13
ATOM     13  N   UNL     1      10.298  46.272 112.842  0.00  0.00    -0.281 N 
ATOM     14  C   UNL     1       8.954  46.244 112.509  0.00  0.00    +0.248 C 
ATOM     30  O   UNL     1       8.082  45.730 113.194  0.00  0.00    -0.270 OA
ATOM     31  H   UNL     1      10.938  46.554 112.100  0.00  0.00    +0.155 HD
BRANCH  14  15
ATOM     15  C   UNL     1       8.516  46.864 111.221  0.00  0.00    +0.037 A 
ATOM     16  C   UNL     1       8.927  48.221 110.853  0.00  0.00    +0.013 A 
ATOM     17  C   UNL     1       8.477  48.802 109.613  0.00  0.00    +0.005 A 
ATOM     18  C   UNL     1       7.611  48.024 108.731  0.00  0.00    -0.033 A 
ATOM     28  C   UNL     1       7.223  46.678 109.118  0.00  0.00    +0.005 A 
ATOM     29  C   UNL     1       7.661  46.106 110.333  0.00  0.00    +0.013 A 
BRANCH  18  19
ATOM     19  C   UNL     1       7.066  48.571 107.398  0.00  0.00    +0.119 C 
BRANCH  19  20
ATOM     20  N   UNL     1       7.642  48.009 106.141  0.00  0.00    -0.302 NA
ATOM     21  C   UNL     1       9.163  48.179 106.080  0.00  0.00    +0.066 C 
ATOM     22  C   UNL     1       9.752  47.565 104.768  0.00  0.00    -0.064 C 
ATOM     23  N   UNL     1       9.084  48.219 103.557  0.00  0.00    +0.379 N 
ATOM     24  C   UNL     1       9.677  47.685 102.322  0.00  0.00    -0.096 C 
ATOM     25  H   UNL     1       9.309  49.310 103.596  0.00  0.00    -0.082 HD
ATOM     26  C   UNL     1       7.572  48.057 103.611  0.00  0.00    -0.064 C 
ATOM     27  C   UNL     1       7.000  48.644 104.932  0.00  0.00    +0.066 C 
ENDBRANCH  19  20
ENDBRANCH  18  19
ENDBRANCH  14  15
ENDBRANCH  12  13
TORSDOF 6
ENDMDL
MODEL 2
REMARK VINA RESULT:      -9.2      2.225      3.187
REMARK  Name = C:\Users\Docking\Desktop\test protocol\1iep_ligandH.pdb
REMARK  8 active torsions:
REMARK  status: ('A' for Active; 'I' for Inactive)
REMARK    1  A    between atoms: _5  and  _11
REMARK    2  A    between atoms: _19  and  _21
REMARK    3  A    between atoms: _22  and  _66
REMARK    4  A    between atoms: _27  and  _30
REMARK    5  A    between atoms: _32  and  _33
REMARK    6  A    between atoms: _38  and  _43
REMARK    7  A    between atoms: _43  and  _46
REMARK    8  A    between atoms: _53  and  _55
REMARK                            x       y       z     vdW  Elec       q    Type
REMARK                         _______ _______ _______ _____ _____    ______ ____
ROOT
ATOM     10  C   UNL     1      10.297  42.758 112.803  0.00  0.00    +0.038 A 
ATOM     11  C   UNL     1      10.122  43.749 111.804  0.00  0.00    +0.047 A 
ATOM     12  C   UNL     1       8.813  44.327 111.539  0.00  0.00    +0.035 A 
ATOM     32  C   UNL     1       7.705  43.873 112.312  0.00  0.00    +0.024 A 
ATOM     33  C   UNL     1       7.865  42.866 113.331  0.00  0.00    +0.007 A 
ATOM     34  C   UNL     1       9.153  42.290 113.595  0.00  0.00    -0.029 A 
ATOM     35  C   UNL     1       9.265  41.209 114.695  0.00  0.00    +0.045 C 
ENDROOT
BRANCH  10   9
ATOM      4  C   UNL     1      14.656  42.925 114.806  0.00  0.00    +0.077 A 
ATOM      5  C   UNL     1      14.371  44.168 115.463  0.00  0.00    +0.048 A 
ATOM      6  C   UNL     1      13.094  44.735 115.254  0.00  0.00    +0.116 A 
ATOM      7  N   UNL     1      12.177  44.097 114.446  0.00  0.00    -0.223 NA
ATOM      8  C   UNL     1      12.485  42.900 113.826  0.00  0.00    +0.220 A 
ATOM      9  N   UNL     1      11.576  42.237 113.016  0.00  0.00    -0.283 N 
ATOM     36  H   UNL     1      11.843  41.360 112.571  0.00  0.00    +0.155 HD
ATOM     37  N   UNL     1      13.698  42.339 114.009  0.00  0.00    -0.214 NA
BRANCH   4   3
ATOM      1  C   UNL     1      17.368  40.247 115.683  0.00  0.00    +0.020 A 
ATOM      2  C   UNL     1      16.086  40.905 115.589  0.00  0.00    +0.013 A 
ATOM      3  C   UNL     1      15.959  42.200 114.932  0.00  0.00    +0.019 A 
ATOM     38  C   UNL     1      17.160  42.806 114.375  0.00  0.00    +0.120 A 
ATOM     39  N   UNL     1      18.381  42.149 114.482  0.00  0.00    -0.263 NA
ATOM     40  C   UNL     1      18.516  40.904 115.114  0.00  0.00    +0.111 A 
ENDBRANCH   4   3
ENDBRANCH  10   9
BRANCH  12  13
ATOM     13  N   UNL     1       8.573  45.330 110.532  0.00  0.00    -0.281 N 
ATOM     14  C   UNL     1       8.212  46.655 110.718  0.00  0.00    +0.248 C 
ATOM     30  O   UNL     1       7.831  47.124 111.780  0.00  0.00    -0.270 OA
ATOM     31  H   UNL     1       8.682  45.028 109.564  0.00  0.00    +0.155 HD
BRANCH  14  15
ATOM     15  C   UNL     1       8.269  47.590 109.553  0.00  0.00    +0.037 A 
ATOM     16  C   UNL     1       8.542  49.017 109.737  0.00  0.00    +0.013 A 
ATOM     17  C   UNL     1       8.574  49.900 108.598  0.00  0.00    +0.005 A 
ATOM     18  C   UNL     1       8.334  49.356 107.264  0.00  0.00    -0.033 A 
ATOM     28  C   UNL     1       8.071  47.935 107.109  0.00  0.00    +0.005 A 
ATOM     29  C   UNL     1       8.037  47.067 108.224  0.00  0.00    +0.013 A 
BRANCH  18  19
ATOM     19  C   UNL     1       8.329  50.228 105.994  0.00  0.00    +0.119 C 
BRANCH  19  20
ATOM     20  N   UNL     1       8.043  49.545 104.697  0.00  0.00    -0.302 NA
ATOM     21  C   UNL     1       9.157  49.770 103.671  0.00  0.00    +0.066 C 
ATOM     22  C   UNL     1       8.852  49.030 102.328  0.00  0.00    -0.064 C 
ATOM     23  N   UNL     1       7.507  49.508 101.780  0.00  0.00    +0.379 N 
ATOM     24  C   UNL     1       7.245  48.857 100.488  0.00  0.00    -0.096 C 
ATOM     25  H   UNL     1       7.588  50.605 101.596  0.00  0.00    -0.082 HD
ATOM     26  C   UNL     1       6.393  49.291 102.794  0.00  0.00    -0.064 C 
ATOM     27  C   UNL     1       6.720  50.006 104.135  0.00  0.00    +0.066 C 
ENDBRANCH  19  20
ENDBRANCH  18  19
ENDBRANCH  14  15
ENDBRANCH  12  13
TORSDOF 6
ENDMDL
MODEL 3
REMARK VINA RESULT:      -9.1      6.031     12.592
REMARK  Name = C:\Users\Docking\Desktop\test protocol\1iep_ligandH.pdb
REMARK  8 active torsions:
REMARK  status: ('A' for Active; 'I' for Inactive)
REMARK    1  A    between atoms: _5  and  _11
REMARK    2  A    between atoms: _19  and  _21
REMARK    3  A    between atoms: _22  and  _66
REMARK    4  A    between atoms: _27  and  _30
REMARK    5  A    between atoms: _32  and  _33
REMARK    6  A    between atoms: _38  and  _43
REMARK    7  A    between atoms: _43  and  _46
REMARK    8  A    between atoms: _53  and  _55
REMARK                            x       y       z     vdW  Elec       q    Type
REMARK                         _______ _______ _______ _____ _____    ______ ____
ROOT
ATOM     10  C   UNL     1      12.134  44.579 116.607  0.00  0.00    +0.038 A 
ATOM     11  C   UNL     1      12.084  44.986 117.965  0.00  0.00    +0.047 A 
ATOM     12  C   UNL     1      11.407  46.211 118.359  0.00  0.00    +0.035 A 
ATOM     32  C   UNL     1      10.789  46.999 117.344  0.00  0.00    +0.024 A 
ATOM     33  C   UNL     1      10.831  46.601 115.959  0.00  0.00    +0.007 A 
ATOM     34  C   UNL     1      11.500  45.394 115.563  0.00  0.00    -0.029 A 
ATOM     35  C   UNL     1      11.519  45.021 114.063  0.00  0.00    +0.045 C 
ENDROOT
BRANCH  10   9
ATOM      4  C   UNL     1      16.067  42.140 115.335  0.00  0.00    +0.077 A 
ATOM      5  C   UNL     1      16.862  43.333 115.283  0.00  0.00    +0.048 A 
ATOM      6  C   UNL     1      16.219  44.555 115.583  0.00  0.00    +0.116 A 
ATOM      7  N   UNL     1      14.880  44.571 115.910  0.00  0.00    -0.223 NA
ATOM      8  C   UNL     1      14.142  43.402 115.950  0.00  0.00    +0.220 A 
ATOM      9  N   UNL     1      12.797  43.393 116.284  0.00  0.00    -0.283 N 
ATOM     36  H   UNL     1      12.286  42.511 116.295  0.00  0.00    +0.155 HD
ATOM     37  N   UNL     1      14.733  42.222 115.666  0.00  0.00    -0.214 NA
BRANCH   4   3
ATOM      1  C   UNL     1      16.725  38.286 115.458  0.00  0.00    +0.020 A 
ATOM      2  C   UNL     1      16.176  39.584 115.775  0.00  0.00    +0.013 A 
ATOM      3  C   UNL     1      16.604  40.772 115.048  0.00  0.00    +0.019 A 
ATOM     38  C   UNL     1      17.596  40.611 113.996  0.00  0.00    +0.120 A 
ATOM     39  N   UNL     1      18.108  39.349 113.713  0.00  0.00    -0.263 NA
ATOM     40  C   UNL     1      17.705  38.199 114.407  0.00  0.00    +0.111 A 
ENDBRANCH   4   3
ENDBRANCH  10   9
BRANCH  12  13
ATOM     13  N   UNL     1      11.331  46.679 119.721  0.00  0.00    -0.281 N 
ATOM     14  C   UNL     1      10.964  45.962 120.848  0.00  0.00    +0.248 C 
ATOM     30  O   UNL     1      10.437  44.859 120.825  0.00  0.00    -0.270 OA
ATOM     31  H   UNL     1      11.577  47.657 119.873  0.00  0.00    +0.155 HD
BRANCH  14  15
ATOM     15  C   UNL     1      11.204  46.562 122.196  0.00  0.00    +0.037 A 
ATOM     16  C   UNL     1      11.032  47.998 122.429  0.00  0.00    +0.013 A 
ATOM     17  C   UNL     1      11.286  48.554 123.735  0.00  0.00    +0.005 A 
ATOM     18  C   UNL     1      11.714  47.672 124.818  0.00  0.00    -0.033 A 
ATOM     28  C   UNL     1      11.872  46.250 124.559  0.00  0.00    +0.005 A 
ATOM     29  C   UNL     1      11.624  45.702 123.281  0.00  0.00    +0.013 A 
BRANCH  18  19
ATOM     19  C   UNL     1      12.028  48.182 126.237  0.00  0.00    +0.119 C 
BRANCH  19  20
ATOM     20  N   UNL     1      13.385  48.760 126.471  0.00  0.00    -0.302 NA
ATOM     21  C   UNL     1      14.399  47.694 126.895  0.00  0.00    +0.066 C 
ATOM     22  C   UNL     1      15.818  48.314 127.114  0.00  0.00    -0.064 C 
ATOM     23  N   UNL     1      15.731  49.425 128.161  0.00  0.00    +0.379 N 
ATOM     24  C   UNL     1      17.073  49.970 128.411  0.00  0.00    -0.096 C 
ATOM     25  H   UNL     1      15.369  48.967 129.110  0.00  0.00    -0.082 HD
ATOM     26  C   UNL     1      14.722  50.488 127.748  0.00  0.00    -0.064 C 
ATOM     27  C   UNL     1      13.323  49.858 127.504  0.00  0.00    +0.066 C 
ENDBRANCH  19  20
ENDBRANCH  18  19
ENDBRANCH  14  15
ENDBRANCH  12  13
TORSDOF 6
ENDMDL
MODEL 4
REMARK VINA RESULT:      -8.9      7.068     11.073
REMARK  Name = C:\Users\Docking\Desktop\test protocol\1iep_ligandH.pdb
REMARK  8 active torsions:
REMARK  status: ('A' for Active; 'I' for Inactive)
REMARK    1  A    between atoms: _5  and  _11
REMARK    2  A    between atoms: _19  and  _21
REMARK    3  A    between atoms: _22  and  _66
REMARK    4  A    between atoms: _27  and  _30
REMARK    5  A    between atoms: _32  and  _33
REMARK    6  A    between atoms: _38  and  _43
REMARK    7  A    between atoms: _43  and  _46
REMARK    8  A    between atoms: _53  and  _55
REMARK                            x       y       z     vdW  Elec       q    Type
REMARK                         _______ _______ _______ _____ _____    ______ ____
ROOT
ATOM     10  C   UNL     1      12.606  48.668 117.102  0.00  0.00    +0.038 A 
ATOM     11  C   UNL     1      11.508  48.636 117.999  0.00  0.00    +0.047 A 
ATOM     12  C   UNL     1      10.606  49.770 118.125  0.00  0.00    +0.035 A 
ATOM     32  C   UNL     1      10.850  50.921 117.320  0.00  0.00    +0.024 A 
ATOM     33  C   UNL     1      11.962  50.970 116.403  0.00  0.00    +0.007 A 
ATOM     34  C   UNL     1      12.857  49.856 116.276  0.00  0.00    -0.029 A 
ATOM     35  C   UNL     1      14.036  49.967 115.282  0.00  0.00    +0.045 C 
ENDROOT
BRANCH  10   9
ATOM      4  C   UNL     1      13.755  44.364 115.316  0.00  0.00    +0.077 A 
ATOM      5  C   UNL     1      12.580  44.326 114.493  0.00  0.00    +0.048 A 
ATOM      6  C   UNL     1      11.702  45.430 114.565  0.00  0.00    +0.116 A 
ATOM      7  N   UNL     1      11.988  46.489 115.399  0.00  0.00    -0.223 NA
ATOM      8  C   UNL     1      13.129  46.493 116.181  0.00  0.00    +0.220 A 
ATOM      9  N   UNL     1      13.440  47.551 117.021  0.00  0.00    -0.283 N 
ATOM     36  H   UNL     1      14.288  47.513 117.587  0.00  0.00    +0.155 HD
ATOM     37  N   UNL     1      13.983  45.450 116.131  0.00  0.00    -0.214 NA
BRANCH   4   3
ATOM      1  C   UNL     1      15.474  40.864 115.623  0.00  0.00    +0.020 A 
ATOM      2  C   UNL     1      14.446  41.878 115.603  0.00  0.00    +0.013 A 
ATOM      3  C   UNL     1      14.781  43.274 115.348  0.00  0.00    +0.019 A 
ATOM     38  C   UNL     1      16.177  43.612 115.116  0.00  0.00    +0.120 A 
ATOM     39  N   UNL     1      17.146  42.613 115.143  0.00  0.00    -0.263 NA
ATOM     40  C   UNL     1      16.835  41.268 115.389  0.00  0.00    +0.111 A 
ENDBRANCH   4   3
ENDBRANCH  10   9
BRANCH  12  13
ATOM     13  N   UNL     1       9.480  49.799 119.025  0.00  0.00    -0.281 N 
ATOM     14  C   UNL     1       8.142  49.608 118.722  0.00  0.00    +0.248 C 
ATOM     30  O   UNL     1       7.686  49.595 117.588  0.00  0.00    -0.270 OA
ATOM     31  H   UNL     1       9.695  49.982 120.006  0.00  0.00    +0.155 HD
BRANCH  14  15
ATOM     15  C   UNL     1       7.168  49.418 119.839  0.00  0.00    +0.037 A 
ATOM     16  C   UNL     1       6.000  48.546 119.689  0.00  0.00    +0.013 A 
ATOM     17  C   UNL     1       5.066  48.394 120.777  0.00  0.00    +0.005 A 
ATOM     18  C   UNL     1       5.299  49.116 122.026  0.00  0.00    -0.033 A 
ATOM     28  C   UNL     1       6.468  49.970 122.150  0.00  0.00    +0.005 A 
ATOM     29  C   UNL     1       7.385  50.122 121.085  0.00  0.00    +0.013 A 
BRANCH  18  19
ATOM     19  C   UNL     1       4.344  49.029 123.232  0.00  0.00    +0.119 C 
BRANCH  19  20
ATOM     20  N   UNL     1       3.032  48.350 123.017  0.00  0.00    -0.302 NA
ATOM     21  C   UNL     1       1.868  49.147 123.613  0.00  0.00    +0.066 C 
ATOM     22  C   UNL     1       0.500  48.433 123.360  0.00  0.00    -0.064 C 
ATOM     23  N   UNL     1       0.548  47.022 123.950  0.00  0.00    +0.379 N 
ATOM     24  C   UNL     1      -0.755  46.368 123.765  0.00  0.00    -0.096 C 
ATOM     25  H   UNL     1       0.726  47.119 125.046  0.00  0.00    -0.082 HD
ATOM     26  C   UNL     1       1.705  46.223 123.364  0.00  0.00    -0.064 C 
ATOM     27  C   UNL     1       3.056  46.956 123.595  0.00  0.00    +0.066 C 
ENDBRANCH  19  20
ENDBRANCH  18  19
ENDBRANCH  14  15
ENDBRANCH  12  13
TORSDOF 6
ENDMDL
MODEL 5
REMARK VINA RESULT:      -8.9      6.071     13.078
REMARK  Name = C:\Users\Docking\Desktop\test protocol\1iep_ligandH.pdb
REMARK  8 active torsions:
REMARK  status: ('A' for Active; 'I' for Inactive)
REMARK    1  A    between atoms: _5  and  _11
REMARK    2  A    between atoms: _19  and  _21
REMARK    3  A    between atoms: _22  and  _66
REMARK    4  A    between atoms: _27  and  _30
REMARK    5  A    between atoms: _32  and  _33
REMARK    6  A    between atoms: _38  and  _43
REMARK    7  A    between atoms: _43  and  _46
REMARK    8  A    between atoms: _53  and  _55
REMARK                            x       y       z     vdW  Elec       q    Type
REMARK                         _______ _______ _______ _____ _____    ______ ____
ROOT
ATOM     10  C   UNL     1      11.939  41.766 113.984  0.00  0.00    +0.038 A 
ATOM     11  C   UNL     1      11.807  40.581 114.752  0.00  0.00    +0.047 A 
ATOM     12  C   UNL     1      10.497  40.067 115.123  0.00  0.00    +0.035 A 
ATOM     32  C   UNL     1       9.343  40.784 114.693  0.00  0.00    +0.024 A 
ATOM     33  C   UNL     1       9.460  41.991 113.913  0.00  0.00    +0.007 A 
ATOM     34  C   UNL     1      10.749  42.504 113.546  0.00  0.00    -0.029 A 
ATOM     35  C   UNL     1      10.813  43.806 112.714  0.00  0.00    +0.045 C 
ENDROOT
BRANCH  10   9
ATOM      4  C   UNL     1      15.919  44.274 114.937  0.00  0.00    +0.077 A 
ATOM      5  C   UNL     1      15.389  44.754 116.181  0.00  0.00    +0.048 A 
ATOM      6  C   UNL     1      14.087  44.338 116.535  0.00  0.00    +0.116 A 
ATOM      7  N   UNL     1      13.375  43.503 115.701  0.00  0.00    -0.223 NA
ATOM      8  C   UNL     1      13.915  43.060 114.507  0.00  0.00    +0.220 A 
ATOM      9  N   UNL     1      13.221  42.214 113.656  0.00  0.00    -0.283 N 
ATOM     36  H   UNL     1      13.650  41.915 112.781  0.00  0.00    +0.155 HD
ATOM     37  N   UNL     1      15.156  43.445 114.145  0.00  0.00    -0.214 NA
BRANCH   4   3
ATOM      1  C   UNL     1      19.099  46.276 113.850  0.00  0.00    +0.020 A 
ATOM      2  C   UNL     1      17.774  45.993 114.352  0.00  0.00    +0.013 A 
ATOM      3  C   UNL     1      17.282  44.623 114.425  0.00  0.00    +0.019 A 
ATOM     38  C   UNL     1      18.163  43.554 113.981  0.00  0.00    +0.120 A 
ATOM     39  N   UNL     1      19.434  43.856 113.501  0.00  0.00    -0.263 NA
ATOM     40  C   UNL     1      19.917  45.171 113.424  0.00  0.00    +0.111 A 
ENDBRANCH   4   3
ENDBRANCH  10   9
BRANCH  12  13
ATOM     13  N   UNL     1      10.301  38.873 115.908  0.00  0.00    -0.281 N 
ATOM     14  C   UNL     1      10.125  37.576 115.455  0.00  0.00    +0.248 C 
ATOM     30  O   UNL     1       9.896  37.274 114.294  0.00  0.00    -0.270 OA
ATOM     31  H   UNL     1      10.290  39.000 116.920  0.00  0.00    +0.155 HD
BRANCH  14  15
ATOM     15  C   UNL     1      10.201  36.452 116.438  0.00  0.00    +0.037 A 
ATOM     16  C   UNL     1      10.117  35.056 116.003  0.00  0.00    +0.013 A 
ATOM     17  C   UNL     1      10.176  33.991 116.973  0.00  0.00    +0.005 A 
ATOM     18  C   UNL     1      10.321  34.320 118.389  0.00  0.00    -0.033 A 
ATOM     28  C   UNL     1      10.407  35.714 118.793  0.00  0.00    +0.005 A 
ATOM     29  C   UNL     1      10.349  36.760 117.845  0.00  0.00    +0.013 A 
BRANCH  18  19
ATOM     19  C   UNL     1      10.371  33.250 119.496  0.00  0.00    +0.119 C 
BRANCH  19  20
ATOM     20  N   UNL     1      11.553  33.264 120.408  0.00  0.00    -0.302 NA
ATOM     21  C   UNL     1      12.431  32.022 120.232  0.00  0.00    +0.066 C 
ATOM     22  C   UNL     1      13.675  32.065 121.178  0.00  0.00    -0.064 C 
ATOM     23  N   UNL     1      13.205  32.194 122.628  0.00  0.00    +0.379 N 
ATOM     24  C   UNL     1      14.370  32.176 123.524  0.00  0.00    -0.096 C 
ATOM     25  H   UNL     1      12.583  31.299 122.863  0.00  0.00    -0.082 HD
ATOM     26  C   UNL     1      12.329  33.426 122.812  0.00  0.00    -0.064 C 
ATOM     27  C   UNL     1      11.112  33.387 121.846  0.00  0.00    +0.066 C 
ENDBRANCH  19  20
ENDBRANCH  18  19
ENDBRANCH  14  15
ENDBRANCH  12  13
TORSDOF 6
ENDMDL
