MODEL 1
REMARK VINA RESULT:     -10.0      0.000      0.000
REMARK  Name = C:\Users\Docking\Desktop\test protocol\1iep_ligandH.pdb
REMARK  8 active torsions:
REMARK  status: ('A' for Active; 'I' for Inactive)
REMARK    1  A    between atoms: _5  and  _11
REMARK    2  A    between atoms: _19  and  _21
REMARK    3  A    between atoms: _22  and  _66
REMARK    4  A    between atoms: _27  and  _30
REMARK    5  A    between atoms: _32  and  _33
REMARK    6  A    between atoms: _38  and  _43
REMARK    7  A    between atoms: _43  and  _46
REMARK    8  A    between atoms: _53  and  _55
REMARK                            x       y       z     vdW  Elec       q    Type
REMARK                         _______ _______ _______ _____ _____    ______ ____
ROOT
ATOM     10  C   UNL     1      36.370  50.666   5.587  0.00  0.00    +0.038 A 
ATOM     11  C   UNL     1      37.676  51.058   5.195  0.00  0.00    +0.047 A 
ATOM     12  C   UNL     1      37.887  52.203   4.324  0.00  0.00    +0.035 A 
ATOM     32  C   UNL     1      36.746  52.928   3.871  0.00  0.00    +0.024 A 
ATOM     33  C   UNL     1      35.412  52.543   4.259  0.00  0.00    +0.007 A 
ATOM     34  C   UNL     1      35.197  51.413   5.117  0.00  0.00    -0.029 A 
ATOM     35  C   UNL     1      33.745  51.041   5.495  0.00  0.00    +0.045 C 
ENDROOT
BRANCH  10   9
ATOM      4  C   UNL     1      36.635  48.550   9.887  0.00  0.00    +0.077 A 
ATOM      5  C   UNL     1      37.130  49.744  10.510  0.00  0.00    +0.048 A 
ATOM      6  C   UNL     1      37.309  50.878   9.687  0.00  0.00    +0.116 A 
ATOM      7  N   UNL     1      37.012  50.813   8.343  0.00  0.00    -0.223 NA
ATOM      8  C   UNL     1      36.538  49.645   7.774  0.00  0.00    +0.220 A 
ATOM      9  N   UNL     1      36.225  49.559   6.426  0.00  0.00    -0.283 N 
ATOM     36  H   UNL     1      35.885  48.677   6.043  0.00  0.00    +0.155 HD
ATOM     37  N   UNL     1      36.360  48.547   8.538  0.00  0.00    -0.214 NA
BRANCH   4   3
ATOM      1  C   UNL     1      34.873  45.493  11.577  0.00  0.00    +0.020 A 
ATOM      2  C   UNL     1      35.055  46.734  10.859  0.00  0.00    +0.013 A 
ATOM      3  C   UNL     1      36.390  47.270  10.624  0.00  0.00    +0.019 A 
ATOM     38  C   UNL     1      37.529  46.519  11.131  0.00  0.00    +0.120 A 
ATOM     39  N   UNL     1      37.323  45.328  11.820  0.00  0.00    -0.263 NA
ATOM     40  C   UNL     1      36.043  44.803  12.054  0.00  0.00    +0.111 A 
ENDBRANCH   4   3
ENDBRANCH  10   9
BRANCH  12  13
ATOM     13  N   UNL     1      39.189  52.644   3.886  0.00  0.00    -0.281 N 
ATOM     14  C   UNL     1      40.404  52.480   4.530  0.00  0.00    +0.248 C 
ATOM     30  O   UNL     1      40.529  52.115   5.689  0.00  0.00    -0.270 OA
ATOM     31  H   UNL     1      39.217  53.136   2.993  0.00  0.00    +0.155 HD
BRANCH  14  15
ATOM     15  C   UNL     1      41.663  52.779   3.782  0.00  0.00    +0.037 A 
ATOM     16  C   UNL     1      42.920  52.100   4.108  0.00  0.00    +0.013 A 
ATOM     17  C   UNL     1      44.124  52.420   3.382  0.00  0.00    +0.005 A 
ATOM     18  C   UNL     1      44.076  53.422   2.321  0.00  0.00    -0.033 A 
ATOM     28  C   UNL     1      42.815  54.076   2.015  0.00  0.00    +0.005 A 
ATOM     29  C   UNL     1      41.633  53.767   2.724  0.00  0.00    +0.013 A 
BRANCH  18  19
ATOM     19  C   UNL     1      45.316  53.841   1.509  0.00  0.00    +0.119 C 
BRANCH  19  20
ATOM     20  N   UNL     1      45.829  55.229   1.711  0.00  0.00    -0.302 NA
ATOM     21  C   UNL     1      45.343  55.835   3.031  0.00  0.00    +0.066 C 
ATOM     22  C   UNL     1      45.907  57.278   3.237  0.00  0.00    -0.064 C 
ATOM     23  N   UNL     1      45.496  58.157   2.054  0.00  0.00    +0.379 N 
ATOM     24  C   UNL     1      45.976  59.529   2.272  0.00  0.00    -0.096 C 
ATOM     25  H   UNL     1      44.382  58.188   2.026  0.00  0.00    -0.082 HD
ATOM     26  C   UNL     1      45.974  57.560   0.737  0.00  0.00    -0.064 C 
ATOM     27  C   UNL     1      45.431  56.115   0.556  0.00  0.00    +0.066 C 
ENDBRANCH  19  20
ENDBRANCH  18  19
ENDBRANCH  14  15
ENDBRANCH  12  13
TORSDOF 6
ENDMDL
MODEL 2
REMARK VINA RESULT:      -9.9      1.790      2.244
REMARK  Name = C:\Users\Docking\Desktop\test protocol\1iep_ligandH.pdb
REMARK  8 active torsions:
REMARK  status: ('A' for Active; 'I' for Inactive)
REMARK    1  A    between atoms: _5  and  _11
REMARK    2  A    between atoms: _19  and  _21
REMARK    3  A    between atoms: _22  and  _66
REMARK    4  A    between atoms: _27  and  _30
REMARK    5  A    between atoms: _32  and  _33
REMARK    6  A    between atoms: _38  and  _43
REMARK    7  A    between atoms: _43  and  _46
REMARK    8  A    between atoms: _53  and  _55
REMARK                            x       y       z     vdW  Elec       q    Type
REMARK                         _______ _______ _______ _____ _____    ______ ____
ROOT
ATOM     10  C   UNL     1      35.964  50.441   5.951  0.00  0.00    +0.038 A 
ATOM     11  C   UNL     1      37.334  50.620   5.631  0.00  0.00    +0.047 A 
ATOM     12  C   UNL     1      37.754  51.602   4.643  0.00  0.00    +0.035 A 
ATOM     32  C   UNL     1      36.751  52.386   4.002  0.00  0.00    +0.024 A 
ATOM     33  C   UNL     1      35.354  52.216   4.314  0.00  0.00    +0.007 A 
ATOM     34  C   UNL     1      34.934  51.247   5.286  0.00  0.00    -0.029 A 
ATOM     35  C   UNL     1      33.421  51.104   5.576  0.00  0.00    +0.045 C 
ENDROOT
BRANCH  10   9
ATOM      4  C   UNL     1      36.054  48.700  10.423  0.00  0.00    +0.077 A 
ATOM      5  C   UNL     1      36.885  49.774  10.887  0.00  0.00    +0.048 A 
ATOM      6  C   UNL     1      37.273  50.749   9.942  0.00  0.00    +0.116 A 
ATOM      7  N   UNL     1      36.855  50.649   8.633  0.00  0.00    -0.223 NA
ATOM      8  C   UNL     1      36.056  49.600   8.218  0.00  0.00    +0.220 A 
ATOM      9  N   UNL     1      35.617  49.484   6.908  0.00  0.00    -0.283 N 
ATOM     36  H   UNL     1      35.034  48.691   6.639  0.00  0.00    +0.155 HD
ATOM     37  N   UNL     1      35.673  48.655   9.101  0.00  0.00    -0.214 NA
BRANCH   4   3
ATOM      1  C   UNL     1      33.768  46.449  12.660  0.00  0.00    +0.020 A 
ATOM      2  C   UNL     1      34.196  47.539  11.815  0.00  0.00    +0.013 A 
ATOM      3  C   UNL     1      35.559  47.594  11.303  0.00  0.00    +0.019 A 
ATOM     38  C   UNL     1      36.472  46.521  11.667  0.00  0.00    +0.120 A 
ATOM     39  N   UNL     1      36.032  45.485  12.484  0.00  0.00    -0.263 NA
ATOM     40  C   UNL     1      34.723  45.422  12.984  0.00  0.00    +0.111 A 
ENDBRANCH   4   3
ENDBRANCH  10   9
BRANCH  12  13
ATOM     13  N   UNL     1      39.129  51.823   4.272  0.00  0.00    -0.281 N 
ATOM     14  C   UNL     1      39.658  52.885   3.557  0.00  0.00    +0.248 C 
ATOM     30  O   UNL     1      38.992  53.704   2.942  0.00  0.00    -0.270 OA
ATOM     31  H   UNL     1      39.794  51.109   4.572  0.00  0.00    +0.155 HD
BRANCH  14  15
ATOM     15  C   UNL     1      41.143  53.054   3.507  0.00  0.00    +0.037 A 
ATOM     16  C   UNL     1      41.765  54.052   2.634  0.00  0.00    +0.013 A 
ATOM     17  C   UNL     1      43.200  54.183   2.592  0.00  0.00    +0.005 A 
ATOM     18  C   UNL     1      44.023  53.312   3.429  0.00  0.00    -0.033 A 
ATOM     28  C   UNL     1      43.379  52.334   4.290  0.00  0.00    +0.005 A 
ATOM     29  C   UNL     1      41.973  52.203   4.333  0.00  0.00    +0.013 A 
BRANCH  18  19
ATOM     19  C   UNL     1      45.562  53.367   3.433  0.00  0.00    +0.119 C 
BRANCH  19  20
ATOM     20  N   UNL     1      46.210  54.311   4.392  0.00  0.00    -0.302 NA
ATOM     21  C   UNL     1      45.749  54.071   5.833  0.00  0.00    +0.066 C 
ATOM     22  C   UNL     1      46.454  55.052   6.826  0.00  0.00    -0.064 C 
ATOM     23  N   UNL     1      46.173  56.494   6.400  0.00  0.00    +0.379 N 
ATOM     24  C   UNL     1      46.786  57.419   7.365  0.00  0.00    -0.096 C 
ATOM     25  H   UNL     1      45.070  56.649   6.437  0.00  0.00    -0.082 HD
ATOM     26  C   UNL     1      46.626  56.740   4.967  0.00  0.00    -0.064 C 
ATOM     27  C   UNL     1      45.942  55.741   3.993  0.00  0.00    +0.066 C 
ENDBRANCH  19  20
ENDBRANCH  18  19
ENDBRANCH  14  15
ENDBRANCH  12  13
TORSDOF 6
ENDMDL
MODEL 3
REMARK VINA RESULT:      -9.9      2.020      2.925
REMARK  Name = C:\Users\Docking\Desktop\test protocol\1iep_ligandH.pdb
REMARK  8 active torsions:
REMARK  status: ('A' for Active; 'I' for Inactive)
REMARK    1  A    between atoms: _5  and  _11
REMARK    2  A    between atoms: _19  and  _21
REMARK    3  A    between atoms: _22  and  _66
REMARK    4  A    between atoms: _27  and  _30
REMARK    5  A    between atoms: _32  and  _33
REMARK    6  A    between atoms: _38  and  _43
REMARK    7  A    between atoms: _43  and  _46
REMARK    8  A    between atoms: _53  and  _55
REMARK                            x       y       z     vdW  Elec       q    Type
REMARK                         _______ _______ _______ _____ _____    ______ ____
ROOT
ATOM     10  C   UNL     1      36.628  50.704   5.606  0.00  0.00    +0.038 A 
ATOM     11  C   UNL     1      37.977  50.964   5.251  0.00  0.00    +0.047 A 
ATOM     12  C   UNL     1      38.324  52.076   4.380  0.00  0.00    +0.035 A 
ATOM     32  C   UNL     1      37.273  52.905   3.891  0.00  0.00    +0.024 A 
ATOM     33  C   UNL     1      35.897  52.654   4.240  0.00  0.00    +0.007 A 
ATOM     34  C   UNL     1      35.548  51.557   5.097  0.00  0.00    -0.029 A 
ATOM     35  C   UNL     1      34.055  51.331   5.433  0.00  0.00    +0.045 C 
ENDROOT
BRANCH  10   9
ATOM      4  C   UNL     1      36.480  48.635   9.934  0.00  0.00    +0.077 A 
ATOM      5  C   UNL     1      37.025  49.797  10.574  0.00  0.00    +0.048 A 
ATOM      6  C   UNL     1      37.337  50.904   9.752  0.00  0.00    +0.116 A 
ATOM      7  N   UNL     1      37.116  50.841   8.393  0.00  0.00    -0.223 NA
ATOM      8  C   UNL     1      36.590  49.704   7.808  0.00  0.00    +0.220 A 
ATOM      9  N   UNL     1      36.351  49.622   6.445  0.00  0.00    -0.283 N 
ATOM     36  H   UNL     1      35.969  48.763   6.051  0.00  0.00    +0.155 HD
ATOM     37  N   UNL     1      36.285  48.634   8.571  0.00  0.00    -0.214 NA
BRANCH   4   3
ATOM      1  C   UNL     1      34.396  45.761  11.576  0.00  0.00    +0.020 A 
ATOM      2  C   UNL     1      34.712  46.975  10.860  0.00  0.00    +0.013 A 
ATOM      3  C   UNL     1      36.097  47.387  10.667  0.00  0.00    +0.019 A 
ATOM     38  C   UNL     1      37.146  46.541  11.215  0.00  0.00    +0.120 A 
ATOM     39  N   UNL     1      36.811  45.377  11.901  0.00  0.00    -0.263 NA
ATOM     40  C   UNL     1      35.482  44.972  12.094  0.00  0.00    +0.111 A 
ENDBRANCH   4   3
ENDBRANCH  10   9
BRANCH  12  13
ATOM     13  N   UNL     1      39.675  52.385   3.980  0.00  0.00    -0.281 N 
ATOM     14  C   UNL     1      40.824  52.338   4.752  0.00  0.00    +0.248 C 
ATOM     30  O   UNL     1      40.835  52.229   5.969  0.00  0.00    -0.270 OA
ATOM     31  H   UNL     1      39.798  52.672   3.009  0.00  0.00    +0.155 HD
BRANCH  14  15
ATOM     15  C   UNL     1      42.153  52.442   4.076  0.00  0.00    +0.037 A 
ATOM     16  C   UNL     1      43.266  51.566   4.449  0.00  0.00    +0.013 A 
ATOM     17  C   UNL     1      44.542  51.699   3.792  0.00  0.00    +0.005 A 
ATOM     18  C   UNL     1      44.712  52.713   2.755  0.00  0.00    -0.033 A 
ATOM     28  C   UNL     1      43.589  53.566   2.401  0.00  0.00    +0.005 A 
ATOM     29  C   UNL     1      42.337  53.439   3.043  0.00  0.00    +0.013 A 
BRANCH  18  19
ATOM     19  C   UNL     1      46.045  52.939   2.017  0.00  0.00    +0.119 C 
BRANCH  19  20
ATOM     20  N   UNL     1      46.106  52.540   0.579  0.00  0.00    -0.302 NA
ATOM     21  C   UNL     1      46.485  51.067   0.408  0.00  0.00    +0.066 C 
ATOM     22  C   UNL     1      46.523  50.660  -1.102  0.00  0.00    -0.064 C 
ATOM     23  N   UNL     1      47.509  51.563  -1.845  0.00  0.00    +0.379 N 
ATOM     24  C   UNL     1      47.591  51.146  -3.253  0.00  0.00    -0.096 C 
ATOM     25  H   UNL     1      48.515  51.413  -1.389  0.00  0.00    -0.082 HD
ATOM     26  C   UNL     1      47.142  53.030  -1.678  0.00  0.00    -0.064 C 
ATOM     27  C   UNL     1      47.078  53.416  -0.174  0.00  0.00    +0.066 C 
ENDBRANCH  19  20
ENDBRANCH  18  19
ENDBRANCH  14  15
ENDBRANCH  12  13
TORSDOF 6
ENDMDL
MODEL 4
REMARK VINA RESULT:      -9.6      2.593      3.367
REMARK  Name = C:\Users\Docking\Desktop\test protocol\1iep_ligandH.pdb
REMARK  8 active torsions:
REMARK  status: ('A' for Active; 'I' for Inactive)
REMARK    1  A    between atoms: _5  and  _11
REMARK    2  A    between atoms: _19  and  _21
REMARK    3  A    between atoms: _22  and  _66
REMARK    4  A    between atoms: _27  and  _30
REMARK    5  A    between atoms: _32  and  _33
REMARK    6  A    between atoms: _38  and  _43
REMARK    7  A    between atoms: _43  and  _46
REMARK    8  A    between atoms: _53  and  _55
REMARK                            x       y       z     vdW  Elec       q    Type
REMARK                         _______ _______ _______ _____ _____    ______ ____
ROOT
ATOM     10  C   UNL     1      36.237  50.435   5.905  0.00  0.00    +0.038 A 
ATOM     11  C   UNL     1      37.621  50.462   5.595  0.00  0.00    +0.047 A 
ATOM     12  C   UNL     1      38.153  51.391   4.610  0.00  0.00    +0.035 A 
ATOM     32  C   UNL     1      37.248  52.281   3.963  0.00  0.00    +0.024 A 
ATOM     33  C   UNL     1      35.838  52.267   4.265  0.00  0.00    +0.007 A 
ATOM     34  C   UNL     1      35.307  51.351   5.234  0.00  0.00    -0.029 A 
ATOM     35  C   UNL     1      33.786  51.375   5.514  0.00  0.00    +0.045 C 
ENDROOT
BRANCH  10   9
ATOM      4  C   UNL     1      35.970  48.795  10.408  0.00  0.00    +0.077 A 
ATOM      5  C   UNL     1      36.836  49.829  10.899  0.00  0.00    +0.048 A 
ATOM      6  C   UNL     1      37.335  50.758   9.958  0.00  0.00    +0.116 A 
ATOM      7  N   UNL     1      36.986  50.652   8.629  0.00  0.00    -0.223 NA
ATOM      8  C   UNL     1      36.150  49.643   8.189  0.00  0.00    +0.220 A 
ATOM      9  N   UNL     1      35.780  49.522   6.859  0.00  0.00    -0.283 N 
ATOM     36  H   UNL     1      35.167  48.759   6.573  0.00  0.00    +0.155 HD
ATOM     37  N   UNL     1      35.662  48.742   9.067  0.00  0.00    -0.214 NA
BRANCH   4   3
ATOM      1  C   UNL     1      33.432  46.739  12.560  0.00  0.00    +0.020 A 
ATOM      2  C   UNL     1      33.972  47.783  11.720  0.00  0.00    +0.013 A 
ATOM      3  C   UNL     1      35.361  47.741  11.279  0.00  0.00    +0.019 A 
ATOM     38  C   UNL     1      36.183  46.620  11.709  0.00  0.00    +0.120 A 
ATOM     39  N   UNL     1      35.636  45.630  12.520  0.00  0.00    -0.263 NA
ATOM     40  C   UNL     1      34.301  45.660  12.951  0.00  0.00    +0.111 A 
ENDBRANCH   4   3
ENDBRANCH  10   9
BRANCH  12  13
ATOM     13  N   UNL     1      39.547  51.458   4.248  0.00  0.00    -0.281 N 
ATOM     14  C   UNL     1      40.361  52.578   4.197  0.00  0.00    +0.248 C 
ATOM     30  O   UNL     1      39.955  53.730   4.250  0.00  0.00    -0.270 OA
ATOM     31  H   UNL     1      39.988  50.572   3.999  0.00  0.00    +0.155 HD
BRANCH  14  15
ATOM     15  C   UNL     1      41.837  52.393   4.053  0.00  0.00    +0.037 A 
ATOM     16  C   UNL     1      42.624  53.236   3.149  0.00  0.00    +0.013 A 
ATOM     17  C   UNL     1      44.043  53.024   3.016  0.00  0.00    +0.005 A 
ATOM     18  C   UNL     1      44.686  51.965   3.790  0.00  0.00    -0.033 A 
ATOM     28  C   UNL     1      43.882  51.147   4.683  0.00  0.00    +0.005 A 
ATOM     29  C   UNL     1      42.490  51.350   4.815  0.00  0.00    +0.013 A 
BRANCH  18  19
ATOM     19  C   UNL     1      46.191  51.655   3.694  0.00  0.00    +0.119 C 
BRANCH  19  20
ATOM     20  N   UNL     1      46.998  51.789   4.944  0.00  0.00    -0.302 NA
ATOM     21  C   UNL     1      46.872  53.185   5.561  0.00  0.00    +0.066 C 
ATOM     22  C   UNL     1      47.704  53.301   6.880  0.00  0.00    -0.064 C 
ATOM     23  N   UNL     1      49.168  52.968   6.587  0.00  0.00    +0.379 N 
ATOM     24  C   UNL     1      49.964  53.132   7.812  0.00  0.00    -0.096 C 
ATOM     25  H   UNL     1      49.540  53.707   5.840  0.00  0.00    -0.082 HD
ATOM     26  C   UNL     1      49.302  51.582   5.970  0.00  0.00    -0.064 C 
ATOM     27  C   UNL     1      48.448  51.468   4.677  0.00  0.00    +0.066 C 
ENDBRANCH  19  20
ENDBRANCH  18  19
ENDBRANCH  14  15
ENDBRANCH  12  13
TORSDOF 6
ENDMDL
MODEL 5
REMARK VINA RESULT:      -9.5      5.158      9.765
REMARK  Name = C:\Users\Docking\Desktop\test protocol\1iep_ligandH.pdb
REMARK  8 active torsions:
REMARK  status: ('A' for Active; 'I' for Inactive)
REMARK    1  A    between atoms: _5  and  _11
REMARK    2  A    between atoms: _19  and  _21
REMARK    3  A    between atoms: _22  and  _66
REMARK    4  A    between atoms: _27  and  _30
REMARK    5  A    between atoms: _32  and  _33
REMARK    6  A    between atoms: _38  and  _43
REMARK    7  A    between atoms: _43  and  _46
REMARK    8  A    between atoms: _53  and  _55
REMARK                            x       y       z     vdW  Elec       q    Type
REMARK                         _______ _______ _______ _____ _____    ______ ____
ROOT
ATOM     10  C   UNL     1      45.827  53.541   6.924  0.00  0.00    +0.038 A 
ATOM     11  C   UNL     1      46.014  54.946   6.871  0.00  0.00    +0.047 A 
ATOM     12  C   UNL     1      47.347  55.526   6.810  0.00  0.00    +0.035 A 
ATOM     32  C   UNL     1      48.467  54.645   6.802  0.00  0.00    +0.024 A 
ATOM     33  C   UNL     1      48.295  53.214   6.857  0.00  0.00    +0.007 A 
ATOM     34  C   UNL     1      46.983  52.637   6.920  0.00  0.00    -0.029 A 
ATOM     35  C   UNL     1      46.859  51.097   6.984  0.00  0.00    +0.045 C 
ENDROOT
BRANCH  10   9
ATOM      4  C   UNL     1      41.718  52.185   4.847  0.00  0.00    +0.077 A 
ATOM      5  C   UNL     1      42.195  52.532   3.540  0.00  0.00    +0.048 A 
ATOM      6  C   UNL     1      43.501  53.063   3.446  0.00  0.00    +0.116 A 
ATOM      7  N   UNL     1      44.264  53.230   4.581  0.00  0.00    -0.223 NA
ATOM      8  C   UNL     1      43.773  52.887   5.827  0.00  0.00    +0.220 A 
ATOM      9  N   UNL     1      44.525  53.039   6.982  0.00  0.00    -0.283 N 
ATOM     36  H   UNL     1      44.124  52.780   7.883  0.00  0.00    +0.155 HD
ATOM     37  N   UNL     1      42.528  52.379   5.944  0.00  0.00    -0.214 NA
BRANCH   4   3
ATOM      1  C   UNL     1      37.910  51.331   4.580  0.00  0.00    +0.020 A 
ATOM      2  C   UNL     1      39.199  51.914   4.284  0.00  0.00    +0.013 A 
ATOM      3  C   UNL     1      40.361  51.610   5.109  0.00  0.00    +0.019 A 
ATOM     38  C   UNL     1      40.184  50.705   6.235  0.00  0.00    +0.120 A 
ATOM     39  N   UNL     1      38.931  50.160   6.496  0.00  0.00    -0.263 NA
ATOM     40  C   UNL     1      37.805  50.447   5.710  0.00  0.00    +0.111 A 
ENDBRANCH   4   3
ENDBRANCH  10   9
BRANCH  12  13
ATOM     13  N   UNL     1      47.599  56.945   6.762  0.00  0.00    -0.281 N 
ATOM     14  C   UNL     1      47.185  57.851   5.799  0.00  0.00    +0.248 C 
ATOM     30  O   UNL     1      46.713  57.541   4.715  0.00  0.00    -0.270 OA
ATOM     31  H   UNL     1      48.149  57.327   7.531  0.00  0.00    +0.155 HD
BRANCH  14  15
ATOM     15  C   UNL     1      47.330  59.313   6.075  0.00  0.00    +0.037 A 
ATOM     16  C   UNL     1      47.278  60.299   4.992  0.00  0.00    +0.013 A 
ATOM     17  C   UNL     1      47.438  61.702   5.283  0.00  0.00    +0.005 A 
ATOM     18  C   UNL     1      47.648  62.127   6.665  0.00  0.00    -0.033 A 
ATOM     28  C   UNL     1      47.690  61.128   7.720  0.00  0.00    +0.005 A 
ATOM     29  C   UNL     1      47.535  59.752   7.438  0.00  0.00    +0.013 A 
BRANCH  18  19
ATOM     19  C   UNL     1      47.849  63.601   7.065  0.00  0.00    +0.119 C 
BRANCH  19  20
ATOM     20  N   UNL     1      47.768  64.622   5.978  0.00  0.00    -0.302 NA
ATOM     21  C   UNL     1      48.802  65.737   6.159  0.00  0.00    +0.066 C 
ATOM     22  C   UNL     1      48.718  66.784   5.001  0.00  0.00    -0.064 C 
ATOM     23  N   UNL     1      47.303  67.362   4.941  0.00  0.00    +0.379 N 
ATOM     24  C   UNL     1      47.237  68.389   3.891  0.00  0.00    -0.096 C 
ATOM     25  H   UNL     1      47.101  67.862   5.917  0.00  0.00    -0.082 HD
ATOM     26  C   UNL     1      46.268  66.259   4.764  0.00  0.00    -0.064 C 
ATOM     27  C   UNL     1      46.380  65.209   5.904  0.00  0.00    +0.066 C 
ENDBRANCH  19  20
ENDBRANCH  18  19
ENDBRANCH  14  15
ENDBRANCH  12  13
TORSDOF 6
ENDMDL
