MODEL 1
REMARK VINA RESULT:      -9.0      0.000      0.000
REMARK  Name = C:\Users\Docking\Desktop\test protocol\1iep_ligandH.pdb
REMARK  8 active torsions:
REMARK  status: ('A' for Active; 'I' for Inactive)
REMARK    1  A    between atoms: _5  and  _11
REMARK    2  A    between atoms: _19  and  _21
REMARK    3  A    between atoms: _22  and  _66
REMARK    4  A    between atoms: _27  and  _30
REMARK    5  A    between atoms: _32  and  _33
REMARK    6  A    between atoms: _38  and  _43
REMARK    7  A    between atoms: _43  and  _46
REMARK    8  A    between atoms: _53  and  _55
REMARK                            x       y       z     vdW  Elec       q    Type
REMARK                         _______ _______ _______ _____ _____    ______ ____
ROOT
ATOM     10  C   UNL     1      18.817  17.470  12.224  0.00  0.00    +0.038 A 
ATOM     11  C   UNL     1      18.922  18.797  12.713  0.00  0.00    +0.047 A 
ATOM     12  C   UNL     1      18.933  19.934  11.806  0.00  0.00    +0.035 A 
ATOM     32  C   UNL     1      18.831  19.683  10.407  0.00  0.00    +0.024 A 
ATOM     33  C   UNL     1      18.725  18.341   9.892  0.00  0.00    +0.007 A 
ATOM     34  C   UNL     1      18.716  17.215  10.782  0.00  0.00    -0.029 A 
ATOM     35  C   UNL     1      18.606  15.797  10.175  0.00  0.00    +0.045 C 
ENDROOT
BRANCH  10   9
ATOM      4  C   UNL     1      16.591  14.601  15.364  0.00  0.00    +0.077 A 
ATOM      5  C   UNL     1      15.339  15.278  15.185  0.00  0.00    +0.048 A 
ATOM      6  C   UNL     1      15.312  16.364  14.281  0.00  0.00    +0.116 A 
ATOM      7  N   UNL     1      16.458  16.736  13.611  0.00  0.00    -0.223 NA
ATOM      8  C   UNL     1      17.649  16.063  13.809  0.00  0.00    +0.220 A 
ATOM      9  N   UNL     1      18.812  16.415  13.140  0.00  0.00    -0.283 N 
ATOM     36  H   UNL     1      19.672  15.899  13.319  0.00  0.00    +0.155 HD
ATOM     37  N   UNL     1      17.702  15.024  14.667  0.00  0.00    -0.214 NA
BRANCH   4   3
ATOM      1  C   UNL     1      15.903  11.615  17.794  0.00  0.00    +0.020 A 
ATOM      2  C   UNL     1      15.667  12.737  16.916  0.00  0.00    +0.013 A 
ATOM      3  C   UNL     1      16.780  13.434  16.282  0.00  0.00    +0.019 A 
ATOM     38  C   UNL     1      18.129  12.965  16.559  0.00  0.00    +0.120 A 
ATOM     39  N   UNL     1      18.326  11.882  17.410  0.00  0.00    -0.263 NA
ATOM     40  C   UNL     1      17.263  11.205  18.027  0.00  0.00    +0.111 A 
ENDBRANCH   4   3
ENDBRANCH  10   9
BRANCH  12  13
ATOM     13  N   UNL     1      19.045  21.304  12.244  0.00  0.00    -0.281 N 
ATOM     14  C   UNL     1      18.102  22.063  12.916  0.00  0.00    +0.248 C 
ATOM     30  O   UNL     1      16.931  21.745  13.057  0.00  0.00    -0.270 OA
ATOM     31  H   UNL     1      19.928  21.770  12.032  0.00  0.00    +0.155 HD
BRANCH  14  15
ATOM     15  C   UNL     1      18.517  23.372  13.506  0.00  0.00    +0.037 A 
ATOM     16  C   UNL     1      18.884  24.507  12.656  0.00  0.00    +0.013 A 
ATOM     17  C   UNL     1      19.297  25.753  13.251  0.00  0.00    +0.005 A 
ATOM     18  C   UNL     1      19.342  25.872  14.706  0.00  0.00    -0.033 A 
ATOM     28  C   UNL     1      18.967  24.732  15.526  0.00  0.00    +0.005 A 
ATOM     29  C   UNL     1      18.563  23.508  14.947  0.00  0.00    +0.013 A 
BRANCH  18  19
ATOM     19  C   UNL     1      19.791  27.157  15.427  0.00  0.00    +0.119 C 
BRANCH  19  20
ATOM     20  N   UNL     1      21.209  27.222  15.890  0.00  0.00    -0.302 NA
ATOM     21  C   UNL     1      22.183  26.690  14.835  0.00  0.00    +0.066 C 
ATOM     22  C   UNL     1      23.664  26.786  15.328  0.00  0.00    -0.064 C 
ATOM     23  N   UNL     1      23.813  26.014  16.640  0.00  0.00    +0.379 N 
ATOM     24  C   UNL     1      25.216  26.054  17.076  0.00  0.00    -0.096 C 
ATOM     25  H   UNL     1      23.551  24.950  16.438  0.00  0.00    -0.082 HD
ATOM     26  C   UNL     1      22.846  26.535  17.694  0.00  0.00    -0.064 C 
ATOM     27  C   UNL     1      21.380  26.463  17.183  0.00  0.00    +0.066 C 
ENDBRANCH  19  20
ENDBRANCH  18  19
ENDBRANCH  14  15
ENDBRANCH  12  13
TORSDOF 6
ENDMDL
MODEL 2
REMARK VINA RESULT:      -9.0      3.707     10.247
REMARK  Name = C:\Users\Docking\Desktop\test protocol\1iep_ligandH.pdb
REMARK  8 active torsions:
REMARK  status: ('A' for Active; 'I' for Inactive)
REMARK    1  A    between atoms: _5  and  _11
REMARK    2  A    between atoms: _19  and  _21
REMARK    3  A    between atoms: _22  and  _66
REMARK    4  A    between atoms: _27  and  _30
REMARK    5  A    between atoms: _32  and  _33
REMARK    6  A    between atoms: _38  and  _43
REMARK    7  A    between atoms: _43  and  _46
REMARK    8  A    between atoms: _53  and  _55
REMARK                            x       y       z     vdW  Elec       q    Type
REMARK                         _______ _______ _______ _____ _____    ______ ____
ROOT
ATOM     10  C   UNL     1      19.138  23.855  14.259  0.00  0.00    +0.038 A 
ATOM     11  C   UNL     1      19.385  22.544  13.777  0.00  0.00    +0.047 A 
ATOM     12  C   UNL     1      19.182  22.206  12.377  0.00  0.00    +0.035 A 
ATOM     32  C   UNL     1      18.728  23.229  11.494  0.00  0.00    +0.024 A 
ATOM     33  C   UNL     1      18.471  24.567  11.967  0.00  0.00    +0.007 A 
ATOM     34  C   UNL     1      18.668  24.905  13.347  0.00  0.00    -0.029 A 
ATOM     35  C   UNL     1      18.371  26.354  13.800  0.00  0.00    +0.045 C 
ENDROOT
BRANCH  10   9
ATOM      4  C   UNL     1      18.518  22.876  18.916  0.00  0.00    +0.077 A 
ATOM      5  C   UNL     1      17.678  21.749  18.628  0.00  0.00    +0.048 A 
ATOM      6  C   UNL     1      17.425  21.459  17.269  0.00  0.00    +0.116 A 
ATOM      7  N   UNL     1      17.975  22.244  16.279  0.00  0.00    -0.223 NA
ATOM      8  C   UNL     1      18.780  23.325  16.592  0.00  0.00    +0.220 A 
ATOM      9  N   UNL     1      19.350  24.124  15.613  0.00  0.00    -0.283 N 
ATOM     36  H   UNL     1      19.932  24.916  15.884  0.00  0.00    +0.155 HD
ATOM     37  N   UNL     1      19.036  23.624  17.882  0.00  0.00    -0.214 NA
BRANCH   4   3
ATOM      1  C   UNL     1      18.760  23.096  22.814  0.00  0.00    +0.020 A 
ATOM      2  C   UNL     1      18.378  22.640  21.498  0.00  0.00    +0.013 A 
ATOM      3  C   UNL     1      18.881  23.307  20.303  0.00  0.00    +0.019 A 
ATOM     38  C   UNL     1      19.775  24.442  20.477  0.00  0.00    +0.120 A 
ATOM     39  N   UNL     1      20.124  24.859  21.758  0.00  0.00    -0.263 NA
ATOM     40  C   UNL     1      19.646  24.226  22.915  0.00  0.00    +0.111 A 
ENDBRANCH   4   3
ENDBRANCH  10   9
BRANCH  12  13
ATOM     13  N   UNL     1      19.408  20.890  11.832  0.00  0.00    -0.281 N 
ATOM     14  C   UNL     1      20.528  20.089  11.979  0.00  0.00    +0.248 C 
ATOM     30  O   UNL     1      21.598  20.472  12.428  0.00  0.00    -0.270 OA
ATOM     31  H   UNL     1      18.650  20.503  11.269  0.00  0.00    +0.155 HD
BRANCH  14  15
ATOM     15  C   UNL     1      20.453  18.658  11.553  0.00  0.00    +0.037 A 
ATOM     16  C   UNL     1      21.589  17.751  11.734  0.00  0.00    +0.013 A 
ATOM     17  C   UNL     1      21.496  16.380  11.298  0.00  0.00    +0.005 A 
ATOM     18  C   UNL     1      20.261  15.908  10.678  0.00  0.00    -0.033 A 
ATOM     28  C   UNL     1      19.148  16.828  10.514  0.00  0.00    +0.005 A 
ATOM     29  C   UNL     1      19.235  18.172  10.939  0.00  0.00    +0.013 A 
BRANCH  18  19
ATOM     19  C   UNL     1      20.081  14.467  10.163  0.00  0.00    +0.119 C 
BRANCH  19  20
ATOM     20  N   UNL     1      20.187  13.365  11.166  0.00  0.00    -0.302 NA
ATOM     21  C   UNL     1      19.633  13.776  12.533  0.00  0.00    +0.066 C 
ATOM     22  C   UNL     1      19.732  12.604  13.563  0.00  0.00    -0.064 C 
ATOM     23  N   UNL     1      21.189  12.155  13.682  0.00  0.00    +0.379 N 
ATOM     24  C   UNL     1      21.294  11.093  14.693  0.00  0.00    -0.096 C 
ATOM     25  H   UNL     1      21.782  13.027  14.045  0.00  0.00    -0.082 HD
ATOM     26  C   UNL     1      21.749  11.747  12.327  0.00  0.00    -0.064 C 
ATOM     27  C   UNL     1      21.619  12.909  11.303  0.00  0.00    +0.066 C 
ENDBRANCH  19  20
ENDBRANCH  18  19
ENDBRANCH  14  15
ENDBRANCH  12  13
TORSDOF 6
ENDMDL
MODEL 3
REMARK VINA RESULT:      -8.8      9.926     14.331
REMARK  Name = C:\Users\Docking\Desktop\test protocol\1iep_ligandH.pdb
REMARK  8 active torsions:
REMARK  status: ('A' for Active; 'I' for Inactive)
REMARK    1  A    between atoms: _5  and  _11
REMARK    2  A    between atoms: _19  and  _21
REMARK    3  A    between atoms: _22  and  _66
REMARK    4  A    between atoms: _27  and  _30
REMARK    5  A    between atoms: _32  and  _33
REMARK    6  A    between atoms: _38  and  _43
REMARK    7  A    between atoms: _43  and  _46
REMARK    8  A    between atoms: _53  and  _55
REMARK                            x       y       z     vdW  Elec       q    Type
REMARK                         _______ _______ _______ _____ _____    ______ ____
ROOT
ATOM     10  C   UNL     1       8.938  25.727  19.223  0.00  0.00    +0.038 A 
ATOM     11  C   UNL     1      10.163  25.393  18.591  0.00  0.00    +0.047 A 
ATOM     12  C   UNL     1      10.685  24.036  18.630  0.00  0.00    +0.035 A 
ATOM     32  C   UNL     1       9.932  23.042  19.321  0.00  0.00    +0.024 A 
ATOM     33  C   UNL     1       8.686  23.364  19.971  0.00  0.00    +0.007 A 
ATOM     34  C   UNL     1       8.167  24.702  19.937  0.00  0.00    -0.029 A 
ATOM     35  C   UNL     1       6.829  24.991  20.657  0.00  0.00    +0.045 C 
ENDROOT
BRANCH  10   9
ATOM      4  C   UNL     1       8.146  30.039  21.176  0.00  0.00    +0.077 A 
ATOM      5  C   UNL     1       8.656  29.621  22.451  0.00  0.00    +0.048 A 
ATOM      6  C   UNL     1       9.106  28.287  22.564  0.00  0.00    +0.116 A 
ATOM      7  N   UNL     1       9.045  27.442  21.477  0.00  0.00    -0.223 NA
ATOM      8  C   UNL     1       8.546  27.876  20.262  0.00  0.00    +0.220 A 
ATOM      9  N   UNL     1       8.484  27.046  19.154  0.00  0.00    -0.283 N 
ATOM     36  H   UNL     1       8.102  27.402  18.278  0.00  0.00    +0.155 HD
ATOM     37  N   UNL     1       8.109  29.146  20.129  0.00  0.00    -0.214 NA
BRANCH   4   3
ATOM      1  C   UNL     1       6.112  33.375  21.360  0.00  0.00    +0.020 A 
ATOM      2  C   UNL     1       6.566  32.039  21.669  0.00  0.00    +0.013 A 
ATOM      3  C   UNL     1       7.637  31.419  20.899  0.00  0.00    +0.019 A 
ATOM     38  C   UNL     1       8.232  32.185  19.814  0.00  0.00    +0.120 A 
ATOM     39  N   UNL     1       7.773  33.470  19.538  0.00  0.00    -0.263 NA
ATOM     40  C   UNL     1       6.742  34.075  20.272  0.00  0.00    +0.111 A 
ENDBRANCH   4   3
ENDBRANCH  10   9
BRANCH  12  13
ATOM     13  N   UNL     1      11.926  23.640  18.013  0.00  0.00    -0.281 N 
ATOM     14  C   UNL     1      12.104  22.878  16.870  0.00  0.00    +0.248 C 
ATOM     30  O   UNL     1      11.219  22.240  16.320  0.00  0.00    -0.270 OA
ATOM     31  H   UNL     1      12.778  23.959  18.476  0.00  0.00    +0.155 HD
BRANCH  14  15
ATOM     15  C   UNL     1      13.465  22.804  16.256  0.00  0.00    +0.037 A 
ATOM     16  C   UNL     1      14.667  23.114  17.034  0.00  0.00    +0.013 A 
ATOM     17  C   UNL     1      15.967  23.051  16.413  0.00  0.00    +0.005 A 
ATOM     18  C   UNL     1      16.070  22.675  15.005  0.00  0.00    -0.033 A 
ATOM     28  C   UNL     1      14.861  22.368  14.258  0.00  0.00    +0.005 A 
ATOM     29  C   UNL     1      13.586  22.430  14.863  0.00  0.00    +0.013 A 
BRANCH  18  19
ATOM     19  C   UNL     1      17.413  22.603  14.255  0.00  0.00    +0.119 C 
BRANCH  19  20
ATOM     20  N   UNL     1      17.605  21.468  13.303  0.00  0.00    -0.302 NA
ATOM     21  C   UNL     1      17.844  20.142  14.030  0.00  0.00    +0.066 C 
ATOM     22  C   UNL     1      18.020  18.962  13.019  0.00  0.00    -0.064 C 
ATOM     23  N   UNL     1      19.177  19.276  12.070  0.00  0.00    +0.379 N 
ATOM     24  C   UNL     1      19.383  18.143  11.155  0.00  0.00    -0.096 C 
ATOM     25  H   UNL     1      20.100  19.385  12.686  0.00  0.00    -0.082 HD
ATOM     26  C   UNL     1      18.949  20.595  11.345  0.00  0.00    -0.064 C 
ATOM     27  C   UNL     1      18.746  21.755  12.358  0.00  0.00    +0.066 C 
ENDBRANCH  19  20
ENDBRANCH  18  19
ENDBRANCH  14  15
ENDBRANCH  12  13
TORSDOF 6
ENDMDL
MODEL 4
REMARK VINA RESULT:      -8.7      1.885      2.178
REMARK  Name = C:\Users\Docking\Desktop\test protocol\1iep_ligandH.pdb
REMARK  8 active torsions:
REMARK  status: ('A' for Active; 'I' for Inactive)
REMARK    1  A    between atoms: _5  and  _11
REMARK    2  A    between atoms: _19  and  _21
REMARK    3  A    between atoms: _22  and  _66
REMARK    4  A    between atoms: _27  and  _30
REMARK    5  A    between atoms: _32  and  _33
REMARK    6  A    between atoms: _38  and  _43
REMARK    7  A    between atoms: _43  and  _46
REMARK    8  A    between atoms: _53  and  _55
REMARK                            x       y       z     vdW  Elec       q    Type
REMARK                         _______ _______ _______ _____ _____    ______ ____
ROOT
ATOM     10  C   UNL     1      17.855  18.177  12.916  0.00  0.00    +0.038 A 
ATOM     11  C   UNL     1      18.170  19.488  13.358  0.00  0.00    +0.047 A 
ATOM     12  C   UNL     1      18.670  20.494  12.434  0.00  0.00    +0.035 A 
ATOM     32  C   UNL     1      18.835  20.131  11.065  0.00  0.00    +0.024 A 
ATOM     33  C   UNL     1      18.521  18.803  10.599  0.00  0.00    +0.007 A 
ATOM     34  C   UNL     1      18.030  17.806  11.506  0.00  0.00    -0.029 A 
ATOM     35  C   UNL     1      17.715  16.397  10.952  0.00  0.00    +0.045 C 
ENDROOT
BRANCH  10   9
ATOM      4  C   UNL     1      14.851  16.861  16.420  0.00  0.00    +0.077 A 
ATOM      5  C   UNL     1      14.193  18.136  16.416  0.00  0.00    +0.048 A 
ATOM      6  C   UNL     1      14.663  19.106  15.501  0.00  0.00    +0.116 A 
ATOM      7  N   UNL     1      15.713  18.811  14.659  0.00  0.00    -0.223 NA
ATOM      8  C   UNL     1      16.326  17.572  14.690  0.00  0.00    +0.220 A 
ATOM      9  N   UNL     1      17.378  17.251  13.846  0.00  0.00    -0.283 N 
ATOM     36  H   UNL     1      17.808  16.328  13.905  0.00  0.00    +0.155 HD
ATOM     37  N   UNL     1      15.897  16.629  15.555  0.00  0.00    -0.214 NA
BRANCH   4   3
ATOM      1  C   UNL     1      14.002  14.753  19.604  0.00  0.00    +0.020 A 
ATOM      2  C   UNL     1      14.377  15.875  18.774  0.00  0.00    +0.013 A 
ATOM      3  C   UNL     1      14.467  15.733  17.326  0.00  0.00    +0.019 A 
ATOM     38  C   UNL     1      14.167  14.433  16.745  0.00  0.00    +0.120 A 
ATOM     39  N   UNL     1      13.810  13.371  17.570  0.00  0.00    -0.263 NA
ATOM     40  C   UNL     1      13.722  13.495  18.964  0.00  0.00    +0.111 A 
ENDBRANCH   4   3
ENDBRANCH  10   9
BRANCH  12  13
ATOM     13  N   UNL     1      19.014  21.838  12.826  0.00  0.00    -0.281 N 
ATOM     14  C   UNL     1      18.195  22.791  13.409  0.00  0.00    +0.248 C 
ATOM     30  O   UNL     1      16.978  22.702  13.486  0.00  0.00    -0.270 OA
ATOM     31  H   UNL     1      19.978  22.121  12.653  0.00  0.00    +0.155 HD
BRANCH  14  15
ATOM     15  C   UNL     1      18.815  24.027  13.975  0.00  0.00    +0.037 A 
ATOM     16  C   UNL     1      19.445  25.026  13.108  0.00  0.00    +0.013 A 
ATOM     17  C   UNL     1      20.051  26.202  13.681  0.00  0.00    +0.005 A 
ATOM     18  C   UNL     1      20.028  26.385  15.131  0.00  0.00    -0.033 A 
ATOM     28  C   UNL     1      19.391  25.381  15.967  0.00  0.00    +0.005 A 
ATOM     29  C   UNL     1      18.797  24.227  15.408  0.00  0.00    +0.013 A 
BRANCH  18  19
ATOM     19  C   UNL     1      20.668  27.599  15.830  0.00  0.00    +0.119 C 
BRANCH  19  20
ATOM     20  N   UNL     1      22.095  27.470  16.254  0.00  0.00    -0.302 NA
ATOM     21  C   UNL     1      22.986  26.955  15.120  0.00  0.00    +0.066 C 
ATOM     22  C   UNL     1      24.478  26.848  15.573  0.00  0.00    -0.064 C 
ATOM     23  N   UNL     1      24.573  25.932  16.794  0.00  0.00    +0.379 N 
ATOM     24  C   UNL     1      25.982  25.782  17.187  0.00  0.00    -0.096 C 
ATOM     25  H   UNL     1      24.197  24.926  16.492  0.00  0.00    -0.082 HD
ATOM     26  C   UNL     1      23.687  26.434  17.925  0.00  0.00    -0.064 C 
ATOM     27  C   UNL     1      22.212  26.565  17.456  0.00  0.00    +0.066 C 
ENDBRANCH  19  20
ENDBRANCH  18  19
ENDBRANCH  14  15
ENDBRANCH  12  13
TORSDOF 6
ENDMDL
MODEL 5
REMARK VINA RESULT:      -8.7      3.886     10.330
REMARK  Name = C:\Users\Docking\Desktop\test protocol\1iep_ligandH.pdb
REMARK  8 active torsions:
REMARK  status: ('A' for Active; 'I' for Inactive)
REMARK    1  A    between atoms: _5  and  _11
REMARK    2  A    between atoms: _19  and  _21
REMARK    3  A    between atoms: _22  and  _66
REMARK    4  A    between atoms: _27  and  _30
REMARK    5  A    between atoms: _32  and  _33
REMARK    6  A    between atoms: _38  and  _43
REMARK    7  A    between atoms: _43  and  _46
REMARK    8  A    between atoms: _53  and  _55
REMARK                            x       y       z     vdW  Elec       q    Type
REMARK                         _______ _______ _______ _____ _____    ______ ____
ROOT
ATOM     10  C   UNL     1      18.925  23.763  14.344  0.00  0.00    +0.038 A 
ATOM     11  C   UNL     1      19.160  22.452  13.856  0.00  0.00    +0.047 A 
ATOM     12  C   UNL     1      19.145  22.166  12.430  0.00  0.00    +0.035 A 
ATOM     32  C   UNL     1      18.891  23.241  11.528  0.00  0.00    +0.024 A 
ATOM     33  C   UNL     1      18.649  24.579  12.007  0.00  0.00    +0.007 A 
ATOM     34  C   UNL     1      18.659  24.866  13.413  0.00  0.00    -0.029 A 
ATOM     35  C   UNL     1      18.387  26.318  13.870  0.00  0.00    +0.045 C 
ENDROOT
BRANCH  10   9
ATOM      4  C   UNL     1      16.880  23.652  18.685  0.00  0.00    +0.077 A 
ATOM      5  C   UNL     1      15.647  23.142  18.157  0.00  0.00    +0.048 A 
ATOM      6  C   UNL     1      15.578  22.929  16.761  0.00  0.00    +0.116 A 
ATOM      7  N   UNL     1      16.667  23.208  15.964  0.00  0.00    -0.223 NA
ATOM      8  C   UNL     1      17.840  23.700  16.506  0.00  0.00    +0.220 A 
ATOM      9  N   UNL     1      18.950  23.980  15.724  0.00  0.00    -0.283 N 
ATOM     36  H   UNL     1      19.795  24.349  16.160  0.00  0.00    +0.155 HD
ATOM     37  N   UNL     1      17.931  23.913  17.835  0.00  0.00    -0.214 NA
BRANCH   4   3
ATOM      1  C   UNL     1      16.314  24.566  22.446  0.00  0.00    +0.020 A 
ATOM      2  C   UNL     1      16.039  24.314  21.050  0.00  0.00    +0.013 A 
ATOM      3  C   UNL     1      17.109  23.926  20.139  0.00  0.00    +0.019 A 
ATOM     38  C   UNL     1      18.455  23.800  20.676  0.00  0.00    +0.120 A 
ATOM     39  N   UNL     1      18.690  24.052  22.025  0.00  0.00    -0.263 NA
ATOM     40  C   UNL     1      17.669  24.427  22.911  0.00  0.00    +0.111 A 
ENDBRANCH   4   3
ENDBRANCH  10   9
BRANCH  12  13
ATOM     13  N   UNL     1      19.369  20.854  11.876  0.00  0.00    -0.281 N 
ATOM     14  C   UNL     1      20.511  20.075  11.966  0.00  0.00    +0.248 C 
ATOM     30  O   UNL     1      21.595  20.480  12.358  0.00  0.00    -0.270 OA
ATOM     31  H   UNL     1      18.591  20.450  11.354  0.00  0.00    +0.155 HD
BRANCH  14  15
ATOM     15  C   UNL     1      20.443  18.642  11.546  0.00  0.00    +0.037 A 
ATOM     16  C   UNL     1      21.567  17.730  11.771  0.00  0.00    +0.013 A 
ATOM     17  C   UNL     1      21.481  16.357  11.341  0.00  0.00    +0.005 A 
ATOM     18  C   UNL     1      20.265  15.887  10.683  0.00  0.00    -0.033 A 
ATOM     28  C   UNL     1      19.162  16.812  10.477  0.00  0.00    +0.005 A 
ATOM     29  C   UNL     1      19.243  18.159  10.896  0.00  0.00    +0.013 A 
BRANCH  18  19
ATOM     19  C   UNL     1      20.094  14.444  10.172  0.00  0.00    +0.119 C 
BRANCH  19  20
ATOM     20  N   UNL     1      20.221  13.344  11.174  0.00  0.00    -0.302 NA
ATOM     21  C   UNL     1      19.680  13.753  12.547  0.00  0.00    +0.066 C 
ATOM     22  C   UNL     1      19.800  12.584  13.578  0.00  0.00    -0.064 C 
ATOM     23  N   UNL     1      21.262  12.146  13.680  0.00  0.00    +0.379 N 
ATOM     24  C   UNL     1      21.388  11.086  14.691  0.00  0.00    -0.096 C 
ATOM     25  H   UNL     1      21.853  13.023  14.034  0.00  0.00    -0.082 HD
ATOM     26  C   UNL     1      21.809  11.741  12.319  0.00  0.00    -0.064 C 
ATOM     27  C   UNL     1      21.658  12.900  11.295  0.00  0.00    +0.066 C 
ENDBRANCH  19  20
ENDBRANCH  18  19
ENDBRANCH  14  15
ENDBRANCH  12  13
TORSDOF 6
ENDMDL
