MODEL 1
REMARK VINA RESULT:      -7.1      0.000      0.000
REMARK  Name = C:\Users\Docking\Desktop\test protocol\1iep_ligandH.pdb
REMARK  8 active torsions:
REMARK  status: ('A' for Active; 'I' for Inactive)
REMARK    1  A    between atoms: _5  and  _11
REMARK    2  A    between atoms: _19  and  _21
REMARK    3  A    between atoms: _22  and  _66
REMARK    4  A    between atoms: _27  and  _30
REMARK    5  A    between atoms: _32  and  _33
REMARK    6  A    between atoms: _38  and  _43
REMARK    7  A    between atoms: _43  and  _46
REMARK    8  A    between atoms: _53  and  _55
REMARK                            x       y       z     vdW  Elec       q    Type
REMARK                         _______ _______ _______ _____ _____    ______ ____
ROOT
ATOM     10  C   UNL     1      11.449   5.601  18.338  0.00  0.00    +0.038 A 
ATOM     11  C   UNL     1      10.342   5.010  18.998  0.00  0.00    +0.047 A 
ATOM     12  C   UNL     1       8.998   5.542  18.836  0.00  0.00    +0.035 A 
ATOM     32  C   UNL     1       8.817   6.676  17.992  0.00  0.00    +0.024 A 
ATOM     33  C   UNL     1       9.932   7.290  17.315  0.00  0.00    +0.007 A 
ATOM     34  C   UNL     1      11.260   6.771  17.472  0.00  0.00    -0.029 A 
ATOM     35  C   UNL     1      12.419   7.474  16.726  0.00  0.00    +0.045 C 
ENDROOT
BRANCH  10   9
ATOM      4  C   UNL     1      14.992   2.607  17.102  0.00  0.00    +0.077 A 
ATOM      5  C   UNL     1      14.241   2.080  15.999  0.00  0.00    +0.048 A 
ATOM      6  C   UNL     1      12.945   2.600  15.789  0.00  0.00    +0.116 A 
ATOM      7  N   UNL     1      12.446   3.576  16.624  0.00  0.00    -0.223 NA
ATOM      8  C   UNL     1      13.196   4.062  17.680  0.00  0.00    +0.220 A 
ATOM      9  N   UNL     1      12.718   5.049  18.528  0.00  0.00    -0.283 N 
ATOM     36  H   UNL     1      13.299   5.375  19.300  0.00  0.00    +0.155 HD
ATOM     37  N   UNL     1      14.436   3.580  17.903  0.00  0.00    -0.214 NA
BRANCH   4   3
ATOM      1  C   UNL     1      18.006   0.698  18.706  0.00  0.00    +0.020 A 
ATOM      2  C   UNL     1      16.649   1.091  18.404  0.00  0.00    +0.013 A 
ATOM      3  C   UNL     1      16.377   2.161  17.452  0.00  0.00    +0.019 A 
ATOM     38  C   UNL     1      17.511   2.817  16.818  0.00  0.00    +0.120 A 
ATOM     39  N   UNL     1      18.807   2.418  17.129  0.00  0.00    -0.263 NA
ATOM     40  C   UNL     1      19.080   1.391  18.045  0.00  0.00    +0.111 A 
ENDBRANCH   4   3
ENDBRANCH  10   9
BRANCH  12  13
ATOM     13  N   UNL     1       7.836   4.989  19.488  0.00  0.00    -0.281 N 
ATOM     14  C   UNL     1       7.529   5.004  20.838  0.00  0.00    +0.248 C 
ATOM     30  O   UNL     1       8.315   5.310  21.722  0.00  0.00    -0.270 OA
ATOM     31  H   UNL     1       7.158   4.530  18.879  0.00  0.00    +0.155 HD
BRANCH  14  15
ATOM     15  C   UNL     1       6.154   4.607  21.271  0.00  0.00    +0.037 A 
ATOM     16  C   UNL     1       5.230   3.943  20.349  0.00  0.00    +0.013 A 
ATOM     17  C   UNL     1       3.903   3.587  20.787  0.00  0.00    +0.005 A 
ATOM     18  C   UNL     1       3.494   3.893  22.155  0.00  0.00    -0.033 A 
ATOM     28  C   UNL     1       4.434   4.548  23.051  0.00  0.00    +0.005 A 
ATOM     29  C   UNL     1       5.734   4.900  22.625  0.00  0.00    +0.013 A 
BRANCH  18  19
ATOM     19  C   UNL     1       2.092   3.568  22.702  0.00  0.00    +0.119 C 
BRANCH  19  20
ATOM     20  N   UNL     1       1.094   4.679  22.727  0.00  0.00    -0.302 NA
ATOM     21  C   UNL     1       1.183   5.560  21.478  0.00  0.00    +0.066 C 
ATOM     22  C   UNL     1       0.117   6.703  21.510  0.00  0.00    -0.064 C 
ATOM     23  N   UNL     1       0.308   7.539  22.777  0.00  0.00    +0.379 N 
ATOM     24  C   UNL     1      -0.656   8.649  22.782  0.00  0.00    -0.096 C 
ATOM     25  H   UNL     1       1.331   7.979  22.741  0.00  0.00    -0.082 HD
ATOM     26  C   UNL     1       0.223   6.670  24.024  0.00  0.00    -0.064 C 
ATOM     27  C   UNL     1       1.267   5.520  23.968  0.00  0.00    +0.066 C 
ENDBRANCH  19  20
ENDBRANCH  18  19
ENDBRANCH  14  15
ENDBRANCH  12  13
TORSDOF 6
ENDMDL
MODEL 2
REMARK VINA RESULT:      -6.6     12.911     18.333
REMARK  Name = C:\Users\Docking\Desktop\test protocol\1iep_ligandH.pdb
REMARK  8 active torsions:
REMARK  status: ('A' for Active; 'I' for Inactive)
REMARK    1  A    between atoms: _5  and  _11
REMARK    2  A    between atoms: _19  and  _21
REMARK    3  A    between atoms: _22  and  _66
REMARK    4  A    between atoms: _27  and  _30
REMARK    5  A    between atoms: _32  and  _33
REMARK    6  A    between atoms: _38  and  _43
REMARK    7  A    between atoms: _43  and  _46
REMARK    8  A    between atoms: _53  and  _55
REMARK                            x       y       z     vdW  Elec       q    Type
REMARK                         _______ _______ _______ _____ _____    ______ ____
ROOT
ATOM     10  C   UNL     1      17.195   9.591  12.226  0.00  0.00    +0.038 A 
ATOM     11  C   UNL     1      18.315  10.143  12.900  0.00  0.00    +0.047 A 
ATOM     12  C   UNL     1      19.554   9.393  13.040  0.00  0.00    +0.035 A 
ATOM     32  C   UNL     1      19.618   8.084  12.479  0.00  0.00    +0.024 A 
ATOM     33  C   UNL     1      18.489   7.507  11.793  0.00  0.00    +0.007 A 
ATOM     34  C   UNL     1      17.264   8.241  11.654  0.00  0.00    -0.029 A 
ATOM     35  C   UNL     1      16.083   7.570  10.913  0.00  0.00    +0.045 C 
ENDROOT
BRANCH  10   9
ATOM      4  C   UNL     1      14.571  13.044  10.171  0.00  0.00    +0.077 A 
ATOM      5  C   UNL     1      15.618  13.371   9.246  0.00  0.00    +0.048 A 
ATOM      6  C   UNL     1      16.818  12.632   9.337  0.00  0.00    +0.116 A 
ATOM      7  N   UNL     1      16.951  11.641  10.286  0.00  0.00    -0.223 NA
ATOM      8  C   UNL     1      15.922  11.352  11.164  0.00  0.00    +0.220 A 
ATOM      9  N   UNL     1      16.031  10.355  12.121  0.00  0.00    -0.283 N 
ATOM     36  H   UNL     1      15.252  10.178  12.755  0.00  0.00    +0.155 HD
ATOM     37  N   UNL     1      14.766  12.045  11.098  0.00  0.00    -0.214 NA
BRANCH   4   3
ATOM      1  C   UNL     1      11.123  14.460  11.358  0.00  0.00    +0.020 A 
ATOM      2  C   UNL     1      12.398  13.781  11.385  0.00  0.00    +0.013 A 
ATOM      3  C   UNL     1      13.242  13.734  10.198  0.00  0.00    +0.019 A 
ATOM     38  C   UNL     1      12.764  14.390   8.991  0.00  0.00    +0.120 A 
ATOM     39  N   UNL     1      11.532  15.036   8.994  0.00  0.00    -0.263 NA
ATOM     40  C   UNL     1      10.710  15.086  10.130  0.00  0.00    +0.111 A 
ENDBRANCH   4   3
ENDBRANCH  10   9
BRANCH  12  13
ATOM     13  N   UNL     1      20.720   9.898  13.720  0.00  0.00    -0.281 N 
ATOM     14  C   UNL     1      21.045   9.773  15.061  0.00  0.00    +0.248 C 
ATOM     30  O   UNL     1      20.273   9.389  15.926  0.00  0.00    -0.270 OA
ATOM     31  H   UNL     1      21.388  10.410  13.143  0.00  0.00    +0.155 HD
BRANCH  14  15
ATOM     15  C   UNL     1      22.423  10.141  15.507  0.00  0.00    +0.037 A 
ATOM     16  C   UNL     1      22.831  10.005  16.907  0.00  0.00    +0.013 A 
ATOM     17  C   UNL     1      24.161  10.383  17.314  0.00  0.00    +0.005 A 
ATOM     18  C   UNL     1      25.094  10.902  16.317  0.00  0.00    -0.033 A 
ATOM     28  C   UNL     1      24.666  11.022  14.934  0.00  0.00    +0.005 A 
ATOM     29  C   UNL     1      23.363  10.653  14.531  0.00  0.00    +0.013 A 
BRANCH  18  19
ATOM     19  C   UNL     1      26.526  11.350  16.665  0.00  0.00    +0.119 C 
BRANCH  19  20
ATOM     20  N   UNL     1      26.708  12.759  17.126  0.00  0.00    -0.302 NA
ATOM     21  C   UNL     1      26.810  12.856  18.651  0.00  0.00    +0.066 C 
ATOM     22  C   UNL     1      27.023  14.334  19.114  0.00  0.00    -0.064 C 
ATOM     23  N   UNL     1      25.875  15.200  18.592  0.00  0.00    +0.379 N 
ATOM     24  C   UNL     1      26.042  16.579  19.074  0.00  0.00    -0.096 C 
ATOM     25  H   UNL     1      24.928  14.802  19.024  0.00  0.00    -0.082 HD
ATOM     26  C   UNL     1      25.765  15.107  17.076  0.00  0.00    -0.064 C 
ATOM     27  C   UNL     1      25.583  13.631  16.625  0.00  0.00    +0.066 C 
ENDBRANCH  19  20
ENDBRANCH  18  19
ENDBRANCH  14  15
ENDBRANCH  12  13
TORSDOF 6
ENDMDL
MODEL 3
REMARK VINA RESULT:      -6.5      4.999     15.706
REMARK  Name = C:\Users\Docking\Desktop\test protocol\1iep_ligandH.pdb
REMARK  8 active torsions:
REMARK  status: ('A' for Active; 'I' for Inactive)
REMARK    1  A    between atoms: _5  and  _11
REMARK    2  A    between atoms: _19  and  _21
REMARK    3  A    between atoms: _22  and  _66
REMARK    4  A    between atoms: _27  and  _30
REMARK    5  A    between atoms: _32  and  _33
REMARK    6  A    between atoms: _38  and  _43
REMARK    7  A    between atoms: _43  and  _46
REMARK    8  A    between atoms: _53  and  _55
REMARK                            x       y       z     vdW  Elec       q    Type
REMARK                         _______ _______ _______ _____ _____    ______ ____
ROOT
ATOM     10  C   UNL     1      -3.628   8.734  19.870  0.00  0.00    +0.038 A 
ATOM     11  C   UNL     1      -2.293   8.258  19.935  0.00  0.00    +0.047 A 
ATOM     12  C   UNL     1      -2.005   6.861  20.218  0.00  0.00    +0.035 A 
ATOM     32  C   UNL     1      -3.102   5.974  20.426  0.00  0.00    +0.024 A 
ATOM     33  C   UNL     1      -4.464   6.440  20.365  0.00  0.00    +0.007 A 
ATOM     34  C   UNL     1      -4.754   7.818  20.089  0.00  0.00    -0.029 A 
ATOM     35  C   UNL     1      -6.234   8.264  20.042  0.00  0.00    +0.045 C 
ENDROOT
BRANCH  10   9
ATOM      4  C   UNL     1      -3.430  13.380  21.058  0.00  0.00    +0.077 A 
ATOM      5  C   UNL     1      -2.868  13.088  22.345  0.00  0.00    +0.048 A 
ATOM      6  C   UNL     1      -2.652  11.729  22.666  0.00  0.00    +0.116 A 
ATOM      7  N   UNL     1      -2.977  10.744  21.759  0.00  0.00    -0.223 NA
ATOM      8  C   UNL     1      -3.519  11.060  20.526  0.00  0.00    +0.220 A 
ATOM      9  N   UNL     1      -3.847  10.085  19.596  0.00  0.00    -0.283 N 
ATOM     36  H   UNL     1      -4.251  10.359  18.701  0.00  0.00    +0.155 HD
ATOM     37  N   UNL     1      -3.737  12.350  20.197  0.00  0.00    -0.214 NA
BRANCH   4   3
ATOM      1  C   UNL     1      -3.892  16.507  18.754  0.00  0.00    +0.020 A 
ATOM      2  C   UNL     1      -3.606  15.154  19.171  0.00  0.00    +0.013 A 
ATOM      3  C   UNL     1      -3.714  14.767  20.572  0.00  0.00    +0.019 A 
ATOM     38  C   UNL     1      -4.119  15.782  21.533  0.00  0.00    +0.120 A 
ATOM     39  N   UNL     1      -4.386  17.078  21.103  0.00  0.00    -0.263 NA
ATOM     40  C   UNL     1      -4.283  17.462  19.757  0.00  0.00    +0.111 A 
ENDBRANCH   4   3
ENDBRANCH  10   9
BRANCH  12  13
ATOM     13  N   UNL     1      -0.671   6.322  20.304  0.00  0.00    -0.281 N 
ATOM     14  C   UNL     1       0.153   6.262  21.416  0.00  0.00    +0.248 C 
ATOM     30  O   UNL     1      -0.053   6.859  22.462  0.00  0.00    -0.270 OA
ATOM     31  H   UNL     1      -0.286   5.938  19.441  0.00  0.00    +0.155 HD
BRANCH  14  15
ATOM     15  C   UNL     1       1.393   5.430  21.353  0.00  0.00    +0.037 A 
ATOM     16  C   UNL     1       1.892   4.906  20.078  0.00  0.00    +0.013 A 
ATOM     17  C   UNL     1       3.081   4.092  20.047  0.00  0.00    +0.005 A 
ATOM     18  C   UNL     1       3.780   3.796  21.296  0.00  0.00    -0.033 A 
ATOM     28  C   UNL     1       3.266   4.333  22.545  0.00  0.00    +0.005 A 
ATOM     29  C   UNL     1       2.100   5.131  22.580  0.00  0.00    +0.013 A 
BRANCH  18  19
ATOM     19  C   UNL     1       5.044   2.918  21.359  0.00  0.00    +0.119 C 
BRANCH  19  20
ATOM     20  N   UNL     1       6.238   3.382  20.591  0.00  0.00    -0.302 NA
ATOM     21  C   UNL     1       7.379   2.362  20.633  0.00  0.00    +0.066 C 
ATOM     22  C   UNL     1       8.612   2.853  19.805  0.00  0.00    -0.064 C 
ATOM     23  N   UNL     1       9.076   4.208  20.343  0.00  0.00    +0.379 N 
ATOM     24  C   UNL     1      10.270   4.645  19.605  0.00  0.00    -0.096 C 
ATOM     25  H   UNL     1       9.370   4.066  21.409  0.00  0.00    -0.082 HD
ATOM     26  C   UNL     1       7.946   5.227  20.307  0.00  0.00    -0.064 C 
ATOM     27  C   UNL     1       6.716   4.717  21.108  0.00  0.00    +0.066 C 
ENDBRANCH  19  20
ENDBRANCH  18  19
ENDBRANCH  14  15
ENDBRANCH  12  13
TORSDOF 6
ENDMDL
MODEL 4
REMARK VINA RESULT:      -6.3      3.359      4.885
REMARK  Name = C:\Users\Docking\Desktop\test protocol\1iep_ligandH.pdb
REMARK  8 active torsions:
REMARK  status: ('A' for Active; 'I' for Inactive)
REMARK    1  A    between atoms: _5  and  _11
REMARK    2  A    between atoms: _19  and  _21
REMARK    3  A    between atoms: _22  and  _66
REMARK    4  A    between atoms: _27  and  _30
REMARK    5  A    between atoms: _32  and  _33
REMARK    6  A    between atoms: _38  and  _43
REMARK    7  A    between atoms: _43  and  _46
REMARK    8  A    between atoms: _53  and  _55
REMARK                            x       y       z     vdW  Elec       q    Type
REMARK                         _______ _______ _______ _____ _____    ______ ____
ROOT
ATOM     10  C   UNL     1       9.332   3.593  18.000  0.00  0.00    +0.038 A 
ATOM     11  C   UNL     1       8.110   4.094  18.519  0.00  0.00    +0.047 A 
ATOM     12  C   UNL     1       7.547   3.574  19.755  0.00  0.00    +0.035 A 
ATOM     32  C   UNL     1       8.257   2.544  20.439  0.00  0.00    +0.024 A 
ATOM     33  C   UNL     1       9.499   2.022  19.926  0.00  0.00    +0.007 A 
ATOM     34  C   UNL     1      10.058   2.530  18.705  0.00  0.00    -0.029 A 
ATOM     35  C   UNL     1      11.389   1.929  18.199  0.00  0.00    +0.045 C 
ENDROOT
BRANCH  10   9
ATOM      4  C   UNL     1      12.142   6.636  15.575  0.00  0.00    +0.077 A 
ATOM      5  C   UNL     1      12.647   7.224  16.782  0.00  0.00    +0.048 A 
ATOM      6  C   UNL     1      12.153   6.720  18.005  0.00  0.00    +0.116 A 
ATOM      7  N   UNL     1      11.223   5.703  18.010  0.00  0.00    -0.223 NA
ATOM      8  C   UNL     1      10.756   5.159  16.828  0.00  0.00    +0.220 A 
ATOM      9  N   UNL     1       9.827   4.130  16.810  0.00  0.00    -0.283 N 
ATOM     36  H   UNL     1       9.501   3.761  15.917  0.00  0.00    +0.155 HD
ATOM     37  N   UNL     1      11.211   5.624  15.646  0.00  0.00    -0.214 NA
BRANCH   4   3
ATOM      1  C   UNL     1      13.434   8.762  12.556  0.00  0.00    +0.020 A 
ATOM      2  C   UNL     1      13.031   8.406  13.897  0.00  0.00    +0.013 A 
ATOM      3  C   UNL     1      12.570   7.058  14.203  0.00  0.00    +0.019 A 
ATOM     38  C   UNL     1      12.528   6.086  13.121  0.00  0.00    +0.120 A 
ATOM     39  N   UNL     1      12.921   6.458  11.839  0.00  0.00    -0.263 NA
ATOM     40  C   UNL     1      13.365   7.753  11.533  0.00  0.00    +0.111 A 
ENDBRANCH   4   3
ENDBRANCH  10   9
BRANCH  12  13
ATOM     13  N   UNL     1       6.307   4.038  20.325  0.00  0.00    -0.281 N 
ATOM     14  C   UNL     1       5.018   3.742  19.914  0.00  0.00    +0.248 C 
ATOM     30  O   UNL     1       4.737   3.201  18.855  0.00  0.00    -0.270 OA
ATOM     31  H   UNL     1       6.390   4.659  21.129  0.00  0.00    +0.155 HD
BRANCH  14  15
ATOM     15  C   UNL     1       3.874   4.115  20.801  0.00  0.00    +0.037 A 
ATOM     16  C   UNL     1       2.569   4.482  20.244  0.00  0.00    +0.013 A 
ATOM     17  C   UNL     1       1.487   4.854  21.122  0.00  0.00    +0.005 A 
ATOM     18  C   UNL     1       1.706   4.859  22.566  0.00  0.00    -0.033 A 
ATOM     28  C   UNL     1       3.009   4.486  23.091  0.00  0.00    +0.005 A 
ATOM     29  C   UNL     1       4.072   4.122  22.234  0.00  0.00    +0.013 A 
BRANCH  18  19
ATOM     19  C   UNL     1       0.616   5.263  23.576  0.00  0.00    +0.119 C 
BRANCH  19  20
ATOM     20  N   UNL     1      -0.191   6.479  23.261  0.00  0.00    -0.302 NA
ATOM     21  C   UNL     1       0.693   7.691  22.954  0.00  0.00    +0.066 C 
ATOM     22  C   UNL     1      -0.167   8.949  22.605  0.00  0.00    -0.064 C 
ATOM     23  N   UNL     1      -1.117   9.252  23.765  0.00  0.00    +0.379 N 
ATOM     24  C   UNL     1      -1.886  10.469  23.464  0.00  0.00    -0.096 C 
ATOM     25  H   UNL     1      -0.494   9.459  24.666  0.00  0.00    -0.082 HD
ATOM     26  C   UNL     1      -1.998   8.051  24.079  0.00  0.00    -0.064 C 
ATOM     27  C   UNL     1      -1.133   6.799  24.396  0.00  0.00    +0.066 C 
ENDBRANCH  19  20
ENDBRANCH  18  19
ENDBRANCH  14  15
ENDBRANCH  12  13
TORSDOF 6
ENDMDL
MODEL 5
REMARK VINA RESULT:      -6.2      1.802      2.798
REMARK  Name = C:\Users\Docking\Desktop\test protocol\1iep_ligandH.pdb
REMARK  8 active torsions:
REMARK  status: ('A' for Active; 'I' for Inactive)
REMARK    1  A    between atoms: _5  and  _11
REMARK    2  A    between atoms: _19  and  _21
REMARK    3  A    between atoms: _22  and  _66
REMARK    4  A    between atoms: _27  and  _30
REMARK    5  A    between atoms: _32  and  _33
REMARK    6  A    between atoms: _38  and  _43
REMARK    7  A    between atoms: _43  and  _46
REMARK    8  A    between atoms: _53  and  _55
REMARK                            x       y       z     vdW  Elec       q    Type
REMARK                         _______ _______ _______ _____ _____    ______ ____
ROOT
ATOM     10  C   UNL     1      11.405   5.655  18.356  0.00  0.00    +0.038 A 
ATOM     11  C   UNL     1      10.324   5.039  19.036  0.00  0.00    +0.047 A 
ATOM     12  C   UNL     1       8.965   5.539  18.898  0.00  0.00    +0.035 A 
ATOM     32  C   UNL     1       8.742   6.667  18.055  0.00  0.00    +0.024 A 
ATOM     33  C   UNL     1       9.830   7.306  17.357  0.00  0.00    +0.007 A 
ATOM     34  C   UNL     1      11.173   6.819  17.491  0.00  0.00    -0.029 A 
ATOM     35  C   UNL     1      12.301   7.547  16.724  0.00  0.00    +0.045 C 
ENDROOT
BRANCH  10   9
ATOM      4  C   UNL     1      14.983   2.720  17.083  0.00  0.00    +0.077 A 
ATOM      5  C   UNL     1      14.218   2.158  16.007  0.00  0.00    +0.048 A 
ATOM      6  C   UNL     1      12.906   2.647  15.819  0.00  0.00    +0.116 A 
ATOM      7  N   UNL     1      12.406   3.625  16.651  0.00  0.00    -0.223 NA
ATOM      8  C   UNL     1      13.169   4.144  17.681  0.00  0.00    +0.220 A 
ATOM      9  N   UNL     1      12.690   5.134  18.525  0.00  0.00    -0.283 N 
ATOM     36  H   UNL     1      13.281   5.485  19.277  0.00  0.00    +0.155 HD
ATOM     37  N   UNL     1      14.425   3.693  17.882  0.00  0.00    -0.214 NA
BRANCH   4   3
ATOM      1  C   UNL     1      18.095   0.652  18.241  0.00  0.00    +0.020 A 
ATOM      2  C   UNL     1      16.723   0.998  17.946  0.00  0.00    +0.013 A 
ATOM      3  C   UNL     1      16.386   2.309  17.407  0.00  0.00    +0.019 A 
ATOM     38  C   UNL     1      17.468   3.254  17.174  0.00  0.00    +0.120 A 
ATOM     39  N   UNL     1      18.779   2.893  17.469  0.00  0.00    -0.263 NA
ATOM     40  C   UNL     1      19.116   1.635  17.990  0.00  0.00    +0.111 A 
ENDBRANCH   4   3
ENDBRANCH  10   9
BRANCH  12  13
ATOM     13  N   UNL     1       7.829   4.959  19.571  0.00  0.00    -0.281 N 
ATOM     14  C   UNL     1       7.480   5.075  20.906  0.00  0.00    +0.248 C 
ATOM     30  O   UNL     1       8.213   5.523  21.776  0.00  0.00    -0.270 OA
ATOM     31  H   UNL     1       7.206   4.395  18.992  0.00  0.00    +0.155 HD
BRANCH  14  15
ATOM     15  C   UNL     1       6.126   4.615  21.342  0.00  0.00    +0.037 A 
ATOM     16  C   UNL     1       5.643   4.855  22.704  0.00  0.00    +0.013 A 
ATOM     17  C   UNL     1       4.340   4.385  23.103  0.00  0.00    +0.005 A 
ATOM     18  C   UNL     1       3.510   3.671  22.136  0.00  0.00    -0.033 A 
ATOM     28  C   UNL     1       4.011   3.451  20.790  0.00  0.00    +0.005 A 
ATOM     29  C   UNL     1       5.288   3.909  20.395  0.00  0.00    +0.013 A 
BRANCH  18  19
ATOM     19  C   UNL     1       2.115   3.115  22.481  0.00  0.00    +0.119 C 
BRANCH  19  20
ATOM     20  N   UNL     1       1.934   2.513  23.835  0.00  0.00    -0.302 NA
ATOM     21  C   UNL     1       1.933   0.982  23.788  0.00  0.00    +0.066 C 
ATOM     22  C   UNL     1       1.766   0.369  25.216  0.00  0.00    -0.064 C 
ATOM     23  N   UNL     1       0.473   0.892  25.845  0.00  0.00    +0.379 N 
ATOM     24  C   UNL     1       0.284   0.273  27.164  0.00  0.00    -0.096 C 
ATOM     25  H   UNL     1      -0.373   0.570  25.195  0.00  0.00    -0.082 HD
ATOM     26  C   UNL     1       0.465   2.414  25.893  0.00  0.00    -0.064 C 
ATOM     27  C   UNL     1       0.662   3.013  24.473  0.00  0.00    +0.066 C 
ENDBRANCH  19  20
ENDBRANCH  18  19
ENDBRANCH  14  15
ENDBRANCH  12  13
TORSDOF 6
ENDMDL
