MODEL 1
REMARK VINA RESULT:      -7.9      0.000      0.000
REMARK  Name = C:\Users\Docking\Desktop\test protocol\1iep_ligandH.pdb
REMARK  8 active torsions:
REMARK  status: ('A' for Active; 'I' for Inactive)
REMARK    1  A    between atoms: _5  and  _11
REMARK    2  A    between atoms: _19  and  _21
REMARK    3  A    between atoms: _22  and  _66
REMARK    4  A    between atoms: _27  and  _30
REMARK    5  A    between atoms: _32  and  _33
REMARK    6  A    between atoms: _38  and  _43
REMARK    7  A    between atoms: _43  and  _46
REMARK    8  A    between atoms: _53  and  _55
REMARK                            x       y       z     vdW  Elec       q    Type
REMARK                         _______ _______ _______ _____ _____    ______ ____
ROOT
ATOM     10  C   UNL     1       1.950  13.932  -5.091  0.00  0.00    +0.038 A 
ATOM     11  C   UNL     1       0.699  14.515  -5.419  0.00  0.00    +0.047 A 
ATOM     12  C   UNL     1      -0.519  14.123  -4.727  0.00  0.00    +0.035 A 
ATOM     32  C   UNL     1      -0.426  13.136  -3.703  0.00  0.00    +0.024 A 
ATOM     33  C   UNL     1       0.837  12.532  -3.357  0.00  0.00    +0.007 A 
ATOM     34  C   UNL     1       2.041  12.913  -4.039  0.00  0.00    -0.029 A 
ATOM     35  C   UNL     1       3.366  12.228  -3.631  0.00  0.00    +0.045 C 
ENDROOT
BRANCH  10   9
ATOM      4  C   UNL     1       5.800  16.750  -5.616  0.00  0.00    +0.077 A 
ATOM      5  C   UNL     1       5.506  17.476  -4.414  0.00  0.00    +0.048 A 
ATOM      6  C   UNL     1       4.350  17.098  -3.694  0.00  0.00    +0.116 A 
ATOM      7  N   UNL     1       3.556  16.069  -4.151  0.00  0.00    -0.223 NA
ATOM      8  C   UNL     1       3.867  15.390  -5.314  0.00  0.00    +0.220 A 
ATOM      9  N   UNL     1       3.087  14.346  -5.788  0.00  0.00    -0.283 N 
ATOM     36  H   UNL     1       3.347  13.875  -6.654  0.00  0.00    +0.155 HD
ATOM     37  N   UNL     1       4.965  15.732  -6.021  0.00  0.00    -0.214 NA
BRANCH   4   3
ATOM      1  C   UNL     1       8.827  16.312  -8.054  0.00  0.00    +0.020 A 
ATOM      2  C   UNL     1       7.686  15.989  -7.229  0.00  0.00    +0.013 A 
ATOM      3  C   UNL     1       6.987  17.029  -6.484  0.00  0.00    +0.019 A 
ATOM     38  C   UNL     1       7.472  18.396  -6.597  0.00  0.00    +0.120 A 
ATOM     39  N   UNL     1       8.574  18.677  -7.399  0.00  0.00    -0.263 NA
ATOM     40  C   UNL     1       9.256  17.684  -8.119  0.00  0.00    +0.111 A 
ENDBRANCH   4   3
ENDBRANCH  10   9
BRANCH  12  13
ATOM     13  N   UNL     1      -1.818  14.674  -5.023  0.00  0.00    -0.281 N 
ATOM     14  C   UNL     1      -2.578  15.530  -4.242  0.00  0.00    +0.248 C 
ATOM     30  O   UNL     1      -2.348  15.783  -3.069  0.00  0.00    -0.270 OA
ATOM     31  H   UNL     1      -2.227  14.400  -5.916  0.00  0.00    +0.155 HD
BRANCH  14  15
ATOM     15  C   UNL     1      -3.775  16.188  -4.848  0.00  0.00    +0.037 A 
ATOM     16  C   UNL     1      -4.620  17.095  -4.066  0.00  0.00    +0.013 A 
ATOM     17  C   UNL     1      -5.779  17.703  -4.670  0.00  0.00    +0.005 A 
ATOM     18  C   UNL     1      -6.099  17.407  -6.065  0.00  0.00    -0.033 A 
ATOM     28  C   UNL     1      -5.241  16.508  -6.818  0.00  0.00    +0.005 A 
ATOM     29  C   UNL     1      -4.105  15.909  -6.229  0.00  0.00    +0.013 A 
BRANCH  18  19
ATOM     19  C   UNL     1      -7.328  17.995  -6.784  0.00  0.00    +0.119 C 
BRANCH  19  20
ATOM     20  N   UNL     1      -8.674  17.603  -6.269  0.00  0.00    -0.302 NA
ATOM     21  C   UNL     1      -8.759  16.103  -5.970  0.00  0.00    +0.066 C 
ATOM     22  C   UNL     1     -10.167  15.714  -5.411  0.00  0.00    -0.064 C 
ATOM     23  N   UNL     1     -11.243  16.128  -6.416  0.00  0.00    +0.379 N 
ATOM     24  C   UNL     1     -12.563  15.711  -5.920  0.00  0.00    -0.096 C 
ATOM     25  H   UNL     1     -11.049  15.577  -7.365  0.00  0.00    -0.082 HD
ATOM     26  C   UNL     1     -11.164  17.617  -6.722  0.00  0.00    -0.064 C 
ATOM     27  C   UNL     1      -9.752  17.998  -7.248  0.00  0.00    +0.066 C 
ENDBRANCH  19  20
ENDBRANCH  18  19
ENDBRANCH  14  15
ENDBRANCH  12  13
TORSDOF 6
ENDMDL
MODEL 2
REMARK VINA RESULT:      -7.5      1.298      1.477
REMARK  Name = C:\Users\Docking\Desktop\test protocol\1iep_ligandH.pdb
REMARK  8 active torsions:
REMARK  status: ('A' for Active; 'I' for Inactive)
REMARK    1  A    between atoms: _5  and  _11
REMARK    2  A    between atoms: _19  and  _21
REMARK    3  A    between atoms: _22  and  _66
REMARK    4  A    between atoms: _27  and  _30
REMARK    5  A    between atoms: _32  and  _33
REMARK    6  A    between atoms: _38  and  _43
REMARK    7  A    between atoms: _43  and  _46
REMARK    8  A    between atoms: _53  and  _55
REMARK                            x       y       z     vdW  Elec       q    Type
REMARK                         _______ _______ _______ _____ _____    ______ ____
ROOT
ATOM     10  C   UNL     1       2.398  13.024  -3.741  0.00  0.00    +0.038 A 
ATOM     11  C   UNL     1       1.198  13.624  -4.199  0.00  0.00    +0.047 A 
ATOM     12  C   UNL     1      -0.055  13.445  -3.481  0.00  0.00    +0.035 A 
ATOM     32  C   UNL     1      -0.047  12.649  -2.298  0.00  0.00    +0.024 A 
ATOM     33  C   UNL     1       1.164  12.031  -1.819  0.00  0.00    +0.007 A 
ATOM     34  C   UNL     1       2.402  12.203  -2.524  0.00  0.00    -0.029 A 
ATOM     35  C   UNL     1       3.668  11.511  -1.968  0.00  0.00    +0.045 C 
ENDROOT
BRANCH  10   9
ATOM      4  C   UNL     1       6.296  15.597  -4.849  0.00  0.00    +0.077 A 
ATOM      5  C   UNL     1       5.950  16.632  -3.918  0.00  0.00    +0.048 A 
ATOM      6  C   UNL     1       4.757  16.467  -3.178  0.00  0.00    +0.116 A 
ATOM      7  N   UNL     1       3.977  15.347  -3.364  0.00  0.00    -0.223 NA
ATOM      8  C   UNL     1       4.338  14.369  -4.272  0.00  0.00    +0.220 A 
ATOM      9  N   UNL     1       3.572  13.230  -4.469  0.00  0.00    -0.283 N 
ATOM     36  H   UNL     1       3.869  12.535  -5.153  0.00  0.00    +0.155 HD
ATOM     37  N   UNL     1       5.472  14.503  -4.991  0.00  0.00    -0.214 NA
BRANCH   4   3
ATOM      1  C   UNL     1       9.948  15.080  -6.151  0.00  0.00    +0.020 A 
ATOM      2  C   UNL     1       8.789  15.026  -5.289  0.00  0.00    +0.013 A 
ATOM      3  C   UNL     1       7.526  15.625  -5.701  0.00  0.00    +0.019 A 
ATOM     38  C   UNL     1       7.469  16.277  -7.001  0.00  0.00    +0.120 A 
ATOM     39  N   UNL     1       8.602  16.315  -7.808  0.00  0.00    -0.263 NA
ATOM     40  C   UNL     1       9.823  15.743  -7.422  0.00  0.00    +0.111 A 
ENDBRANCH   4   3
ENDBRANCH  10   9
BRANCH  12  13
ATOM     13  N   UNL     1      -1.307  14.023  -3.903  0.00  0.00    -0.281 N 
ATOM     14  C   UNL     1      -1.769  15.309  -3.679  0.00  0.00    +0.248 C 
ATOM     30  O   UNL     1      -1.265  16.098  -2.893  0.00  0.00    -0.270 OA
ATOM     31  H   UNL     1      -1.927  13.409  -4.430  0.00  0.00    +0.155 HD
BRANCH  14  15
ATOM     15  C   UNL     1      -2.975  15.783  -4.424  0.00  0.00    +0.037 A 
ATOM     16  C   UNL     1      -3.994  16.610  -3.773  0.00  0.00    +0.013 A 
ATOM     17  C   UNL     1      -5.156  17.040  -4.511  0.00  0.00    +0.005 A 
ATOM     18  C   UNL     1      -5.303  16.644  -5.909  0.00  0.00    -0.033 A 
ATOM     28  C   UNL     1      -4.274  15.827  -6.531  0.00  0.00    +0.005 A 
ATOM     29  C   UNL     1      -3.135  15.403  -5.812  0.00  0.00    +0.013 A 
BRANCH  18  19
ATOM     19  C   UNL     1      -6.520  17.039  -6.767  0.00  0.00    +0.119 C 
BRANCH  19  20
ATOM     20  N   UNL     1      -7.871  16.878  -6.151  0.00  0.00    -0.302 NA
ATOM     21  C   UNL     1      -8.210  15.408  -5.884  0.00  0.00    +0.066 C 
ATOM     22  C   UNL     1      -9.617  15.260  -5.219  0.00  0.00    -0.064 C 
ATOM     23  N   UNL     1     -10.673  15.904  -6.119  0.00  0.00    +0.379 N 
ATOM     24  C   UNL     1     -12.005  15.715  -5.525  0.00  0.00    -0.096 C 
ATOM     25  H   UNL     1     -10.659  15.366  -7.095  0.00  0.00    -0.082 HD
ATOM     26  C   UNL     1     -10.343  17.364  -6.392  0.00  0.00    -0.064 C 
ATOM     27  C   UNL     1      -8.930  17.503  -7.025  0.00  0.00    +0.066 C 
ENDBRANCH  19  20
ENDBRANCH  18  19
ENDBRANCH  14  15
ENDBRANCH  12  13
TORSDOF 6
ENDMDL
MODEL 3
REMARK VINA RESULT:      -7.2      4.286      6.726
REMARK  Name = C:\Users\Docking\Desktop\test protocol\1iep_ligandH.pdb
REMARK  8 active torsions:
REMARK  status: ('A' for Active; 'I' for Inactive)
REMARK    1  A    between atoms: _5  and  _11
REMARK    2  A    between atoms: _19  and  _21
REMARK    3  A    between atoms: _22  and  _66
REMARK    4  A    between atoms: _27  and  _30
REMARK    5  A    between atoms: _32  and  _33
REMARK    6  A    between atoms: _38  and  _43
REMARK    7  A    between atoms: _43  and  _46
REMARK    8  A    between atoms: _53  and  _55
REMARK                            x       y       z     vdW  Elec       q    Type
REMARK                         _______ _______ _______ _____ _____    ______ ____
ROOT
ATOM     10  C   UNL     1       2.016  11.856  -2.769  0.00  0.00    +0.038 A 
ATOM     11  C   UNL     1       0.731  12.443  -2.898  0.00  0.00    +0.047 A 
ATOM     12  C   UNL     1       0.367  13.202  -4.084  0.00  0.00    +0.035 A 
ATOM     32  C   UNL     1       1.334  13.341  -5.122  0.00  0.00    +0.024 A 
ATOM     33  C   UNL     1       2.645  12.751  -5.007  0.00  0.00    +0.007 A 
ATOM     34  C   UNL     1       3.011  12.003  -3.838  0.00  0.00    -0.029 A 
ATOM     35  C   UNL     1       4.433  11.399  -3.766  0.00  0.00    +0.045 C 
ENDROOT
BRANCH  10   9
ATOM      4  C   UNL     1       3.539  11.597   1.775  0.00  0.00    +0.077 A 
ATOM      5  C   UNL     1       3.789  13.009   1.834  0.00  0.00    +0.048 A 
ATOM      6  C   UNL     1       3.520  13.764   0.670  0.00  0.00    +0.116 A 
ATOM      7  N   UNL     1       3.036  13.144  -0.461  0.00  0.00    -0.223 NA
ATOM      8  C   UNL     1       2.807  11.781  -0.484  0.00  0.00    +0.220 A 
ATOM      9  N   UNL     1       2.313  11.138  -1.609  0.00  0.00    -0.283 N 
ATOM     36  H   UNL     1       2.164  10.129  -1.588  0.00  0.00    +0.155 HD
ATOM     37  N   UNL     1       3.057  11.037   0.613  0.00  0.00    -0.214 NA
BRANCH   4   3
ATOM      1  C   UNL     1       4.980   9.961   5.022  0.00  0.00    +0.020 A 
ATOM      2  C   UNL     1       4.797  10.892   3.933  0.00  0.00    +0.013 A 
ATOM      3  C   UNL     1       3.770  10.665   2.924  0.00  0.00    +0.019 A 
ATOM     38  C   UNL     1       2.938   9.478   3.047  0.00  0.00    +0.120 A 
ATOM     39  N   UNL     1       3.138   8.599   4.107  0.00  0.00    -0.263 NA
ATOM     40  C   UNL     1       4.124   8.805   5.083  0.00  0.00    +0.111 A 
ENDBRANCH   4   3
ENDBRANCH  10   9
BRANCH  12  13
ATOM     13  N   UNL     1      -0.919  13.828  -4.267  0.00  0.00    -0.281 N 
ATOM     14  C   UNL     1      -1.262  15.151  -4.043  0.00  0.00    +0.248 C 
ATOM     30  O   UNL     1      -0.563  15.954  -3.443  0.00  0.00    -0.270 OA
ATOM     31  H   UNL     1      -1.668  13.222  -4.604  0.00  0.00    +0.155 HD
BRANCH  14  15
ATOM     15  C   UNL     1      -2.579  15.651  -4.544  0.00  0.00    +0.037 A 
ATOM     16  C   UNL     1      -3.485  16.406  -3.675  0.00  0.00    +0.013 A 
ATOM     17  C   UNL     1      -4.757  16.862  -4.179  0.00  0.00    +0.005 A 
ATOM     18  C   UNL     1      -5.128  16.565  -5.561  0.00  0.00    -0.033 A 
ATOM     28  C   UNL     1      -4.207  15.819  -6.402  0.00  0.00    +0.005 A 
ATOM     29  C   UNL     1      -2.960  15.370  -5.911  0.00  0.00    +0.013 A 
BRANCH  18  19
ATOM     19  C   UNL     1      -6.473  16.995  -6.176  0.00  0.00    +0.119 C 
BRANCH  19  20
ATOM     20  N   UNL     1      -7.717  16.542  -5.484  0.00  0.00    -0.302 NA
ATOM     21  C   UNL     1      -7.917  15.028  -5.595  0.00  0.00    +0.066 C 
ATOM     22  C   UNL     1      -9.211  14.569  -4.847  0.00  0.00    -0.064 C 
ATOM     23  N   UNL     1     -10.418  15.318  -5.414  0.00  0.00    +0.379 N 
ATOM     24  C   UNL     1     -11.643  14.847  -4.752  0.00  0.00    -0.096 C 
ATOM     25  H   UNL     1     -10.497  15.062  -6.496  0.00  0.00    -0.082 HD
ATOM     26  C   UNL     1     -10.226  16.825  -5.309  0.00  0.00    -0.064 C 
ATOM     27  C   UNL     1      -8.922  17.266  -6.031  0.00  0.00    +0.066 C 
ENDBRANCH  19  20
ENDBRANCH  18  19
ENDBRANCH  14  15
ENDBRANCH  12  13
TORSDOF 6
ENDMDL
MODEL 4
REMARK VINA RESULT:      -6.6     15.380     20.118
REMARK  Name = C:\Users\Docking\Desktop\test protocol\1iep_ligandH.pdb
REMARK  8 active torsions:
REMARK  status: ('A' for Active; 'I' for Inactive)
REMARK    1  A    between atoms: _5  and  _11
REMARK    2  A    between atoms: _19  and  _21
REMARK    3  A    between atoms: _22  and  _66
REMARK    4  A    between atoms: _27  and  _30
REMARK    5  A    between atoms: _32  and  _33
REMARK    6  A    between atoms: _38  and  _43
REMARK    7  A    between atoms: _43  and  _46
REMARK    8  A    between atoms: _53  and  _55
REMARK                            x       y       z     vdW  Elec       q    Type
REMARK                         _______ _______ _______ _____ _____    ______ ____
ROOT
ATOM     10  C   UNL     1     -16.388   6.933  -8.456  0.00  0.00    +0.038 A 
ATOM     11  C   UNL     1     -15.231   6.358  -7.872  0.00  0.00    +0.047 A 
ATOM     12  C   UNL     1     -15.235   4.988  -7.383  0.00  0.00    +0.035 A 
ATOM     32  C   UNL     1     -16.436   4.230  -7.508  0.00  0.00    +0.024 A 
ATOM     33  C   UNL     1     -17.622   4.799  -8.098  0.00  0.00    +0.007 A 
ATOM     34  C   UNL     1     -17.624   6.151  -8.580  0.00  0.00    -0.029 A 
ATOM     35  C   UNL     1     -18.927   6.710  -9.198  0.00  0.00    +0.045 C 
ENDROOT
BRANCH  10   9
ATOM      4  C   UNL     1     -17.258  11.625  -7.949  0.00  0.00    +0.077 A 
ATOM      5  C   UNL     1     -17.912  11.428  -6.687  0.00  0.00    +0.048 A 
ATOM      6  C   UNL     1     -18.010  10.103  -6.208  0.00  0.00    +0.116 A 
ATOM      7  N   UNL     1     -17.489   9.060  -6.943  0.00  0.00    -0.223 NA
ATOM      8  C   UNL     1     -16.866   9.285  -8.157  0.00  0.00    +0.220 A 
ATOM      9  N   UNL     1     -16.328   8.253  -8.909  0.00  0.00    -0.283 N 
ATOM     36  H   UNL     1     -15.883   8.459  -9.803  0.00  0.00    +0.155 HD
ATOM     37  N   UNL     1     -16.761  10.541  -8.637  0.00  0.00    -0.214 NA
BRANCH   4   3
ATOM      1  C   UNL     1     -15.675  14.721  -9.740  0.00  0.00    +0.020 A 
ATOM      2  C   UNL     1     -15.799  13.416  -9.134  0.00  0.00    +0.013 A 
ATOM      3  C   UNL     1     -17.074  12.967  -8.586  0.00  0.00    +0.019 A 
ATOM     38  C   UNL     1     -18.211  13.871  -8.669  0.00  0.00    +0.120 A 
ATOM     39  N   UNL     1     -18.060  15.123  -9.257  0.00  0.00    -0.263 NA
ATOM     40  C   UNL     1     -16.839  15.566  -9.786  0.00  0.00    +0.111 A 
ENDBRANCH   4   3
ENDBRANCH  10   9
BRANCH  12  13
ATOM     13  N   UNL     1     -14.093   4.354  -6.774  0.00  0.00    -0.281 N 
ATOM     14  C   UNL     1     -13.541   4.609  -5.529  0.00  0.00    +0.248 C 
ATOM     30  O   UNL     1     -13.819   5.575  -4.834  0.00  0.00    -0.270 OA
ATOM     31  H   UNL     1     -13.635   3.630  -7.327  0.00  0.00    +0.155 HD
BRANCH  14  15
ATOM     15  C   UNL     1     -12.522   3.661  -4.983  0.00  0.00    +0.037 A 
ATOM     16  C   UNL     1     -12.568   2.231  -5.299  0.00  0.00    +0.013 A 
ATOM     17  C   UNL     1     -11.583   1.336  -4.746  0.00  0.00    +0.005 A 
ATOM     18  C   UNL     1     -10.543   1.869  -3.870  0.00  0.00    -0.033 A 
ATOM     28  C   UNL     1     -10.518   3.293  -3.577  0.00  0.00    +0.005 A 
ATOM     29  C   UNL     1     -11.482   4.173  -4.117  0.00  0.00    +0.013 A 
BRANCH  18  19
ATOM     19  C   UNL     1      -9.464   0.984  -3.218  0.00  0.00    +0.119 C 
BRANCH  19  20
ATOM     20  N   UNL     1      -8.300   0.589  -4.066  0.00  0.00    -0.302 NA
ATOM     21  C   UNL     1      -7.937  -0.888  -3.890  0.00  0.00    +0.066 C 
ATOM     22  C   UNL     1      -6.731  -1.291  -4.801  0.00  0.00    -0.064 C 
ATOM     23  N   UNL     1      -5.533  -0.397  -4.480  0.00  0.00    +0.379 N 
ATOM     24  C   UNL     1      -4.380  -0.810  -5.294  0.00  0.00    -0.096 C 
ATOM     25  H   UNL     1      -5.267  -0.559  -3.410  0.00  0.00    -0.082 HD
ATOM     26  C   UNL     1      -5.886   1.074  -4.650  0.00  0.00    -0.064 C 
ATOM     27  C   UNL     1      -7.103   1.456  -3.762  0.00  0.00    +0.066 C 
ENDBRANCH  19  20
ENDBRANCH  18  19
ENDBRANCH  14  15
ENDBRANCH  12  13
TORSDOF 6
ENDMDL
MODEL 5
REMARK VINA RESULT:      -6.3      4.075     13.850
REMARK  Name = C:\Users\Docking\Desktop\test protocol\1iep_ligandH.pdb
REMARK  8 active torsions:
REMARK  status: ('A' for Active; 'I' for Inactive)
REMARK    1  A    between atoms: _5  and  _11
REMARK    2  A    between atoms: _19  and  _21
REMARK    3  A    between atoms: _22  and  _66
REMARK    4  A    between atoms: _27  and  _30
REMARK    5  A    between atoms: _32  and  _33
REMARK    6  A    between atoms: _38  and  _43
REMARK    7  A    between atoms: _43  and  _46
REMARK    8  A    between atoms: _53  and  _55
REMARK                            x       y       z     vdW  Elec       q    Type
REMARK                         _______ _______ _______ _____ _____    ______ ____
ROOT
ATOM     10  C   UNL     1       4.692  15.827  -4.945  0.00  0.00    +0.038 A 
ATOM     11  C   UNL     1       5.422  16.152  -6.117  0.00  0.00    +0.047 A 
ATOM     12  C   UNL     1       6.842  15.858  -6.225  0.00  0.00    +0.035 A 
ATOM     32  C   UNL     1       7.488  15.229  -5.121  0.00  0.00    +0.024 A 
ATOM     33  C   UNL     1       6.762  14.893  -3.922  0.00  0.00    +0.007 A 
ATOM     34  C   UNL     1       5.361  15.183  -3.808  0.00  0.00    -0.029 A 
ATOM     35  C   UNL     1       4.634  14.805  -2.496  0.00  0.00    +0.045 C 
ENDROOT
BRANCH  10   9
ATOM      4  C   UNL     1       0.064  14.584  -5.218  0.00  0.00    +0.077 A 
ATOM      5  C   UNL     1       0.387  13.217  -5.510  0.00  0.00    +0.048 A 
ATOM      6  C   UNL     1       1.756  12.877  -5.589  0.00  0.00    +0.116 A 
ATOM      7  N   UNL     1       2.722  13.839  -5.388  0.00  0.00    -0.223 NA
ATOM      8  C   UNL     1       2.376  15.149  -5.109  0.00  0.00    +0.220 A 
ATOM      9  N   UNL     1       3.330  16.132  -4.896  0.00  0.00    -0.283 N 
ATOM     36  H   UNL     1       3.034  17.088  -4.700  0.00  0.00    +0.155 HD
ATOM     37  N   UNL     1       1.075  15.500  -5.031  0.00  0.00    -0.214 NA
BRANCH   4   3
ATOM      1  C   UNL     1      -3.649  15.520  -6.015  0.00  0.00    +0.020 A 
ATOM      2  C   UNL     1      -2.309  15.008  -6.182  0.00  0.00    +0.013 A 
ATOM      3  C   UNL     1      -1.337  15.098  -5.099  0.00  0.00    +0.019 A 
ATOM     38  C   UNL     1      -1.757  15.716  -3.851  0.00  0.00    +0.120 A 
ATOM     39  N   UNL     1      -3.055  16.202  -3.720  0.00  0.00    -0.263 NA
ATOM     40  C   UNL     1      -3.998  16.122  -4.755  0.00  0.00    +0.111 A 
ENDBRANCH   4   3
ENDBRANCH  10   9
BRANCH  12  13
ATOM     13  N   UNL     1       7.637  16.172  -7.387  0.00  0.00    -0.281 N 
ATOM     14  C   UNL     1       8.495  17.245  -7.567  0.00  0.00    +0.248 C 
ATOM     30  O   UNL     1       8.547  18.220  -6.831  0.00  0.00    -0.270 OA
ATOM     31  H   UNL     1       7.557  15.525  -8.171  0.00  0.00    +0.155 HD
BRANCH  14  15
ATOM     15  C   UNL     1       9.418  17.242  -8.742  0.00  0.00    +0.037 A 
ATOM     16  C   UNL     1       9.846  15.988  -9.368  0.00  0.00    +0.013 A 
ATOM     17  C   UNL     1      10.752  16.012 -10.490  0.00  0.00    +0.005 A 
ATOM     18  C   UNL     1      11.234  17.296 -10.993  0.00  0.00    -0.033 A 
ATOM     28  C   UNL     1      10.789  18.525 -10.357  0.00  0.00    +0.005 A 
ATOM     29  C   UNL     1       9.903  18.505  -9.256  0.00  0.00    +0.013 A 
BRANCH  18  19
ATOM     19  C   UNL     1      12.218  17.416 -12.172  0.00  0.00    +0.119 C 
BRANCH  19  20
ATOM     20  N   UNL     1      11.690  17.983 -13.449  0.00  0.00    -0.302 NA
ATOM     21  C   UNL     1      11.837  19.506 -13.505  0.00  0.00    +0.066 C 
ATOM     22  C   UNL     1      11.300  20.080 -14.856  0.00  0.00    -0.064 C 
ATOM     23  N   UNL     1       9.838  19.670 -15.037  0.00  0.00    +0.379 N 
ATOM     24  C   UNL     1       9.313  20.257 -16.279  0.00  0.00    -0.096 C 
ATOM     25  H   UNL     1       9.258  20.101 -14.188  0.00  0.00    -0.082 HD
ATOM     26  C   UNL     1       9.683  18.157 -14.980  0.00  0.00    -0.064 C 
ATOM     27  C   UNL     1      10.246  17.593 -13.645  0.00  0.00    +0.066 C 
ENDBRANCH  19  20
ENDBRANCH  18  19
ENDBRANCH  14  15
ENDBRANCH  12  13
TORSDOF 6
ENDMDL
