MODEL 1
REMARK VINA RESULT:      -7.9      0.000      0.000
REMARK  Name = C:\Users\Docking\Desktop\test protocol\1iep_ligandH.pdb
REMARK  8 active torsions:
REMARK  status: ('A' for Active; 'I' for Inactive)
REMARK    1  A    between atoms: _5  and  _11
REMARK    2  A    between atoms: _19  and  _21
REMARK    3  A    between atoms: _22  and  _66
REMARK    4  A    between atoms: _27  and  _30
REMARK    5  A    between atoms: _32  and  _33
REMARK    6  A    between atoms: _38  and  _43
REMARK    7  A    between atoms: _43  and  _46
REMARK    8  A    between atoms: _53  and  _55
REMARK                            x       y       z     vdW  Elec       q    Type
REMARK                         _______ _______ _______ _____ _____    ______ ____
ROOT
ATOM     10  C   UNL     1       6.226 -11.014  13.455  0.00  0.00    +0.038 A 
ATOM     11  C   UNL     1       5.682 -12.120  14.156  0.00  0.00    +0.047 A 
ATOM     12  C   UNL     1       6.052 -12.392  15.536  0.00  0.00    +0.035 A 
ATOM     32  C   UNL     1       6.978 -11.515  16.173  0.00  0.00    +0.024 A 
ATOM     33  C   UNL     1       7.542 -10.387  15.475  0.00  0.00    +0.007 A 
ATOM     34  C   UNL     1       7.183 -10.115  14.112  0.00  0.00    -0.029 A 
ATOM     35  C   UNL     1       7.824  -8.895  13.411  0.00  0.00    +0.045 C 
ENDROOT
BRANCH  10   9
ATOM      4  C   UNL     1       5.777 -12.433   8.892  0.00  0.00    +0.077 A 
ATOM      5  C   UNL     1       6.397 -13.699   9.163  0.00  0.00    +0.048 A 
ATOM      6  C   UNL     1       6.824 -13.942  10.487  0.00  0.00    +0.116 A 
ATOM      7  N   UNL     1       6.639 -12.984  11.461  0.00  0.00    -0.223 NA
ATOM      8  C   UNL     1       6.039 -11.774  11.166  0.00  0.00    +0.220 A 
ATOM      9  N   UNL     1       5.836 -10.800  12.131  0.00  0.00    -0.283 N 
ATOM     36  H   UNL     1       5.397  -9.917  11.872  0.00  0.00    +0.155 HD
ATOM     37  N   UNL     1       5.624 -11.517   9.908  0.00  0.00    -0.214 NA
BRANCH   4   3
ATOM      1  C   UNL     1       3.529 -12.026   5.717  0.00  0.00    +0.020 A 
ATOM      2  C   UNL     1       3.972 -12.444   7.027  0.00  0.00    +0.013 A 
ATOM      3  C   UNL     1       5.271 -12.030   7.542  0.00  0.00    +0.019 A 
ATOM     38  C   UNL     1       6.104 -11.185   6.700  0.00  0.00    +0.120 A 
ATOM     39  N   UNL     1       5.652 -10.799   5.442  0.00  0.00    -0.263 NA
ATOM     40  C   UNL     1       4.405 -11.193   4.935  0.00  0.00    +0.111 A 
ENDBRANCH   4   3
ENDBRANCH  10   9
BRANCH  12  13
ATOM     13  N   UNL     1       5.537 -13.504  16.297  0.00  0.00    -0.281 N 
ATOM     14  C   UNL     1       4.430 -13.527  17.128  0.00  0.00    +0.248 C 
ATOM     30  O   UNL     1       3.834 -12.532  17.514  0.00  0.00    -0.270 OA
ATOM     31  H   UNL     1       6.052 -14.380  16.211  0.00  0.00    +0.155 HD
BRANCH  14  15
ATOM     15  C   UNL     1       3.919 -14.845  17.614  0.00  0.00    +0.037 A 
ATOM     16  C   UNL     1       4.405 -15.435  18.864  0.00  0.00    +0.013 A 
ATOM     17  C   UNL     1       3.908 -16.716  19.301  0.00  0.00    +0.005 A 
ATOM     18  C   UNL     1       2.918 -17.415  18.486  0.00  0.00    -0.033 A 
ATOM     28  C   UNL     1       2.450 -16.805  17.253  0.00  0.00    +0.005 A 
ATOM     29  C   UNL     1       2.935 -15.551  16.821  0.00  0.00    +0.013 A 
BRANCH  18  19
ATOM     19  C   UNL     1       2.349 -18.796  18.864  0.00  0.00    +0.119 C 
BRANCH  19  20
ATOM     20  N   UNL     1       1.610 -19.544  17.804  0.00  0.00    -0.302 NA
ATOM     21  C   UNL     1       0.585 -20.516  18.395  0.00  0.00    +0.066 C 
ATOM     22  C   UNL     1      -0.194 -21.274  17.271  0.00  0.00    -0.064 C 
ATOM     23  N   UNL     1       0.801 -22.015  16.376  0.00  0.00    +0.379 N 
ATOM     24  C   UNL     1       0.068 -22.776  15.353  0.00  0.00    -0.096 C 
ATOM     25  H   UNL     1       1.350 -22.747  17.014  0.00  0.00    -0.082 HD
ATOM     26  C   UNL     1       1.826 -21.057  15.786  0.00  0.00    -0.064 C 
ATOM     27  C   UNL     1       2.574 -20.287  16.910  0.00  0.00    +0.066 C 
ENDBRANCH  19  20
ENDBRANCH  18  19
ENDBRANCH  14  15
ENDBRANCH  12  13
TORSDOF 6
ENDMDL
MODEL 2
REMARK VINA RESULT:      -7.9     31.296     35.238
REMARK  Name = C:\Users\Docking\Desktop\test protocol\1iep_ligandH.pdb
REMARK  8 active torsions:
REMARK  status: ('A' for Active; 'I' for Inactive)
REMARK    1  A    between atoms: _5  and  _11
REMARK    2  A    between atoms: _19  and  _21
REMARK    3  A    between atoms: _22  and  _66
REMARK    4  A    between atoms: _27  and  _30
REMARK    5  A    between atoms: _32  and  _33
REMARK    6  A    between atoms: _38  and  _43
REMARK    7  A    between atoms: _43  and  _46
REMARK    8  A    between atoms: _53  and  _55
REMARK                            x       y       z     vdW  Elec       q    Type
REMARK                         _______ _______ _______ _____ _____    ______ ____
ROOT
ATOM     10  C   UNL     1     -17.618  -2.736  -5.780  0.00  0.00    +0.038 A 
ATOM     11  C   UNL     1     -17.165  -2.888  -7.116  0.00  0.00    +0.047 A 
ATOM     12  C   UNL     1     -16.714  -4.178  -7.615  0.00  0.00    +0.035 A 
ATOM     32  C   UNL     1     -16.739  -5.292  -6.727  0.00  0.00    +0.024 A 
ATOM     33  C   UNL     1     -17.195  -5.155  -5.366  0.00  0.00    +0.007 A 
ATOM     34  C   UNL     1     -17.639  -3.885  -4.867  0.00  0.00    -0.029 A 
ATOM     35  C   UNL     1     -18.111  -3.794  -3.397  0.00  0.00    +0.045 C 
ENDROOT
BRANCH  10   9
ATOM      4  C   UNL     1     -21.050   0.487  -4.846  0.00  0.00    +0.077 A 
ATOM      5  C   UNL     1     -22.088  -0.408  -5.269  0.00  0.00    +0.048 A 
ATOM      6  C   UNL     1     -21.696  -1.686  -5.726  0.00  0.00    +0.116 A 
ATOM      7  N   UNL     1     -20.362  -2.033  -5.754  0.00  0.00    -0.223 NA
ATOM      8  C   UNL     1     -19.386  -1.144  -5.342  0.00  0.00    +0.220 A 
ATOM      9  N   UNL     1     -18.040  -1.474  -5.354  0.00  0.00    -0.283 N 
ATOM     36  H   UNL     1     -17.350  -0.788  -5.048  0.00  0.00    +0.155 HD
ATOM     37  N   UNL     1     -19.735   0.083  -4.902  0.00  0.00    -0.214 NA
BRANCH   4   3
ATOM      1  C   UNL     1     -20.935   3.752  -2.695  0.00  0.00    +0.020 A 
ATOM      2  C   UNL     1     -20.653   2.409  -3.147  0.00  0.00    +0.013 A 
ATOM      3  C   UNL     1     -21.305   1.871  -4.334  0.00  0.00    +0.019 A 
ATOM     38  C   UNL     1     -22.242   2.725  -5.048  0.00  0.00    +0.120 A 
ATOM     39  N   UNL     1     -22.494   4.014  -4.589  0.00  0.00    -0.263 NA
ATOM     40  C   UNL     1     -21.875   4.542  -3.446  0.00  0.00    +0.111 A 
ENDBRANCH   4   3
ENDBRANCH  10   9
BRANCH  12  13
ATOM     13  N   UNL     1     -16.237  -4.392  -8.959  0.00  0.00    -0.281 N 
ATOM     14  C   UNL     1     -16.986  -4.575 -10.109  0.00  0.00    +0.248 C 
ATOM     30  O   UNL     1     -18.187  -4.797 -10.124  0.00  0.00    -0.270 OA
ATOM     31  H   UNL     1     -15.223  -4.410  -9.075  0.00  0.00    +0.155 HD
BRANCH  14  15
ATOM     15  C   UNL     1     -16.298  -4.518 -11.435  0.00  0.00    +0.037 A 
ATOM     16  C   UNL     1     -16.459  -3.366 -12.326  0.00  0.00    +0.013 A 
ATOM     17  C   UNL     1     -15.798  -3.343 -13.607  0.00  0.00    +0.005 A 
ATOM     18  C   UNL     1     -14.968  -4.478 -14.004  0.00  0.00    -0.033 A 
ATOM     28  C   UNL     1     -14.821  -5.605 -13.098  0.00  0.00    +0.005 A 
ATOM     29  C   UNL     1     -15.468  -5.631 -11.843  0.00  0.00    +0.013 A 
BRANCH  18  19
ATOM     19  C   UNL     1     -14.242  -4.549 -15.360  0.00  0.00    +0.119 C 
BRANCH  19  20
ATOM     20  N   UNL     1     -12.750  -4.493 -15.342  0.00  0.00    -0.302 NA
ATOM     21  C   UNL     1     -12.228  -3.056 -15.424  0.00  0.00    +0.066 C 
ATOM     22  C   UNL     1     -10.666  -3.014 -15.381  0.00  0.00    -0.064 C 
ATOM     23  N   UNL     1     -10.104  -3.861 -16.524  0.00  0.00    +0.379 N 
ATOM     24  C   UNL     1      -8.636  -3.777 -16.521  0.00  0.00    -0.096 C 
ATOM     25  H   UNL     1     -10.466  -3.419 -17.481  0.00  0.00    -0.082 HD
ATOM     26  C   UNL     1     -10.620  -5.291 -16.451  0.00  0.00    -0.064 C 
ATOM     27  C   UNL     1     -12.174  -5.319 -16.465  0.00  0.00    +0.066 C 
ENDBRANCH  19  20
ENDBRANCH  18  19
ENDBRANCH  14  15
ENDBRANCH  12  13
TORSDOF 6
ENDMDL
MODEL 3
REMARK VINA RESULT:      -7.8     19.836     25.872
REMARK  Name = C:\Users\Docking\Desktop\test protocol\1iep_ligandH.pdb
REMARK  8 active torsions:
REMARK  status: ('A' for Active; 'I' for Inactive)
REMARK    1  A    between atoms: _5  and  _11
REMARK    2  A    between atoms: _19  and  _21
REMARK    3  A    between atoms: _22  and  _66
REMARK    4  A    between atoms: _27  and  _30
REMARK    5  A    between atoms: _32  and  _33
REMARK    6  A    between atoms: _38  and  _43
REMARK    7  A    between atoms: _43  and  _46
REMARK    8  A    between atoms: _53  and  _55
REMARK                            x       y       z     vdW  Elec       q    Type
REMARK                         _______ _______ _______ _____ _____    ______ ____
ROOT
ATOM     10  C   UNL     1      24.063  -5.783  -3.782  0.00  0.00    +0.038 A 
ATOM     11  C   UNL     1      23.126  -6.846  -3.826  0.00  0.00    +0.047 A 
ATOM     12  C   UNL     1      21.714  -6.595  -4.072  0.00  0.00    +0.035 A 
ATOM     32  C   UNL     1      21.293  -5.248  -4.272  0.00  0.00    +0.024 A 
ATOM     33  C   UNL     1      22.232  -4.155  -4.230  0.00  0.00    +0.007 A 
ATOM     34  C   UNL     1      23.625  -4.397  -3.985  0.00  0.00    -0.029 A 
ATOM     35  C   UNL     1      24.586  -3.186  -3.944  0.00  0.00    +0.045 C 
ENDROOT
BRANCH  10   9
ATOM      4  C   UNL     1      27.838  -6.248  -0.854  0.00  0.00    +0.077 A 
ATOM      5  C   UNL     1      27.077  -5.836   0.290  0.00  0.00    +0.048 A 
ATOM      6  C   UNL     1      25.719  -5.506   0.081  0.00  0.00    +0.116 A 
ATOM      7  N   UNL     1      25.173  -5.586  -1.182  0.00  0.00    -0.223 NA
ATOM      8  C   UNL     1      25.936  -5.986  -2.264  0.00  0.00    +0.220 A 
ATOM      9  N   UNL     1      25.407  -6.081  -3.542  0.00  0.00    -0.283 N 
ATOM     36  H   UNL     1      26.004  -6.373  -4.315  0.00  0.00    +0.155 HD
ATOM     37  N   UNL     1      27.236  -6.304  -2.091  0.00  0.00    -0.214 NA
BRANCH   4   3
ATOM      1  C   UNL     1      31.342  -7.749  -1.732  0.00  0.00    +0.020 A 
ATOM      2  C   UNL     1      29.943  -7.405  -1.839  0.00  0.00    +0.013 A 
ATOM      3  C   UNL     1      29.284  -6.632  -0.793  0.00  0.00    +0.019 A 
ATOM     38  C   UNL     1      30.076  -6.218   0.355  0.00  0.00    +0.120 A 
ATOM     39  N   UNL     1      31.421  -6.565   0.431  0.00  0.00    -0.263 NA
ATOM     40  C   UNL     1      32.065  -7.311  -0.568  0.00  0.00    +0.111 A 
ENDBRANCH   4   3
ENDBRANCH  10   9
BRANCH  12  13
ATOM     13  N   UNL     1      20.715  -7.633  -4.120  0.00  0.00    -0.281 N 
ATOM     14  C   UNL     1      19.700  -7.881  -3.210  0.00  0.00    +0.248 C 
ATOM     30  O   UNL     1      19.628  -7.374  -2.100  0.00  0.00    -0.270 OA
ATOM     31  H   UNL     1      20.762  -8.262  -4.921  0.00  0.00    +0.155 HD
BRANCH  14  15
ATOM     15  C   UNL     1      18.616  -8.841  -3.581  0.00  0.00    +0.037 A 
ATOM     16  C   UNL     1      18.628  -9.540  -4.868  0.00  0.00    +0.013 A 
ATOM     17  C   UNL     1      17.562 -10.448  -5.209  0.00  0.00    +0.005 A 
ATOM     18  C   UNL     1      16.473 -10.662  -4.258  0.00  0.00    -0.033 A 
ATOM     28  C   UNL     1      16.489  -9.959  -2.986  0.00  0.00    +0.005 A 
ATOM     29  C   UNL     1      17.532  -9.068  -2.649  0.00  0.00    +0.013 A 
BRANCH  18  19
ATOM     19  C   UNL     1      15.283 -11.597  -4.546  0.00  0.00    +0.119 C 
BRANCH  19  20
ATOM     20  N   UNL     1      13.993 -11.292  -3.858  0.00  0.00    -0.302 NA
ATOM     21  C   UNL     1      13.341 -12.550  -3.277  0.00  0.00    +0.066 C 
ATOM     22  C   UNL     1      12.003 -12.210  -2.542  0.00  0.00    -0.064 C 
ATOM     23  N   UNL     1      11.054 -11.508  -3.515  0.00  0.00    +0.379 N 
ATOM     24  C   UNL     1       9.774 -11.239  -2.843  0.00  0.00    -0.096 C 
ATOM     25  H   UNL     1      10.853 -12.210  -4.357  0.00  0.00    -0.082 HD
ATOM     26  C   UNL     1      11.696 -10.257  -4.099  0.00  0.00    -0.064 C 
ATOM     27  C   UNL     1      13.039 -10.602  -4.802  0.00  0.00    +0.066 C 
ENDBRANCH  19  20
ENDBRANCH  18  19
ENDBRANCH  14  15
ENDBRANCH  12  13
TORSDOF 6
ENDMDL
MODEL 4
REMARK VINA RESULT:      -7.8     30.917     34.322
REMARK  Name = C:\Users\Docking\Desktop\test protocol\1iep_ligandH.pdb
REMARK  8 active torsions:
REMARK  status: ('A' for Active; 'I' for Inactive)
REMARK    1  A    between atoms: _5  and  _11
REMARK    2  A    between atoms: _19  and  _21
REMARK    3  A    between atoms: _22  and  _66
REMARK    4  A    between atoms: _27  and  _30
REMARK    5  A    between atoms: _32  and  _33
REMARK    6  A    between atoms: _38  and  _43
REMARK    7  A    between atoms: _43  and  _46
REMARK    8  A    between atoms: _53  and  _55
REMARK                            x       y       z     vdW  Elec       q    Type
REMARK                         _______ _______ _______ _____ _____    ______ ____
ROOT
ATOM     10  C   UNL     1      21.862 -42.798   0.499  0.00  0.00    +0.038 A 
ATOM     11  C   UNL     1      20.687 -42.050   0.769  0.00  0.00    +0.047 A 
ATOM     12  C   UNL     1      19.416 -42.397   0.152  0.00  0.00    +0.035 A 
ATOM     32  C   UNL     1      19.377 -43.514  -0.732  0.00  0.00    +0.024 A 
ATOM     33  C   UNL     1      20.561 -44.285  -1.018  0.00  0.00    +0.007 A 
ATOM     34  C   UNL     1      21.818 -43.946  -0.415  0.00  0.00    -0.029 A 
ATOM     35  C   UNL     1      23.057 -44.804  -0.763  0.00  0.00    +0.045 C 
ENDROOT
BRANCH  10   9
ATOM      4  C   UNL     1      25.002 -43.015   4.123  0.00  0.00    +0.077 A 
ATOM      5  C   UNL     1      24.182 -43.937   4.856  0.00  0.00    +0.048 A 
ATOM      6  C   UNL     1      22.957 -44.324   4.269  0.00  0.00    +0.116 A 
ATOM      7  N   UNL     1      22.589 -43.822   3.039  0.00  0.00    -0.223 NA
ATOM      8  C   UNL     1      23.402 -42.933   2.360  0.00  0.00    +0.220 A 
ATOM      9  N   UNL     1      23.055 -42.421   1.119  0.00  0.00    -0.283 N 
ATOM     36  H   UNL     1      23.679 -41.762   0.653  0.00  0.00    +0.155 HD
ATOM     37  N   UNL     1      24.576 -42.546   2.900  0.00  0.00    -0.214 NA
BRANCH   4   3
ATOM      1  C   UNL     1      27.838 -41.559   6.389  0.00  0.00    +0.020 A 
ATOM      2  C   UNL     1      26.540 -42.033   5.969  0.00  0.00    +0.013 A 
ATOM      3  C   UNL     1      26.326 -42.513   4.610  0.00  0.00    +0.019 A 
ATOM     38  C   UNL     1      27.456 -42.502   3.693  0.00  0.00    +0.120 A 
ATOM     39  N   UNL     1      28.695 -42.039   4.125  0.00  0.00    -0.263 NA
ATOM     40  C   UNL     1      28.912 -41.572   5.430  0.00  0.00    +0.111 A 
ENDBRANCH   4   3
ENDBRANCH  10   9
BRANCH  12  13
ATOM     13  N   UNL     1      18.193 -41.669   0.381  0.00  0.00    -0.281 N 
ATOM     14  C   UNL     1      17.594 -40.729  -0.441  0.00  0.00    +0.248 C 
ATOM     30  O   UNL     1      18.135 -40.212  -1.408  0.00  0.00    -0.270 OA
ATOM     31  H   UNL     1      17.709 -41.871   1.256  0.00  0.00    +0.155 HD
BRANCH  14  15
ATOM     15  C   UNL     1      16.198 -40.289  -0.139  0.00  0.00    +0.037 A 
ATOM     16  C   UNL     1      15.386 -39.593  -1.141  0.00  0.00    +0.013 A 
ATOM     17  C   UNL     1      14.049 -39.165  -0.817  0.00  0.00    +0.005 A 
ATOM     18  C   UNL     1      13.514 -39.432   0.516  0.00  0.00    -0.033 A 
ATOM     28  C   UNL     1      14.339 -40.128   1.489  0.00  0.00    +0.005 A 
ATOM     29  C   UNL     1      15.651 -40.549   1.176  0.00  0.00    +0.013 A 
BRANCH  18  19
ATOM     19  C   UNL     1      12.105 -38.992   0.956  0.00  0.00    +0.119 C 
BRANCH  19  20
ATOM     20  N   UNL     1      11.238 -38.345  -0.074  0.00  0.00    -0.302 NA
ATOM     21  C   UNL     1      11.238 -36.819   0.052  0.00  0.00    +0.066 C 
ATOM     22  C   UNL     1      10.345 -36.157  -1.048  0.00  0.00    -0.064 C 
ATOM     23  N   UNL     1       8.922 -36.709  -0.944  0.00  0.00    +0.379 N 
ATOM     24  C   UNL     1       8.065 -36.046  -1.939  0.00  0.00    -0.096 C 
ATOM     25  H   UNL     1       8.531 -36.448   0.067  0.00  0.00    -0.082 HD
ATOM     26  C   UNL     1       8.913 -38.226  -1.066  0.00  0.00    -0.064 C 
ATOM     27  C   UNL     1       9.827 -38.872   0.012  0.00  0.00    +0.066 C 
ENDBRANCH  19  20
ENDBRANCH  18  19
ENDBRANCH  14  15
ENDBRANCH  12  13
TORSDOF 6
ENDMDL
MODEL 5
REMARK VINA RESULT:      -7.7      2.744      3.529
REMARK  Name = C:\Users\Docking\Desktop\test protocol\1iep_ligandH.pdb
REMARK  8 active torsions:
REMARK  status: ('A' for Active; 'I' for Inactive)
REMARK    1  A    between atoms: _5  and  _11
REMARK    2  A    between atoms: _19  and  _21
REMARK    3  A    between atoms: _22  and  _66
REMARK    4  A    between atoms: _27  and  _30
REMARK    5  A    between atoms: _32  and  _33
REMARK    6  A    between atoms: _38  and  _43
REMARK    7  A    between atoms: _43  and  _46
REMARK    8  A    between atoms: _53  and  _55
REMARK                            x       y       z     vdW  Elec       q    Type
REMARK                         _______ _______ _______ _____ _____    ______ ____
ROOT
ATOM     10  C   UNL     1       9.518 -11.616  12.557  0.00  0.00    +0.038 A 
ATOM     11  C   UNL     1       8.831 -12.212  13.645  0.00  0.00    +0.047 A 
ATOM     12  C   UNL     1       9.548 -12.678  14.822  0.00  0.00    +0.035 A 
ATOM     32  C   UNL     1      10.964 -12.520  14.858  0.00  0.00    +0.024 A 
ATOM     33  C   UNL     1      11.678 -11.917  13.760  0.00  0.00    +0.007 A 
ATOM     34  C   UNL     1      10.976 -11.457  12.595  0.00  0.00    -0.029 A 
ATOM     35  C   UNL     1      11.794 -10.825  11.445  0.00  0.00    +0.045 C 
ENDROOT
BRANCH  10   9
ATOM      4  C   UNL     1       6.399 -12.385   8.990  0.00  0.00    +0.077 A 
ATOM      5  C   UNL     1       6.247 -13.768   9.342  0.00  0.00    +0.048 A 
ATOM      6  C   UNL     1       6.995 -14.243  10.442  0.00  0.00    +0.116 A 
ATOM      7  N   UNL     1       7.829 -13.390  11.133  0.00  0.00    -0.223 NA
ATOM      8  C   UNL     1       7.953 -12.063  10.767  0.00  0.00    +0.220 A 
ATOM      9  N   UNL     1       8.780 -11.186  11.452  0.00  0.00    -0.283 N 
ATOM     36  H   UNL     1       8.849 -10.215  11.146  0.00  0.00    +0.155 HD
ATOM     37  N   UNL     1       7.251 -11.585   9.718  0.00  0.00    -0.214 NA
BRANCH   4   3
ATOM      1  C   UNL     1       3.858 -11.669   6.103  0.00  0.00    +0.020 A 
ATOM      2  C   UNL     1       4.524 -12.340   7.196  0.00  0.00    +0.013 A 
ATOM      3  C   UNL     1       5.674 -11.733   7.854  0.00  0.00    +0.019 A 
ATOM     38  C   UNL     1       6.128 -10.435   7.379  0.00  0.00    +0.120 A 
ATOM     39  N   UNL     1       5.469  -9.813   6.324  0.00  0.00    -0.263 NA
ATOM     40  C   UNL     1       4.362 -10.388   5.682  0.00  0.00    +0.111 A 
ENDBRANCH   4   3
ENDBRANCH  10   9
BRANCH  12  13
ATOM     13  N   UNL     1       8.905 -13.299  15.954  0.00  0.00    -0.281 N 
ATOM     14  C   UNL     1       8.011 -12.727  16.845  0.00  0.00    +0.248 C 
ATOM     30  O   UNL     1       7.790 -11.528  16.929  0.00  0.00    -0.270 OA
ATOM     31  H   UNL     1       9.138 -14.278  16.120  0.00  0.00    +0.155 HD
BRANCH  14  15
ATOM     15  C   UNL     1       7.264 -13.614  17.788  0.00  0.00    +0.037 A 
ATOM     16  C   UNL     1       7.917 -14.193  18.965  0.00  0.00    +0.013 A 
ATOM     17  C   UNL     1       7.179 -15.059  19.849  0.00  0.00    +0.005 A 
ATOM     18  C   UNL     1       5.777 -15.351  19.560  0.00  0.00    -0.033 A 
ATOM     28  C   UNL     1       5.152 -14.759  18.388  0.00  0.00    +0.005 A 
ATOM     29  C   UNL     1       5.873 -13.910  17.518  0.00  0.00    +0.013 A 
BRANCH  18  19
ATOM     19  C   UNL     1       4.918 -16.281  20.436  0.00  0.00    +0.119 C 
BRANCH  19  20
ATOM     20  N   UNL     1       4.749 -17.692  19.976  0.00  0.00    -0.302 NA
ATOM     21  C   UNL     1       3.343 -18.225  20.262  0.00  0.00    +0.066 C 
ATOM     22  C   UNL     1       3.177 -19.694  19.753  0.00  0.00    -0.064 C 
ATOM     23  N   UNL     1       4.236 -20.581  20.410  0.00  0.00    +0.379 N 
ATOM     24  C   UNL     1       4.047 -21.973  19.979  0.00  0.00    -0.096 C 
ATOM     25  H   UNL     1       4.073 -20.543  21.512  0.00  0.00    -0.082 HD
ATOM     26  C   UNL     1       5.638 -20.056  20.134  0.00  0.00    -0.064 C 
ATOM     27  C   UNL     1       5.783 -18.586  20.616  0.00  0.00    +0.066 C 
ENDBRANCH  19  20
ENDBRANCH  18  19
ENDBRANCH  14  15
ENDBRANCH  12  13
TORSDOF 6
ENDMDL
