MODEL 1
REMARK VINA RESULT:     -10.2      0.000      0.000
REMARK  Name = C:\Users\Docking\Desktop\test protocol\1iep_ligandH.pdb
REMARK  8 active torsions:
REMARK  status: ('A' for Active; 'I' for Inactive)
REMARK    1  A    between atoms: _5  and  _11
REMARK    2  A    between atoms: _19  and  _21
REMARK    3  A    between atoms: _22  and  _66
REMARK    4  A    between atoms: _27  and  _30
REMARK    5  A    between atoms: _32  and  _33
REMARK    6  A    between atoms: _38  and  _43
REMARK    7  A    between atoms: _43  and  _46
REMARK    8  A    between atoms: _53  and  _55
REMARK                            x       y       z     vdW  Elec       q    Type
REMARK                         _______ _______ _______ _____ _____    ______ ____
ROOT
ATOM     10  C   UNL     1      21.075  25.191  15.278  0.00  0.00    +0.038 A 
ATOM     11  C   UNL     1      22.391  25.689  15.098  0.00  0.00    +0.047 A 
ATOM     12  C   UNL     1      22.718  27.076  15.390  0.00  0.00    +0.035 A 
ATOM     32  C   UNL     1      21.679  27.929  15.867  0.00  0.00    +0.024 A 
ATOM     33  C   UNL     1      20.336  27.440  16.054  0.00  0.00    +0.007 A 
ATOM     34  C   UNL     1      20.008  26.073  15.765  0.00  0.00    -0.029 A 
ATOM     35  C   UNL     1      18.549  25.605  15.978  0.00  0.00    +0.045 C 
ENDROOT
BRANCH  10   9
ATOM      4  C   UNL     1      19.452  21.735  12.370  0.00  0.00    +0.077 A 
ATOM      5  C   UNL     1      19.059  22.682  11.366  0.00  0.00    +0.048 A 
ATOM      6  C   UNL     1      19.286  24.050  11.640  0.00  0.00    +0.116 A 
ATOM      7  N   UNL     1      19.863  24.430  12.832  0.00  0.00    -0.223 NA
ATOM      8  C   UNL     1      20.228  23.491  13.779  0.00  0.00    +0.220 A 
ATOM      9  N   UNL     1      20.818  23.851  14.982  0.00  0.00    -0.283 N 
ATOM     36  H   UNL     1      21.066  23.129  15.657  0.00  0.00    +0.155 HD
ATOM     37  N   UNL     1      20.021  22.179  13.542  0.00  0.00    -0.214 NA
BRANCH   4   3
ATOM      1  C   UNL     1      19.786  18.042  11.124  0.00  0.00    +0.020 A 
ATOM      2  C   UNL     1      19.987  19.470  11.221  0.00  0.00    +0.013 A 
ATOM      3  C   UNL     1      19.281  20.255  12.226  0.00  0.00    +0.019 A 
ATOM     38  C   UNL     1      18.373  19.559  13.125  0.00  0.00    +0.120 A 
ATOM     39  N   UNL     1      18.198  18.184  13.007  0.00  0.00    -0.263 NA
ATOM     40  C   UNL     1      18.871  17.418  12.043  0.00  0.00    +0.111 A 
ENDBRANCH   4   3
ENDBRANCH  10   9
BRANCH  12  13
ATOM     13  N   UNL     1      24.034  27.640  15.219  0.00  0.00    -0.281 N 
ATOM     14  C   UNL     1      25.002  27.852  16.188  0.00  0.00    +0.248 C 
ATOM     30  O   UNL     1      24.801  27.786  17.391  0.00  0.00    -0.270 OA
ATOM     31  H   UNL     1      24.282  27.916  14.269  0.00  0.00    +0.155 HD
BRANCH  14  15
ATOM     15  C   UNL     1      26.389  28.203  15.757  0.00  0.00    +0.037 A 
ATOM     16  C   UNL     1      26.906  29.567  15.895  0.00  0.00    +0.013 A 
ATOM     17  C   UNL     1      28.242  29.882  15.456  0.00  0.00    +0.005 A 
ATOM     18  C   UNL     1      29.072  28.829  14.875  0.00  0.00    -0.033 A 
ATOM     28  C   UNL     1      28.536  27.484  14.755  0.00  0.00    +0.005 A 
ATOM     29  C   UNL     1      27.227  27.171  15.183  0.00  0.00    +0.013 A 
BRANCH  18  19
ATOM     19  C   UNL     1      30.502  29.080  14.361  0.00  0.00    +0.119 C 
BRANCH  19  20
ATOM     20  N   UNL     1      30.843  28.552  13.006  0.00  0.00    -0.302 NA
ATOM     21  C   UNL     1      31.690  27.279  13.083  0.00  0.00    +0.066 C 
ATOM     22  C   UNL     1      32.019  26.728  11.657  0.00  0.00    -0.064 C 
ATOM     23  N   UNL     1      32.739  27.809  10.849  0.00  0.00    +0.379 N 
ATOM     24  C   UNL     1      33.101  27.274   9.528  0.00  0.00    -0.096 C 
ATOM     25  H   UNL     1      33.684  28.058  11.384  0.00  0.00    -0.082 HD
ATOM     26  C   UNL     1      31.905  29.080  10.770  0.00  0.00    -0.064 C 
ATOM     27  C   UNL     1      31.559  29.602  12.192  0.00  0.00    +0.066 C 
ENDBRANCH  19  20
ENDBRANCH  18  19
ENDBRANCH  14  15
ENDBRANCH  12  13
TORSDOF 6
ENDMDL
MODEL 2
REMARK VINA RESULT:      -9.9      6.299     14.702
REMARK  Name = C:\Users\Docking\Desktop\test protocol\1iep_ligandH.pdb
REMARK  8 active torsions:
REMARK  status: ('A' for Active; 'I' for Inactive)
REMARK    1  A    between atoms: _5  and  _11
REMARK    2  A    between atoms: _19  and  _21
REMARK    3  A    between atoms: _22  and  _66
REMARK    4  A    between atoms: _27  and  _30
REMARK    5  A    between atoms: _32  and  _33
REMARK    6  A    between atoms: _38  and  _43
REMARK    7  A    between atoms: _43  and  _46
REMARK    8  A    between atoms: _53  and  _55
REMARK                            x       y       z     vdW  Elec       q    Type
REMARK                         _______ _______ _______ _____ _____    ______ ____
ROOT
ATOM     10  C   UNL     1      20.056  23.296  14.271  0.00  0.00    +0.038 A 
ATOM     11  C   UNL     1      18.882  23.513  15.037  0.00  0.00    +0.047 A 
ATOM     12  C   UNL     1      17.611  22.920  14.649  0.00  0.00    +0.035 A 
ATOM     32  C   UNL     1      17.573  22.110  13.477  0.00  0.00    +0.024 A 
ATOM     33  C   UNL     1      18.757  21.881  12.686  0.00  0.00    +0.007 A 
ATOM     34  C   UNL     1      20.012  22.465  13.063  0.00  0.00    -0.029 A 
ATOM     35  C   UNL     1      21.248  22.190  12.174  0.00  0.00    +0.045 C 
ENDROOT
BRANCH  10   9
ATOM      4  C   UNL     1      22.770  27.143  15.206  0.00  0.00    +0.077 A 
ATOM      5  C   UNL     1      21.732  28.047  14.801  0.00  0.00    +0.048 A 
ATOM      6  C   UNL     1      20.518  27.482  14.351  0.00  0.00    +0.116 A 
ATOM      7  N   UNL     1      20.364  26.113  14.315  0.00  0.00    -0.223 NA
ATOM      8  C   UNL     1      21.385  25.269  14.711  0.00  0.00    +0.220 A 
ATOM      9  N   UNL     1      21.249  23.890  14.690  0.00  0.00    -0.283 N 
ATOM     36  H   UNL     1      22.029  23.301  14.983  0.00  0.00    +0.155 HD
ATOM     37  N   UNL     1      22.555  25.784  15.142  0.00  0.00    -0.214 NA
BRANCH   4   3
ATOM      1  C   UNL     1      25.726  29.355  16.500  0.00  0.00    +0.020 A 
ATOM      2  C   UNL     1      24.417  28.978  16.018  0.00  0.00    +0.013 A 
ATOM      3  C   UNL     1      24.109  27.588  15.707  0.00  0.00    +0.019 A 
ATOM     38  C   UNL     1      25.156  26.595  15.897  0.00  0.00    +0.120 A 
ATOM     39  N   UNL     1      26.407  26.988  16.361  0.00  0.00    -0.263 NA
ATOM     40  C   UNL     1      26.716  28.323  16.662  0.00  0.00    +0.111 A 
ENDBRANCH   4   3
ENDBRANCH  10   9
BRANCH  12  13
ATOM     13  N   UNL     1      16.384  23.111  15.382  0.00  0.00    -0.281 N 
ATOM     14  C   UNL     1      15.936  22.410  16.490  0.00  0.00    +0.248 C 
ATOM     30  O   UNL     1      16.427  21.365  16.891  0.00  0.00    -0.270 OA
ATOM     31  H   UNL     1      15.771  23.853  15.044  0.00  0.00    +0.155 HD
BRANCH  14  15
ATOM     15  C   UNL     1      14.765  22.938  17.254  0.00  0.00    +0.037 A 
ATOM     16  C   UNL     1      13.416  22.924  16.682  0.00  0.00    +0.013 A 
ATOM     17  C   UNL     1      12.307  23.456  17.434  0.00  0.00    +0.005 A 
ATOM     18  C   UNL     1      12.542  24.005  18.767  0.00  0.00    -0.033 A 
ATOM     28  C   UNL     1      13.890  24.001  19.312  0.00  0.00    +0.005 A 
ATOM     29  C   UNL     1      14.980  23.482  18.578  0.00  0.00    +0.013 A 
BRANCH  18  19
ATOM     19  C   UNL     1      11.421  24.612  19.632  0.00  0.00    +0.119 C 
BRANCH  19  20
ATOM     20  N   UNL     1      10.077  23.965  19.562  0.00  0.00    -0.302 NA
ATOM     21  C   UNL     1       9.119  24.729  18.644  0.00  0.00    +0.066 C 
ATOM     22  C   UNL     1       7.725  24.026  18.565  0.00  0.00    -0.064 C 
ATOM     23  N   UNL     1       7.140  23.898  19.973  0.00  0.00    +0.379 N 
ATOM     24  C   UNL     1       5.804  23.289  19.896  0.00  0.00    -0.096 C 
ATOM     25  H   UNL     1       7.021  24.927  20.384  0.00  0.00    -0.082 HD
ATOM     26  C   UNL     1       8.089  23.141  20.892  0.00  0.00    -0.064 C 
ATOM     27  C   UNL     1       9.480  23.832  20.941  0.00  0.00    +0.066 C 
ENDBRANCH  19  20
ENDBRANCH  18  19
ENDBRANCH  14  15
ENDBRANCH  12  13
TORSDOF 6
ENDMDL
MODEL 3
REMARK VINA RESULT:      -9.8      1.931     12.082
REMARK  Name = C:\Users\Docking\Desktop\test protocol\1iep_ligandH.pdb
REMARK  8 active torsions:
REMARK  status: ('A' for Active; 'I' for Inactive)
REMARK    1  A    between atoms: _5  and  _11
REMARK    2  A    between atoms: _19  and  _21
REMARK    3  A    between atoms: _22  and  _66
REMARK    4  A    between atoms: _27  and  _30
REMARK    5  A    between atoms: _32  and  _33
REMARK    6  A    between atoms: _38  and  _43
REMARK    7  A    between atoms: _43  and  _46
REMARK    8  A    between atoms: _53  and  _55
REMARK                            x       y       z     vdW  Elec       q    Type
REMARK                         _______ _______ _______ _____ _____    ______ ____
ROOT
ATOM     10  C   UNL     1      26.271  28.067  16.187  0.00  0.00    +0.038 A 
ATOM     11  C   UNL     1      25.349  27.239  15.496  0.00  0.00    +0.047 A 
ATOM     12  C   UNL     1      24.306  26.518  16.208  0.00  0.00    +0.035 A 
ATOM     32  C   UNL     1      24.228  26.665  17.623  0.00  0.00    +0.024 A 
ATOM     33  C   UNL     1      25.157  27.502  18.341  0.00  0.00    +0.007 A 
ATOM     34  C   UNL     1      26.190  28.213  17.645  0.00  0.00    -0.029 A 
ATOM     35  C   UNL     1      27.163  29.091  18.467  0.00  0.00    +0.045 C 
ENDROOT
BRANCH  10   9
ATOM      4  C   UNL     1      30.575  28.267  14.072  0.00  0.00    +0.077 A 
ATOM      5  C   UNL     1      30.906  26.934  14.486  0.00  0.00    +0.048 A 
ATOM      6  C   UNL     1      29.944  26.233  15.248  0.00  0.00    +0.116 A 
ATOM      7  N   UNL     1      28.744  26.831  15.566  0.00  0.00    -0.223 NA
ATOM      8  C   UNL     1      28.457  28.119  15.152  0.00  0.00    +0.220 A 
ATOM      9  N   UNL     1      27.253  28.737  15.453  0.00  0.00    -0.283 N 
ATOM     36  H   UNL     1      27.083  29.690  15.135  0.00  0.00    +0.155 HD
ATOM     37  N   UNL     1      29.360  28.809  14.424  0.00  0.00    -0.214 NA
BRANCH   4   3
ATOM      1  C   UNL     1      32.411  29.965  11.064  0.00  0.00    +0.020 A 
ATOM      2  C   UNL     1      31.512  29.108  11.802  0.00  0.00    +0.013 A 
ATOM      3  C   UNL     1      31.486  29.133  13.259  0.00  0.00    +0.019 A 
ATOM     38  C   UNL     1      32.389  30.046  13.945  0.00  0.00    +0.120 A 
ATOM     39  N   UNL     1      33.244  30.859  13.208  0.00  0.00    -0.263 NA
ATOM     40  C   UNL     1      33.279  30.842  11.806  0.00  0.00    +0.111 A 
ENDBRANCH   4   3
ENDBRANCH  10   9
BRANCH  12  13
ATOM     13  N   UNL     1      23.347  25.657  15.561  0.00  0.00    -0.281 N 
ATOM     14  C   UNL     1      22.090  25.990  15.083  0.00  0.00    +0.248 C 
ATOM     30  O   UNL     1      21.510  27.036  15.333  0.00  0.00    -0.270 OA
ATOM     31  H   UNL     1      23.629  24.684  15.441  0.00  0.00    +0.155 HD
BRANCH  14  15
ATOM     15  C   UNL     1      21.366  25.012  14.214  0.00  0.00    +0.037 A 
ATOM     16  C   UNL     1      20.075  25.347  13.607  0.00  0.00    +0.013 A 
ATOM     17  C   UNL     1      19.390  24.379  12.787  0.00  0.00    +0.005 A 
ATOM     18  C   UNL     1      19.996  23.068  12.569  0.00  0.00    -0.033 A 
ATOM     28  C   UNL     1      21.279  22.764  13.180  0.00  0.00    +0.005 A 
ATOM     29  C   UNL     1      21.953  23.710  13.985  0.00  0.00    +0.013 A 
BRANCH  18  19
ATOM     19  C   UNL     1      19.325  21.967  11.726  0.00  0.00    +0.119 C 
BRANCH  19  20
ATOM     20  N   UNL     1      19.516  20.554  12.170  0.00  0.00    -0.302 NA
ATOM     21  C   UNL     1      19.860  19.625  11.002  0.00  0.00    +0.066 C 
ATOM     22  C   UNL     1      20.078  18.156  11.489  0.00  0.00    -0.064 C 
ATOM     23  N   UNL     1      18.822  17.670  12.215  0.00  0.00    +0.379 N 
ATOM     24  C   UNL     1      19.002  16.269  12.622  0.00  0.00    -0.096 C 
ATOM     25  H   UNL     1      17.977  17.705  11.488  0.00  0.00    -0.082 HD
ATOM     26  C   UNL     1      18.471  18.589  13.376  0.00  0.00    -0.064 C 
ATOM     27  C   UNL     1      18.285  20.052  12.886  0.00  0.00    +0.066 C 
ENDBRANCH  19  20
ENDBRANCH  18  19
ENDBRANCH  14  15
ENDBRANCH  12  13
TORSDOF 6
ENDMDL
MODEL 4
REMARK VINA RESULT:      -9.8      6.065     14.301
REMARK  Name = C:\Users\Docking\Desktop\test protocol\1iep_ligandH.pdb
REMARK  8 active torsions:
REMARK  status: ('A' for Active; 'I' for Inactive)
REMARK    1  A    between atoms: _5  and  _11
REMARK    2  A    between atoms: _19  and  _21
REMARK    3  A    between atoms: _22  and  _66
REMARK    4  A    between atoms: _27  and  _30
REMARK    5  A    between atoms: _32  and  _33
REMARK    6  A    between atoms: _38  and  _43
REMARK    7  A    between atoms: _43  and  _46
REMARK    8  A    between atoms: _53  and  _55
REMARK                            x       y       z     vdW  Elec       q    Type
REMARK                         _______ _______ _______ _____ _____    ______ ____
ROOT
ATOM     10  C   UNL     1      19.725  23.207  14.390  0.00  0.00    +0.038 A 
ATOM     11  C   UNL     1      18.564  23.303  15.199  0.00  0.00    +0.047 A 
ATOM     12  C   UNL     1      17.303  22.711  14.780  0.00  0.00    +0.035 A 
ATOM     32  C   UNL     1      17.260  22.027  13.530  0.00  0.00    +0.024 A 
ATOM     33  C   UNL     1      18.430  21.921  12.695  0.00  0.00    +0.007 A 
ATOM     34  C   UNL     1      19.676  22.504  13.102  0.00  0.00    -0.029 A 
ATOM     35  C   UNL     1      20.897  22.365  12.163  0.00  0.00    +0.045 C 
ENDROOT
BRANCH  10   9
ATOM      4  C   UNL     1      22.551  27.017  15.122  0.00  0.00    +0.077 A 
ATOM      5  C   UNL     1      21.598  27.911  14.530  0.00  0.00    +0.048 A 
ATOM      6  C   UNL     1      20.396  27.350  14.043  0.00  0.00    +0.116 A 
ATOM      7  N   UNL     1      20.174  25.994  14.146  0.00  0.00    -0.223 NA
ATOM      8  C   UNL     1      21.115  25.159  14.721  0.00  0.00    +0.220 A 
ATOM      9  N   UNL     1      20.909  23.793  14.842  0.00  0.00    -0.283 N 
ATOM     36  H   UNL     1      21.630  23.210  15.265  0.00  0.00    +0.155 HD
ATOM     37  N   UNL     1      22.271  25.670  15.192  0.00  0.00    -0.214 NA
BRANCH   4   3
ATOM      1  C   UNL     1      25.445  29.222  16.558  0.00  0.00    +0.020 A 
ATOM      2  C   UNL     1      24.159  28.848  16.016  0.00  0.00    +0.013 A 
ATOM      3  C   UNL     1      23.865  27.459  15.685  0.00  0.00    +0.019 A 
ATOM     38  C   UNL     1      24.903  26.465  15.918  0.00  0.00    +0.120 A 
ATOM     39  N   UNL     1      26.132  26.855  16.440  0.00  0.00    -0.263 NA
ATOM     40  C   UNL     1      26.426  28.189  16.760  0.00  0.00    +0.111 A 
ENDBRANCH   4   3
ENDBRANCH  10   9
BRANCH  12  13
ATOM     13  N   UNL     1      16.090  22.784  15.556  0.00  0.00    -0.281 N 
ATOM     14  C   UNL     1      15.958  22.764  16.935  0.00  0.00    +0.248 C 
ATOM     30  O   UNL     1      16.854  22.464  17.710  0.00  0.00    -0.270 OA
ATOM     31  H   UNL     1      15.223  22.859  15.024  0.00  0.00    +0.155 HD
BRANCH  14  15
ATOM     15  C   UNL     1      14.637  23.113  17.539  0.00  0.00    +0.037 A 
ATOM     16  C   UNL     1      14.542  23.658  18.896  0.00  0.00    +0.013 A 
ATOM     17  C   UNL     1      13.253  23.971  19.462  0.00  0.00    +0.005 A 
ATOM     18  C   UNL     1      12.048  23.740  18.668  0.00  0.00    -0.033 A 
ATOM     28  C   UNL     1      12.172  23.204  17.323  0.00  0.00    +0.005 A 
ATOM     29  C   UNL     1      13.433  22.896  16.766  0.00  0.00    +0.013 A 
BRANCH  18  19
ATOM     19  C   UNL     1      10.631  24.025  19.199  0.00  0.00    +0.119 C 
BRANCH  19  20
ATOM     20  N   UNL     1      10.451  25.237  20.053  0.00  0.00    -0.302 NA
ATOM     21  C   UNL     1       9.191  25.148  20.919  0.00  0.00    +0.066 C 
ATOM     22  C   UNL     1       9.031  26.413  21.823  0.00  0.00    -0.064 C 
ATOM     23  N   UNL     1       8.996  27.664  20.943  0.00  0.00    +0.379 N 
ATOM     24  C   UNL     1       8.787  28.851  21.785  0.00  0.00    -0.096 C 
ATOM     25  H   UNL     1       8.118  27.573  20.262  0.00  0.00    -0.082 HD
ATOM     26  C   UNL     1      10.244  27.759  20.076  0.00  0.00    -0.064 C 
ATOM     27  C   UNL     1      10.410  26.483  19.204  0.00  0.00    +0.066 C 
ENDBRANCH  19  20
ENDBRANCH  18  19
ENDBRANCH  14  15
ENDBRANCH  12  13
TORSDOF 6
ENDMDL
MODEL 5
REMARK VINA RESULT:      -9.7      5.620      8.467
REMARK  Name = C:\Users\Docking\Desktop\test protocol\1iep_ligandH.pdb
REMARK  8 active torsions:
REMARK  status: ('A' for Active; 'I' for Inactive)
REMARK    1  A    between atoms: _5  and  _11
REMARK    2  A    between atoms: _19  and  _21
REMARK    3  A    between atoms: _22  and  _66
REMARK    4  A    between atoms: _27  and  _30
REMARK    5  A    between atoms: _32  and  _33
REMARK    6  A    between atoms: _38  and  _43
REMARK    7  A    between atoms: _43  and  _46
REMARK    8  A    between atoms: _53  and  _55
REMARK                            x       y       z     vdW  Elec       q    Type
REMARK                         _______ _______ _______ _____ _____    ______ ____
ROOT
ATOM     10  C   UNL     1      15.429  22.674  15.090  0.00  0.00    +0.038 A 
ATOM     11  C   UNL     1      16.536  23.540  15.282  0.00  0.00    +0.047 A 
ATOM     12  C   UNL     1      17.874  23.154  14.861  0.00  0.00    +0.035 A 
ATOM     32  C   UNL     1      18.048  21.879  14.246  0.00  0.00    +0.024 A 
ATOM     33  C   UNL     1      16.933  20.987  14.045  0.00  0.00    +0.007 A 
ATOM     34  C   UNL     1      15.612  21.361  14.460  0.00  0.00    -0.029 A 
ATOM     35  C   UNL     1      14.455  20.362  14.225  0.00  0.00    +0.045 C 
ENDROOT
BRANCH  10   9
ATOM      4  C   UNL     1      12.000  23.085  18.424  0.00  0.00    +0.077 A 
ATOM      5  C   UNL     1      12.780  22.376  19.398  0.00  0.00    +0.048 A 
ATOM      6  C   UNL     1      14.055  21.916  18.999  0.00  0.00    +0.116 A 
ATOM      7  N   UNL     1      14.507  22.154  17.718  0.00  0.00    -0.223 NA
ATOM      8  C   UNL     1      13.729  22.839  16.803  0.00  0.00    +0.220 A 
ATOM      9  N   UNL     1      14.166  23.096  15.513  0.00  0.00    -0.283 N 
ATOM     36  H   UNL     1      13.559  23.598  14.866  0.00  0.00    +0.155 HD
ATOM     37  N   UNL     1      12.507  23.287  17.160  0.00  0.00    -0.214 NA
BRANCH   4   3
ATOM      1  C   UNL     1       8.160  23.803  18.239  0.00  0.00    +0.020 A 
ATOM      2  C   UNL     1       9.456  23.241  17.936  0.00  0.00    +0.013 A 
ATOM      3  C   UNL     1      10.635  23.636  18.696  0.00  0.00    +0.019 A 
ATOM     38  C   UNL     1      10.467  24.608  19.766  0.00  0.00    +0.120 A 
ATOM     39  N   UNL     1       9.207  25.133  20.034  0.00  0.00    -0.263 NA
ATOM     40  C   UNL     1       8.065  24.762  19.308  0.00  0.00    +0.111 A 
ENDBRANCH   4   3
ENDBRANCH  10   9
BRANCH  12  13
ATOM     13  N   UNL     1      19.038  23.987  15.037  0.00  0.00    -0.281 N 
ATOM     14  C   UNL     1      19.666  24.782  14.092  0.00  0.00    +0.248 C 
ATOM     30  O   UNL     1      19.447  24.732  12.891  0.00  0.00    -0.270 OA
ATOM     31  H   UNL     1      19.448  23.991  15.970  0.00  0.00    +0.155 HD
BRANCH  14  15
ATOM     15  C   UNL     1      20.696  25.765  14.546  0.00  0.00    +0.037 A 
ATOM     16  C   UNL     1      20.359  27.175  14.762  0.00  0.00    +0.013 A 
ATOM     17  C   UNL     1      21.375  28.105  15.184  0.00  0.00    +0.005 A 
ATOM     18  C   UNL     1      22.740  27.629  15.394  0.00  0.00    -0.033 A 
ATOM     28  C   UNL     1      23.046  26.224  15.178  0.00  0.00    +0.005 A 
ATOM     29  C   UNL     1      22.052  25.309  14.764  0.00  0.00    +0.013 A 
BRANCH  18  19
ATOM     19  C   UNL     1      23.893  28.555  15.824  0.00  0.00    +0.119 C 
BRANCH  19  20
ATOM     20  N   UNL     1      25.261  27.960  15.889  0.00  0.00    -0.302 NA
ATOM     21  C   UNL     1      25.716  27.722  17.331  0.00  0.00    +0.066 C 
ATOM     22  C   UNL     1      27.139  27.078  17.380  0.00  0.00    -0.064 C 
ATOM     23  N   UNL     1      28.130  27.980  16.642  0.00  0.00    +0.379 N 
ATOM     24  C   UNL     1      29.480  27.406  16.736  0.00  0.00    -0.096 C 
ATOM     25  H   UNL     1      28.144  28.965  17.163  0.00  0.00    -0.082 HD
ATOM     26  C   UNL     1      27.684  28.223  15.207  0.00  0.00    -0.064 C 
ATOM     27  C   UNL     1      26.256  28.836  15.169  0.00  0.00    +0.066 C 
ENDBRANCH  19  20
ENDBRANCH  18  19
ENDBRANCH  14  15
ENDBRANCH  12  13
TORSDOF 6
ENDMDL
