MODEL 1
REMARK VINA RESULT:      -8.3      0.000      0.000
REMARK  Name = C:\Users\Docking\Desktop\test protocol\1iep_ligandH.pdb
REMARK  8 active torsions:
REMARK  status: ('A' for Active; 'I' for Inactive)
REMARK    1  A    between atoms: _5  and  _11
REMARK    2  A    between atoms: _19  and  _21
REMARK    3  A    between atoms: _22  and  _66
REMARK    4  A    between atoms: _27  and  _30
REMARK    5  A    between atoms: _32  and  _33
REMARK    6  A    between atoms: _38  and  _43
REMARK    7  A    between atoms: _43  and  _46
REMARK    8  A    between atoms: _53  and  _55
REMARK                            x       y       z     vdW  Elec       q    Type
REMARK                         _______ _______ _______ _____ _____    ______ ____
ROOT
ATOM     10  C   UNL     1      15.103  20.563  -2.678  0.00  0.00    +0.038 A 
ATOM     11  C   UNL     1      14.232  19.830  -1.833  0.00  0.00    +0.047 A 
ATOM     12  C   UNL     1      13.318  18.836  -2.375  0.00  0.00    +0.035 A 
ATOM     32  C   UNL     1      13.321  18.612  -3.782  0.00  0.00    +0.024 A 
ATOM     33  C   UNL     1      14.200  19.349  -4.656  0.00  0.00    +0.007 A 
ATOM     34  C   UNL     1      15.101  20.333  -4.128  0.00  0.00    -0.029 A 
ATOM     35  C   UNL     1      16.017  21.098  -5.112  0.00  0.00    +0.045 C 
ENDROOT
BRANCH  10   9
ATOM      4  C   UNL     1      16.299  25.080  -1.576  0.00  0.00    +0.077 A 
ATOM      5  C   UNL     1      15.132  25.608  -2.222  0.00  0.00    +0.048 A 
ATOM      6  C   UNL     1      14.253  24.685  -2.832  0.00  0.00    +0.116 A 
ATOM      7  N   UNL     1      14.530  23.336  -2.792  0.00  0.00    -0.223 NA
ATOM      8  C   UNL     1      15.665  22.859  -2.163  0.00  0.00    +0.220 A 
ATOM      9  N   UNL     1      15.960  21.506  -2.104  0.00  0.00    -0.283 N 
ATOM     36  H   UNL     1      16.811  21.195  -1.637  0.00  0.00    +0.155 HD
ATOM     37  N   UNL     1      16.521  23.721  -1.574  0.00  0.00    -0.214 NA
BRANCH   4   3
ATOM      1  C   UNL     1      18.744  28.001  -0.690  0.00  0.00    +0.020 A 
ATOM      2  C   UNL     1      17.754  27.221  -1.397  0.00  0.00    +0.013 A 
ATOM      3  C   UNL     1      17.320  25.928  -0.885  0.00  0.00    +0.019 A 
ATOM     38  C   UNL     1      17.912  25.448   0.355  0.00  0.00    +0.120 A 
ATOM     39  N   UNL     1      18.864  26.220   1.014  0.00  0.00    -0.263 NA
ATOM     40  C   UNL     1      19.290  27.466   0.530  0.00  0.00    +0.111 A 
ENDBRANCH   4   3
ENDBRANCH  10   9
BRANCH  12  13
ATOM     13  N   UNL     1      12.404  18.067  -1.567  0.00  0.00    -0.281 N 
ATOM     14  C   UNL     1      12.174  16.702  -1.608  0.00  0.00    +0.248 C 
ATOM     30  O   UNL     1      12.566  15.961  -2.497  0.00  0.00    -0.270 OA
ATOM     31  H   UNL     1      11.862  18.593  -0.882  0.00  0.00    +0.155 HD
BRANCH  14  15
ATOM     15  C   UNL     1      11.380  16.071  -0.509  0.00  0.00    +0.037 A 
ATOM     16  C   UNL     1      10.351  16.822   0.213  0.00  0.00    +0.013 A 
ATOM     17  C   UNL     1       9.612  16.194   1.280  0.00  0.00    +0.005 A 
ATOM     18  C   UNL     1       9.900  14.805   1.629  0.00  0.00    -0.033 A 
ATOM     28  C   UNL     1      10.923  14.081   0.893  0.00  0.00    +0.005 A 
ATOM     29  C   UNL     1      11.650  14.694  -0.153  0.00  0.00    +0.013 A 
BRANCH  18  19
ATOM     19  C   UNL     1       9.176  14.062   2.767  0.00  0.00    +0.119 C 
BRANCH  19  20
ATOM     20  N   UNL     1       8.804  14.857   3.975  0.00  0.00    -0.302 NA
ATOM     21  C   UNL     1      10.035  15.352   4.739  0.00  0.00    +0.066 C 
ATOM     22  C   UNL     1       9.627  16.201   5.987  0.00  0.00    -0.064 C 
ATOM     23  N   UNL     1       8.725  15.365   6.897  0.00  0.00    +0.379 N 
ATOM     24  C   UNL     1       8.388  16.140   8.100  0.00  0.00    -0.096 C 
ATOM     25  H   UNL     1       9.308  14.472   7.222  0.00  0.00    -0.082 HD
ATOM     26  C   UNL     1       7.500  14.867   6.144  0.00  0.00    -0.064 C 
ATOM     27  C   UNL     1       7.916  14.049   4.890  0.00  0.00    +0.066 C 
ENDBRANCH  19  20
ENDBRANCH  18  19
ENDBRANCH  14  15
ENDBRANCH  12  13
TORSDOF 6
ENDMDL
MODEL 2
REMARK VINA RESULT:      -8.3      9.772     14.585
REMARK  Name = C:\Users\Docking\Desktop\test protocol\1iep_ligandH.pdb
REMARK  8 active torsions:
REMARK  status: ('A' for Active; 'I' for Inactive)
REMARK    1  A    between atoms: _5  and  _11
REMARK    2  A    between atoms: _19  and  _21
REMARK    3  A    between atoms: _22  and  _66
REMARK    4  A    between atoms: _27  and  _30
REMARK    5  A    between atoms: _32  and  _33
REMARK    6  A    between atoms: _38  and  _43
REMARK    7  A    between atoms: _43  and  _46
REMARK    8  A    between atoms: _53  and  _55
REMARK                            x       y       z     vdW  Elec       q    Type
REMARK                         _______ _______ _______ _____ _____    ______ ____
ROOT
ATOM     10  C   UNL     1       7.988  15.074   5.563  0.00  0.00    +0.038 A 
ATOM     11  C   UNL     1       7.103  15.050   6.671  0.00  0.00    +0.047 A 
ATOM     12  C   UNL     1       7.296  15.939   7.807  0.00  0.00    +0.035 A 
ATOM     32  C   UNL     1       8.399  16.840   7.780  0.00  0.00    +0.024 A 
ATOM     33  C   UNL     1       9.309  16.877   6.662  0.00  0.00    +0.007 A 
ATOM     34  C   UNL     1       9.126  16.001   5.540  0.00  0.00    -0.029 A 
ATOM     35  C   UNL     1      10.136  16.079   4.372  0.00  0.00    +0.045 C 
ENDROOT
BRANCH  10   9
ATOM      4  C   UNL     1       8.952  11.083   3.077  0.00  0.00    +0.077 A 
ATOM      5  C   UNL     1      10.027  10.724   3.957  0.00  0.00    +0.048 A 
ATOM      6  C   UNL     1      10.305  11.597   5.033  0.00  0.00    +0.116 A 
ATOM      7  N   UNL     1       9.556  12.741   5.207  0.00  0.00    -0.223 NA
ATOM      8  C   UNL     1       8.527  13.058   4.339  0.00  0.00    +0.220 A 
ATOM      9  N   UNL     1       7.756  14.199   4.500  0.00  0.00    -0.283 N 
ATOM     36  H   UNL     1       7.010  14.401   3.834  0.00  0.00    +0.155 HD
ATOM     37  N   UNL     1       8.243  12.241   3.303  0.00  0.00    -0.214 NA
BRANCH   4   3
ATOM      1  C   UNL     1       8.421   8.094   0.610  0.00  0.00    +0.020 A 
ATOM      2  C   UNL     1       8.847   8.842   1.770  0.00  0.00    +0.013 A 
ATOM      3  C   UNL     1       8.536  10.261   1.898  0.00  0.00    +0.019 A 
ATOM     38  C   UNL     1       7.785  10.896   0.825  0.00  0.00    +0.120 A 
ATOM     39  N   UNL     1       7.390  10.150  -0.281  0.00  0.00    -0.263 NA
ATOM     40  C   UNL     1       7.685   8.785  -0.415  0.00  0.00    +0.111 A 
ENDBRANCH   4   3
ENDBRANCH  10   9
BRANCH  12  13
ATOM     13  N   UNL     1       6.435  15.955   8.963  0.00  0.00    -0.281 N 
ATOM     14  C   UNL     1       5.380  16.813   9.229  0.00  0.00    +0.248 C 
ATOM     30  O   UNL     1       5.152  17.840   8.606  0.00  0.00    -0.270 OA
ATOM     31  H   UNL     1       6.625  15.247   9.673  0.00  0.00    +0.155 HD
BRANCH  14  15
ATOM     15  C   UNL     1       4.455  16.493  10.357  0.00  0.00    +0.037 A 
ATOM     16  C   UNL     1       4.332  17.382  11.516  0.00  0.00    +0.013 A 
ATOM     17  C   UNL     1       3.445  17.041  12.599  0.00  0.00    +0.005 A 
ATOM     18  C   UNL     1       2.670  15.804  12.527  0.00  0.00    -0.033 A 
ATOM     28  C   UNL     1       2.806  14.943  11.364  0.00  0.00    +0.005 A 
ATOM     29  C   UNL     1       3.676  15.274  10.301  0.00  0.00    +0.013 A 
BRANCH  18  19
ATOM     19  C   UNL     1       1.714  15.350  13.646  0.00  0.00    +0.119 C 
BRANCH  19  20
ATOM     20  N   UNL     1       2.068  14.100  14.382  0.00  0.00    -0.302 NA
ATOM     21  C   UNL     1       1.252  12.898  13.897  0.00  0.00    +0.066 C 
ATOM     22  C   UNL     1       1.651  11.594  14.662  0.00  0.00    -0.064 C 
ATOM     23  N   UNL     1       1.459  11.808  16.165  0.00  0.00    +0.379 N 
ATOM     24  C   UNL     1       1.778  10.565  16.882  0.00  0.00    -0.096 C 
ATOM     25  H   UNL     1       0.381  12.033  16.339  0.00  0.00    -0.082 HD
ATOM     26  C   UNL     1       2.264  13.003  16.655  0.00  0.00    -0.064 C 
ATOM     27  C   UNL     1       1.881  14.288  15.868  0.00  0.00    +0.066 C 
ENDBRANCH  19  20
ENDBRANCH  18  19
ENDBRANCH  14  15
ENDBRANCH  12  13
TORSDOF 6
ENDMDL
MODEL 3
REMARK VINA RESULT:      -8.1      2.121      2.808
REMARK  Name = C:\Users\Docking\Desktop\test protocol\1iep_ligandH.pdb
REMARK  8 active torsions:
REMARK  status: ('A' for Active; 'I' for Inactive)
REMARK    1  A    between atoms: _5  and  _11
REMARK    2  A    between atoms: _19  and  _21
REMARK    3  A    between atoms: _22  and  _66
REMARK    4  A    between atoms: _27  and  _30
REMARK    5  A    between atoms: _32  and  _33
REMARK    6  A    between atoms: _38  and  _43
REMARK    7  A    between atoms: _43  and  _46
REMARK    8  A    between atoms: _53  and  _55
REMARK                            x       y       z     vdW  Elec       q    Type
REMARK                         _______ _______ _______ _____ _____    ______ ____
ROOT
ATOM     10  C   UNL     1      15.218  20.776  -2.653  0.00  0.00    +0.038 A 
ATOM     11  C   UNL     1      14.315  20.133  -1.767  0.00  0.00    +0.047 A 
ATOM     12  C   UNL     1      13.341  19.169  -2.254  0.00  0.00    +0.035 A 
ATOM     32  C   UNL     1      13.315  18.880  -3.649  0.00  0.00    +0.024 A 
ATOM     33  C   UNL     1      14.224  19.525  -4.564  0.00  0.00    +0.007 A 
ATOM     34  C   UNL     1      15.186  20.479  -4.090  0.00  0.00    -0.029 A 
ATOM     35  C   UNL     1      16.131  21.144  -5.117  0.00  0.00    +0.045 C 
ENDROOT
BRANCH  10   9
ATOM      4  C   UNL     1      16.553  25.245  -1.525  0.00  0.00    +0.077 A 
ATOM      5  C   UNL     1      15.337  25.803  -2.043  0.00  0.00    +0.048 A 
ATOM      6  C   UNL     1      14.397  24.906  -2.598  0.00  0.00    +0.116 A 
ATOM      7  N   UNL     1      14.664  23.554  -2.627  0.00  0.00    -0.223 NA
ATOM      8  C   UNL     1      15.847  23.050  -2.120  0.00  0.00    +0.220 A 
ATOM      9  N   UNL     1      16.132  21.693  -2.131  0.00  0.00    -0.283 N 
ATOM     36  H   UNL     1      17.020  21.361  -1.754  0.00  0.00    +0.155 HD
ATOM     37  N   UNL     1      16.762  23.886  -1.586  0.00  0.00    -0.214 NA
BRANCH   4   3
ATOM      1  C   UNL     1      19.483  26.425   0.784  0.00  0.00    +0.020 A 
ATOM      2  C   UNL     1      18.442  25.596   0.221  0.00  0.00    +0.013 A 
ATOM      3  C   UNL     1      17.643  26.064  -0.904  0.00  0.00    +0.019 A 
ATOM     38  C   UNL     1      17.925  27.386  -1.442  0.00  0.00    +0.120 A 
ATOM     39  N   UNL     1      18.932  28.163  -0.879  0.00  0.00    -0.263 NA
ATOM     40  C   UNL     1      19.707  27.724   0.206  0.00  0.00    +0.111 A 
ENDBRANCH   4   3
ENDBRANCH  10   9
BRANCH  12  13
ATOM     13  N   UNL     1      12.395  18.491  -1.403  0.00  0.00    -0.281 N 
ATOM     14  C   UNL     1      11.012  18.573  -1.432  0.00  0.00    +0.248 C 
ATOM     30  O   UNL     1      10.383  19.412  -2.060  0.00  0.00    -0.270 OA
ATOM     31  H   UNL     1      12.792  17.876  -0.693  0.00  0.00    +0.155 HD
BRANCH  14  15
ATOM     15  C   UNL     1      10.213  17.591  -0.638  0.00  0.00    +0.037 A 
ATOM     16  C   UNL     1       9.671  17.939   0.678  0.00  0.00    +0.013 A 
ATOM     17  C   UNL     1       8.919  16.967   1.430  0.00  0.00    +0.005 A 
ATOM     18  C   UNL     1       8.703  15.636   0.867  0.00  0.00    -0.033 A 
ATOM     28  C   UNL     1       9.247  15.319  -0.443  0.00  0.00    +0.005 A 
ATOM     29  C   UNL     1       9.986  16.269  -1.183  0.00  0.00    +0.013 A 
BRANCH  18  19
ATOM     19  C   UNL     1       7.930  14.529   1.609  0.00  0.00    +0.119 C 
BRANCH  19  20
ATOM     20  N   UNL     1       8.681  13.287   1.957  0.00  0.00    -0.302 NA
ATOM     21  C   UNL     1       8.260  12.098   1.089  0.00  0.00    +0.066 C 
ATOM     22  C   UNL     1       9.071  10.812   1.451  0.00  0.00    -0.064 C 
ATOM     23  N   UNL     1       8.881  10.493   2.935  0.00  0.00    +0.379 N 
ATOM     24  C   UNL     1       9.596   9.252   3.266  0.00  0.00    -0.096 C 
ATOM     25  H   UNL     1       7.794  10.313   3.105  0.00  0.00    -0.082 HD
ATOM     26  C   UNL     1       9.295  11.671   3.806  0.00  0.00    -0.064 C 
ATOM     27  C   UNL     1       8.503  12.951   3.417  0.00  0.00    +0.066 C 
ENDBRANCH  19  20
ENDBRANCH  18  19
ENDBRANCH  14  15
ENDBRANCH  12  13
TORSDOF 6
ENDMDL
MODEL 4
REMARK VINA RESULT:      -8.1     12.526     17.196
REMARK  Name = C:\Users\Docking\Desktop\test protocol\1iep_ligandH.pdb
REMARK  8 active torsions:
REMARK  status: ('A' for Active; 'I' for Inactive)
REMARK    1  A    between atoms: _5  and  _11
REMARK    2  A    between atoms: _19  and  _21
REMARK    3  A    between atoms: _22  and  _66
REMARK    4  A    between atoms: _27  and  _30
REMARK    5  A    between atoms: _32  and  _33
REMARK    6  A    between atoms: _38  and  _43
REMARK    7  A    between atoms: _43  and  _46
REMARK    8  A    between atoms: _53  and  _55
REMARK                            x       y       z     vdW  Elec       q    Type
REMARK                         _______ _______ _______ _____ _____    ______ ____
ROOT
ATOM     10  C   UNL     1      22.938  29.619   5.443  0.00  0.00    +0.038 A 
ATOM     11  C   UNL     1      22.314  29.872   4.195  0.00  0.00    +0.047 A 
ATOM     12  C   UNL     1      22.458  28.949   3.080  0.00  0.00    +0.035 A 
ATOM     32  C   UNL     1      23.245  27.776   3.272  0.00  0.00    +0.024 A 
ATOM     33  C   UNL     1      23.888  27.503   4.534  0.00  0.00    +0.007 A 
ATOM     34  C   UNL     1      23.751  28.412   5.636  0.00  0.00    -0.029 A 
ATOM     35  C   UNL     1      24.468  28.072   6.964  0.00  0.00    +0.045 C 
ENDROOT
BRANCH  10   9
ATOM      4  C   UNL     1      24.151  33.626   7.791  0.00  0.00    +0.077 A 
ATOM      5  C   UNL     1      25.236  33.895   6.892  0.00  0.00    +0.048 A 
ATOM      6  C   UNL     1      25.453  32.973   5.843  0.00  0.00    +0.116 A 
ATOM      7  N   UNL     1      24.639  31.869   5.712  0.00  0.00    -0.223 NA
ATOM      8  C   UNL     1      23.602  31.639   6.597  0.00  0.00    +0.220 A 
ATOM      9  N   UNL     1      22.766  30.539   6.479  0.00  0.00    -0.283 N 
ATOM     36  H   UNL     1      22.017  30.401   7.157  0.00  0.00    +0.155 HD
ATOM     37  N   UNL     1      23.375  32.503   7.608  0.00  0.00    -0.214 NA
BRANCH   4   3
ATOM      1  C   UNL     1      24.216  36.465  10.481  0.00  0.00    +0.020 A 
ATOM      2  C   UNL     1      24.607  35.644   9.358  0.00  0.00    +0.013 A 
ATOM      3  C   UNL     1      23.792  34.508   8.946  0.00  0.00    +0.019 A 
ATOM     38  C   UNL     1      22.578  34.228   9.697  0.00  0.00    +0.120 A 
ATOM     39  N   UNL     1      22.228  35.034  10.775  0.00  0.00    -0.263 NA
ATOM     40  C   UNL     1      23.005  36.129  11.182  0.00  0.00    +0.111 A 
ENDBRANCH   4   3
ENDBRANCH  10   9
BRANCH  12  13
ATOM     13  N   UNL     1      21.854  29.157   1.788  0.00  0.00    -0.281 N 
ATOM     14  C   UNL     1      21.047  28.285   1.075  0.00  0.00    +0.248 C 
ATOM     30  O   UNL     1      20.896  27.104   1.347  0.00  0.00    -0.270 OA
ATOM     31  H   UNL     1      22.044  30.056   1.345  0.00  0.00    +0.155 HD
BRANCH  14  15
ATOM     15  C   UNL     1      20.313  28.797  -0.123  0.00  0.00    +0.037 A 
ATOM     16  C   UNL     1      19.427  27.927  -0.900  0.00  0.00    +0.013 A 
ATOM     17  C   UNL     1      18.744  28.441  -2.060  0.00  0.00    +0.005 A 
ATOM     18  C   UNL     1      18.944  29.835  -2.450  0.00  0.00    -0.033 A 
ATOM     28  C   UNL     1      19.825  30.677  -1.658  0.00  0.00    +0.005 A 
ATOM     29  C   UNL     1      20.496  30.176  -0.520  0.00  0.00    +0.013 A 
BRANCH  18  19
ATOM     19  C   UNL     1      18.273  30.462  -3.686  0.00  0.00    +0.119 C 
BRANCH  19  20
ATOM     20  N   UNL     1      19.083  30.542  -4.938  0.00  0.00    -0.302 NA
ATOM     21  C   UNL     1      19.639  31.949  -5.174  0.00  0.00    +0.066 C 
ATOM     22  C   UNL     1      20.502  32.008  -6.476  0.00  0.00    -0.064 C 
ATOM     23  N   UNL     1      19.657  31.553  -7.667  0.00  0.00    +0.379 N 
ATOM     24  C   UNL     1      20.449  31.663  -8.901  0.00  0.00    -0.096 C 
ATOM     25  H   UNL     1      18.793  32.252  -7.755  0.00  0.00    -0.082 HD
ATOM     26  C   UNL     1      19.098  30.156  -7.439  0.00  0.00    -0.064 C 
ATOM     27  C   UNL     1      18.266  30.100  -6.127  0.00  0.00    +0.066 C 
ENDBRANCH  19  20
ENDBRANCH  18  19
ENDBRANCH  14  15
ENDBRANCH  12  13
TORSDOF 6
ENDMDL
MODEL 5
REMARK VINA RESULT:      -8.0      0.944      1.388
REMARK  Name = C:\Users\Docking\Desktop\test protocol\1iep_ligandH.pdb
REMARK  8 active torsions:
REMARK  status: ('A' for Active; 'I' for Inactive)
REMARK    1  A    between atoms: _5  and  _11
REMARK    2  A    between atoms: _19  and  _21
REMARK    3  A    between atoms: _22  and  _66
REMARK    4  A    between atoms: _27  and  _30
REMARK    5  A    between atoms: _32  and  _33
REMARK    6  A    between atoms: _38  and  _43
REMARK    7  A    between atoms: _43  and  _46
REMARK    8  A    between atoms: _53  and  _55
REMARK                            x       y       z     vdW  Elec       q    Type
REMARK                         _______ _______ _______ _____ _____    ______ ____
ROOT
ATOM     10  C   UNL     1      15.039  20.667  -2.835  0.00  0.00    +0.038 A 
ATOM     11  C   UNL     1      14.041  20.055  -2.035  0.00  0.00    +0.047 A 
ATOM     12  C   UNL     1      13.092  19.111  -2.606  0.00  0.00    +0.035 A 
ATOM     32  C   UNL     1      13.191  18.812  -3.996  0.00  0.00    +0.024 A 
ATOM     33  C   UNL     1      14.199  19.426  -4.824  0.00  0.00    +0.007 A 
ATOM     34  C   UNL     1      15.136  20.359  -4.267  0.00  0.00    -0.029 A 
ATOM     35  C   UNL     1      16.192  20.991  -5.203  0.00  0.00    +0.045 C 
ENDROOT
BRANCH  10   9
ATOM      4  C   UNL     1      16.361  25.107  -1.581  0.00  0.00    +0.077 A 
ATOM      5  C   UNL     1      15.204  25.689  -2.198  0.00  0.00    +0.048 A 
ATOM      6  C   UNL     1      14.297  24.812  -2.833  0.00  0.00    +0.116 A 
ATOM      7  N   UNL     1      14.539  23.456  -2.845  0.00  0.00    -0.223 NA
ATOM      8  C   UNL     1      15.665  22.927  -2.242  0.00  0.00    +0.220 A 
ATOM      9  N   UNL     1      15.924  21.565  -2.234  0.00  0.00    -0.283 N 
ATOM     36  H   UNL     1      16.770  21.215  -1.785  0.00  0.00    +0.155 HD
ATOM     37  N   UNL     1      16.547  23.744  -1.629  0.00  0.00    -0.214 NA
BRANCH   4   3
ATOM      1  C   UNL     1      18.879  27.936  -0.602  0.00  0.00    +0.020 A 
ATOM      2  C   UNL     1      17.864  27.208  -1.328  0.00  0.00    +0.013 A 
ATOM      3  C   UNL     1      17.409  25.903  -0.867  0.00  0.00    +0.019 A 
ATOM     38  C   UNL     1      18.006  25.357   0.343  0.00  0.00    +0.120 A 
ATOM     39  N   UNL     1      18.983  26.080   1.021  0.00  0.00    -0.263 NA
ATOM     40  C   UNL     1      19.430  27.337   0.585  0.00  0.00    +0.111 A 
ENDBRANCH   4   3
ENDBRANCH  10   9
BRANCH  12  13
ATOM     13  N   UNL     1      12.052  18.465  -1.845  0.00  0.00    -0.281 N 
ATOM     14  C   UNL     1      12.044  17.177  -1.336  0.00  0.00    +0.248 C 
ATOM     30  O   UNL     1      12.847  16.308  -1.643  0.00  0.00    -0.270 OA
ATOM     31  H   UNL     1      11.221  19.026  -1.658  0.00  0.00    +0.155 HD
BRANCH  14  15
ATOM     15  C   UNL     1      10.983  16.794  -0.356  0.00  0.00    +0.037 A 
ATOM     16  C   UNL     1      10.901  15.434   0.183  0.00  0.00    +0.013 A 
ATOM     17  C   UNL     1       9.857  15.086   1.114  0.00  0.00    +0.005 A 
ATOM     18  C   UNL     1       8.887  16.103   1.514  0.00  0.00    -0.033 A 
ATOM     28  C   UNL     1       8.996  17.446   0.969  0.00  0.00    +0.005 A 
ATOM     29  C   UNL     1      10.017  17.790   0.055  0.00  0.00    +0.013 A 
BRANCH  18  19
ATOM     19  C   UNL     1       7.728  15.816   2.487  0.00  0.00    +0.119 C 
BRANCH  19  20
ATOM     20  N   UNL     1       7.992  16.014   3.943  0.00  0.00    -0.302 NA
ATOM     21  C   UNL     1       7.927  14.698   4.724  0.00  0.00    +0.066 C 
ATOM     22  C   UNL     1       8.227  14.921   6.242  0.00  0.00    -0.064 C 
ATOM     23  N   UNL     1       7.237  15.938   6.811  0.00  0.00    +0.379 N 
ATOM     24  C   UNL     1       7.480  16.107   8.251  0.00  0.00    -0.096 C 
ATOM     25  H   UNL     1       6.212  15.518   6.688  0.00  0.00    -0.082 HD
ATOM     26  C   UNL     1       7.293  17.249   6.039  0.00  0.00    -0.064 C 
ATOM     27  C   UNL     1       7.022  17.012   4.527  0.00  0.00    +0.066 C 
ENDBRANCH  19  20
ENDBRANCH  18  19
ENDBRANCH  14  15
ENDBRANCH  12  13
TORSDOF 6
ENDMDL
