MODEL 1
REMARK VINA RESULT:      -8.1      0.000      0.000
REMARK  Name = C:\Users\Docking\Desktop\test protocol\1iep_ligandH.pdb
REMARK  8 active torsions:
REMARK  status: ('A' for Active; 'I' for Inactive)
REMARK    1  A    between atoms: _5  and  _11
REMARK    2  A    between atoms: _19  and  _21
REMARK    3  A    between atoms: _22  and  _66
REMARK    4  A    between atoms: _27  and  _30
REMARK    5  A    between atoms: _32  and  _33
REMARK    6  A    between atoms: _38  and  _43
REMARK    7  A    between atoms: _43  and  _46
REMARK    8  A    between atoms: _53  and  _55
REMARK                            x       y       z     vdW  Elec       q    Type
REMARK                         _______ _______ _______ _____ _____    ______ ____
ROOT
ATOM     10  C   UNL     1     -10.153  23.384  -2.563  0.00  0.00    +0.038 A 
ATOM     11  C   UNL     1     -10.084  22.230  -1.742  0.00  0.00    +0.047 A 
ATOM     12  C   UNL     1      -9.663  20.946  -2.281  0.00  0.00    +0.035 A 
ATOM     32  C   UNL     1      -9.316  20.875  -3.662  0.00  0.00    +0.024 A 
ATOM     33  C   UNL     1      -9.381  22.038  -4.511  0.00  0.00    +0.007 A 
ATOM     34  C   UNL     1      -9.798  23.306  -3.985  0.00  0.00    -0.029 A 
ATOM     35  C   UNL     1      -9.855  24.519  -4.944  0.00  0.00    +0.045 C 
ENDROOT
BRANCH  10   9
ATOM      4  C   UNL     1     -13.518  26.643  -1.519  0.00  0.00    +0.077 A 
ATOM      5  C   UNL     1     -14.539  25.891  -2.191  0.00  0.00    +0.048 A 
ATOM      6  C   UNL     1     -14.155  24.674  -2.798  0.00  0.00    +0.116 A 
ATOM      7  N   UNL     1     -12.845  24.251  -2.732  0.00  0.00    -0.223 NA
ATOM      8  C   UNL     1     -11.885  25.001  -2.078  0.00  0.00    +0.220 A 
ATOM      9  N   UNL     1     -10.564  24.591  -1.992  0.00  0.00    -0.283 N 
ATOM     36  H   UNL     1      -9.884  25.176  -1.507  0.00  0.00    +0.155 HD
ATOM     37  N   UNL     1     -12.226  26.167  -1.491  0.00  0.00    -0.214 NA
BRANCH   4   3
ATOM      1  C   UNL     1     -14.757  30.265  -0.713  0.00  0.00    +0.020 A 
ATOM      2  C   UNL     1     -14.544  29.025  -1.425  0.00  0.00    +0.013 A 
ATOM      3  C   UNL     1     -13.769  27.946  -0.827  0.00  0.00    +0.019 A 
ATOM     38  C   UNL     1     -13.218  28.155   0.504  0.00  0.00    +0.120 A 
ATOM     39  N   UNL     1     -13.438  29.359   1.165  0.00  0.00    -0.263 NA
ATOM     40  C   UNL     1     -14.181  30.406   0.598  0.00  0.00    +0.111 A 
ENDBRANCH   4   3
ENDBRANCH  10   9
BRANCH  12  13
ATOM     13  N   UNL     1      -9.582  19.738  -1.498  0.00  0.00    -0.281 N 
ATOM     14  C   UNL     1      -8.456  18.985  -1.209  0.00  0.00    +0.248 C 
ATOM     30  O   UNL     1      -7.374  19.119  -1.761  0.00  0.00    -0.270 OA
ATOM     31  H   UNL     1     -10.461  19.397  -1.110  0.00  0.00    +0.155 HD
BRANCH  14  15
ATOM     15  C   UNL     1      -8.549  17.919  -0.166  0.00  0.00    +0.037 A 
ATOM     16  C   UNL     1      -7.348  17.271   0.368  0.00  0.00    +0.013 A 
ATOM     17  C   UNL     1      -7.467  16.233   1.362  0.00  0.00    +0.005 A 
ATOM     18  C   UNL     1      -8.793  15.838   1.829  0.00  0.00    -0.033 A 
ATOM     28  C   UNL     1      -9.968  16.501   1.286  0.00  0.00    +0.005 A 
ATOM     29  C   UNL     1      -9.855  17.517   0.312  0.00  0.00    +0.013 A 
BRANCH  18  19
ATOM     19  C   UNL     1      -9.016  14.726   2.871  0.00  0.00    +0.119 C 
BRANCH  19  20
ATOM     20  N   UNL     1      -9.469  15.144   4.231  0.00  0.00    -0.302 NA
ATOM     21  C   UNL     1      -8.666  14.459   5.340  0.00  0.00    +0.066 C 
ATOM     22  C   UNL     1      -9.138  14.925   6.756  0.00  0.00    -0.064 C 
ATOM     23  N   UNL     1     -10.632  14.636   6.912  0.00  0.00    +0.379 N 
ATOM     24  C   UNL     1     -11.067  15.020   8.263  0.00  0.00    -0.096 C 
ATOM     25  H   UNL     1     -10.776  13.536   6.810  0.00  0.00    -0.082 HD
ATOM     26  C   UNL     1     -11.438  15.311   5.812  0.00  0.00    -0.064 C 
ATOM     27  C   UNL     1     -10.941  14.864   4.409  0.00  0.00    +0.066 C 
ENDBRANCH  19  20
ENDBRANCH  18  19
ENDBRANCH  14  15
ENDBRANCH  12  13
TORSDOF 6
ENDMDL
MODEL 2
REMARK VINA RESULT:      -8.0      9.723     14.559
REMARK  Name = C:\Users\Docking\Desktop\test protocol\1iep_ligandH.pdb
REMARK  8 active torsions:
REMARK  status: ('A' for Active; 'I' for Inactive)
REMARK    1  A    between atoms: _5  and  _11
REMARK    2  A    between atoms: _19  and  _21
REMARK    3  A    between atoms: _22  and  _66
REMARK    4  A    between atoms: _27  and  _30
REMARK    5  A    between atoms: _32  and  _33
REMARK    6  A    between atoms: _38  and  _43
REMARK    7  A    between atoms: _43  and  _46
REMARK    8  A    between atoms: _53  and  _55
REMARK                            x       y       z     vdW  Elec       q    Type
REMARK                         _______ _______ _______ _____ _____    ______ ____
ROOT
ATOM     10  C   UNL     1      -9.161  14.485   5.745  0.00  0.00    +0.038 A 
ATOM     11  C   UNL     1      -9.557  13.845   6.947  0.00  0.00    +0.047 A 
ATOM     12  C   UNL     1     -10.244  14.579   7.999  0.00  0.00    +0.035 A 
ATOM     32  C   UNL     1     -10.513  15.963   7.792  0.00  0.00    +0.024 A 
ATOM     33  C   UNL     1     -10.116  16.630   6.577  0.00  0.00    +0.007 A 
ATOM     34  C   UNL     1      -9.437  15.912   5.537  0.00  0.00    -0.029 A 
ATOM     35  C   UNL     1      -9.029  16.679   4.257  0.00  0.00    +0.045 C 
ENDROOT
BRANCH  10   9
ATOM      4  C   UNL     1      -5.202  13.134   3.392  0.00  0.00    +0.077 A 
ATOM      5  C   UNL     1      -4.374  14.023   4.156  0.00  0.00    +0.048 A 
ATOM      6  C   UNL     1      -5.007  14.815   5.139  0.00  0.00    +0.116 A 
ATOM      7  N   UNL     1      -6.367  14.718   5.336  0.00  0.00    -0.223 NA
ATOM      8  C   UNL     1      -7.137  13.852   4.582  0.00  0.00    +0.220 A 
ATOM      9  N   UNL     1      -8.505  13.732   4.768  0.00  0.00    -0.283 N 
ATOM     36  H   UNL     1      -9.039  13.087   4.186  0.00  0.00    +0.155 HD
ATOM     37  N   UNL     1      -6.556  13.085   3.635  0.00  0.00    -0.214 NA
BRANCH   4   3
ATOM      1  C   UNL     1      -3.103  11.682   0.428  0.00  0.00    +0.020 A 
ATOM      2  C   UNL     1      -3.568  12.593   1.449  0.00  0.00    +0.013 A 
ATOM      3  C   UNL     1      -4.680  12.230   2.319  0.00  0.00    +0.019 A 
ATOM     38  C   UNL     1      -5.302  10.928   2.130  0.00  0.00    +0.120 A 
ATOM     39  N   UNL     1      -4.833  10.073   1.138  0.00  0.00    -0.263 NA
ATOM     40  C   UNL     1      -3.765  10.412   0.293  0.00  0.00    +0.111 A 
ENDBRANCH   4   3
ENDBRANCH  10   9
BRANCH  12  13
ATOM     13  N   UNL     1     -10.663  13.984   9.244  0.00  0.00    -0.281 N 
ATOM     14  C   UNL     1     -11.701  13.092   9.455  0.00  0.00    +0.248 C 
ATOM     30  O   UNL     1     -12.567  12.832   8.633  0.00  0.00    -0.270 OA
ATOM     31  H   UNL     1     -10.129  14.255  10.071  0.00  0.00    +0.155 HD
BRANCH  14  15
ATOM     15  C   UNL     1     -11.800  12.398  10.775  0.00  0.00    +0.037 A 
ATOM     16  C   UNL     1     -10.901  12.737  11.881  0.00  0.00    +0.013 A 
ATOM     17  C   UNL     1     -11.007  12.041  13.139  0.00  0.00    +0.005 A 
ATOM     18  C   UNL     1     -12.018  10.998  13.298  0.00  0.00    -0.033 A 
ATOM     28  C   UNL     1     -12.900  10.686  12.186  0.00  0.00    +0.005 A 
ATOM     29  C   UNL     1     -12.799  11.365  10.951  0.00  0.00    +0.013 A 
BRANCH  18  19
ATOM     19  C   UNL     1     -12.188  10.189  14.597  0.00  0.00    +0.119 C 
BRANCH  19  20
ATOM     20  N   UNL     1     -11.045   9.326  15.020  0.00  0.00    -0.302 NA
ATOM     21  C   UNL     1     -10.695   8.277  13.962  0.00  0.00    +0.066 C 
ATOM     22  C   UNL     1      -9.482   7.398  14.411  0.00  0.00    -0.064 C 
ATOM     23  N   UNL     1      -9.807   6.731  15.749  0.00  0.00    +0.379 N 
ATOM     24  C   UNL     1      -8.693   5.858  16.146  0.00  0.00    -0.096 C 
ATOM     25  H   UNL     1     -10.704   6.086  15.596  0.00  0.00    -0.082 HD
ATOM     26  C   UNL     1     -10.159   7.768  16.806  0.00  0.00    -0.064 C 
ATOM     27  C   UNL     1     -11.346   8.655  16.337  0.00  0.00    +0.066 C 
ENDBRANCH  19  20
ENDBRANCH  18  19
ENDBRANCH  14  15
ENDBRANCH  12  13
TORSDOF 6
ENDMDL
MODEL 3
REMARK VINA RESULT:      -8.0      2.323      3.188
REMARK  Name = C:\Users\Docking\Desktop\test protocol\1iep_ligandH.pdb
REMARK  8 active torsions:
REMARK  status: ('A' for Active; 'I' for Inactive)
REMARK    1  A    between atoms: _5  and  _11
REMARK    2  A    between atoms: _19  and  _21
REMARK    3  A    between atoms: _22  and  _66
REMARK    4  A    between atoms: _27  and  _30
REMARK    5  A    between atoms: _32  and  _33
REMARK    6  A    between atoms: _38  and  _43
REMARK    7  A    between atoms: _43  and  _46
REMARK    8  A    between atoms: _53  and  _55
REMARK                            x       y       z     vdW  Elec       q    Type
REMARK                         _______ _______ _______ _____ _____    ______ ____
ROOT
ATOM     10  C   UNL     1     -10.137  23.546  -2.577  0.00  0.00    +0.038 A 
ATOM     11  C   UNL     1      -9.978  22.434  -1.711  0.00  0.00    +0.047 A 
ATOM     12  C   UNL     1      -9.550  21.140  -2.219  0.00  0.00    +0.035 A 
ATOM     32  C   UNL     1      -9.290  21.014  -3.615  0.00  0.00    +0.024 A 
ATOM     33  C   UNL     1      -9.448  22.134  -4.510  0.00  0.00    +0.007 A 
ATOM     34  C   UNL     1      -9.872  23.412  -4.015  0.00  0.00    -0.029 A 
ATOM     35  C   UNL     1     -10.030  24.576  -5.021  0.00  0.00    +0.045 C 
ENDROOT
BRANCH  10   9
ATOM      4  C   UNL     1     -13.524  26.781  -1.527  0.00  0.00    +0.077 A 
ATOM      5  C   UNL     1     -14.554  25.986  -2.132  0.00  0.00    +0.048 A 
ATOM      6  C   UNL     1     -14.169  24.755  -2.708  0.00  0.00    +0.116 A 
ATOM      7  N   UNL     1     -12.850  24.358  -2.676  0.00  0.00    -0.223 NA
ATOM      8  C   UNL     1     -11.881  25.149  -2.086  0.00  0.00    +0.220 A 
ATOM      9  N   UNL     1     -10.550  24.766  -2.036  0.00  0.00    -0.283 N 
ATOM     36  H   UNL     1      -9.864  25.381  -1.598  0.00  0.00    +0.155 HD
ATOM     37  N   UNL     1     -12.223  26.330  -1.530  0.00  0.00    -0.214 NA
BRANCH   4   3
ATOM      1  C   UNL     1     -14.846  30.386  -0.781  0.00  0.00    +0.020 A 
ATOM      2  C   UNL     1     -14.638  29.124  -1.454  0.00  0.00    +0.013 A 
ATOM      3  C   UNL     1     -13.773  28.105  -0.873  0.00  0.00    +0.019 A 
ATOM     38  C   UNL     1     -13.129  28.395   0.399  0.00  0.00    +0.120 A 
ATOM     39  N   UNL     1     -13.347  29.620   1.022  0.00  0.00    -0.263 NA
ATOM     40  C   UNL     1     -14.175  30.609   0.472  0.00  0.00    +0.111 A 
ENDBRANCH   4   3
ENDBRANCH  10   9
BRANCH  12  13
ATOM     13  N   UNL     1      -9.379  19.973  -1.389  0.00  0.00    -0.281 N 
ATOM     14  C   UNL     1     -10.273  18.935  -1.184  0.00  0.00    +0.248 C 
ATOM     30  O   UNL     1     -11.449  18.959  -1.519  0.00  0.00    -0.270 OA
ATOM     31  H   UNL     1      -8.491  19.904  -0.892  0.00  0.00    +0.155 HD
BRANCH  14  15
ATOM     15  C   UNL     1      -9.797  17.698  -0.495  0.00  0.00    +0.037 A 
ATOM     16  C   UNL     1     -10.657  16.517  -0.373  0.00  0.00    +0.013 A 
ATOM     17  C   UNL     1     -10.179  15.342   0.312  0.00  0.00    +0.005 A 
ATOM     18  C   UNL     1      -8.833  15.342   0.879  0.00  0.00    -0.033 A 
ATOM     28  C   UNL     1      -8.000  16.525   0.740  0.00  0.00    +0.005 A 
ATOM     29  C   UNL     1      -8.465  17.679   0.070  0.00  0.00    +0.013 A 
BRANCH  18  19
ATOM     19  C   UNL     1      -8.248  14.140   1.645  0.00  0.00    +0.119 C 
BRANCH  19  20
ATOM     20  N   UNL     1      -6.799  14.194   1.999  0.00  0.00    -0.302 NA
ATOM     21  C   UNL     1      -5.934  13.423   0.998  0.00  0.00    +0.066 C 
ATOM     22  C   UNL     1      -4.418  13.509   1.371  0.00  0.00    -0.064 C 
ATOM     23  N   UNL     1      -4.213  12.974   2.790  0.00  0.00    +0.379 N 
ATOM     24  C   UNL     1      -2.781  13.000   3.122  0.00  0.00    -0.096 C 
ATOM     25  H   UNL     1      -4.544  11.909   2.800  0.00  0.00    -0.082 HD
ATOM     26  C   UNL     1      -5.072  13.734   3.791  0.00  0.00    -0.064 C 
ATOM     27  C   UNL     1      -6.573  13.666   3.395  0.00  0.00    +0.066 C 
ENDBRANCH  19  20
ENDBRANCH  18  19
ENDBRANCH  14  15
ENDBRANCH  12  13
TORSDOF 6
ENDMDL
MODEL 4
REMARK VINA RESULT:      -8.0     10.038     15.193
REMARK  Name = C:\Users\Docking\Desktop\test protocol\1iep_ligandH.pdb
REMARK  8 active torsions:
REMARK  status: ('A' for Active; 'I' for Inactive)
REMARK    1  A    between atoms: _5  and  _11
REMARK    2  A    between atoms: _19  and  _21
REMARK    3  A    between atoms: _22  and  _66
REMARK    4  A    between atoms: _27  and  _30
REMARK    5  A    between atoms: _32  and  _33
REMARK    6  A    between atoms: _38  and  _43
REMARK    7  A    between atoms: _43  and  _46
REMARK    8  A    between atoms: _53  and  _55
REMARK                            x       y       z     vdW  Elec       q    Type
REMARK                         _______ _______ _______ _____ _____    ______ ____
ROOT
ATOM     10  C   UNL     1     -11.653  12.501   8.028  0.00  0.00    +0.038 A 
ATOM     11  C   UNL     1     -11.587  12.866   9.397  0.00  0.00    +0.047 A 
ATOM     12  C   UNL     1     -12.748  12.745  10.265  0.00  0.00    +0.035 A 
ATOM     32  C   UNL     1     -13.961  12.247   9.706  0.00  0.00    +0.024 A 
ATOM     33  C   UNL     1     -14.046  11.873   8.316  0.00  0.00    +0.007 A 
ATOM     34  C   UNL     1     -12.905  11.992   7.454  0.00  0.00    -0.029 A 
ATOM     35  C   UNL     1     -13.056  11.582   5.971  0.00  0.00    +0.045 C 
ENDROOT
BRANCH  10   9
ATOM      4  C   UNL     1      -8.484  15.156   5.590  0.00  0.00    +0.077 A 
ATOM      5  C   UNL     1      -9.184  16.372   5.888  0.00  0.00    +0.048 A 
ATOM      6  C   UNL     1     -10.359  16.270   6.665  0.00  0.00    +0.116 A 
ATOM      7  N   UNL     1     -10.793  15.039   7.107  0.00  0.00    -0.223 NA
ATOM      8  C   UNL     1     -10.095  13.885   6.800  0.00  0.00    +0.220 A 
ATOM      9  N   UNL     1     -10.508  12.637   7.241  0.00  0.00    -0.283 N 
ATOM     36  H   UNL     1      -9.969  11.810   6.987  0.00  0.00    +0.155 HD
ATOM     37  N   UNL     1      -8.970  13.956   6.058  0.00  0.00    -0.214 NA
BRANCH   4   3
ATOM      1  C   UNL     1      -4.730  14.802   4.547  0.00  0.00    +0.020 A 
ATOM      2  C   UNL     1      -5.916  14.846   5.372  0.00  0.00    +0.013 A 
ATOM      3  C   UNL     1      -7.224  15.100   4.782  0.00  0.00    +0.019 A 
ATOM     38  C   UNL     1      -7.300  15.307   3.344  0.00  0.00    +0.120 A 
ATOM     39  N   UNL     1      -6.141  15.260   2.575  0.00  0.00    -0.263 NA
ATOM     40  C   UNL     1      -4.876  15.018   3.131  0.00  0.00    +0.111 A 
ENDBRANCH   4   3
ENDBRANCH  10   9
BRANCH  12  13
ATOM     13  N   UNL     1     -12.743  13.107  11.661  0.00  0.00    -0.281 N 
ATOM     14  C   UNL     1     -12.009  12.534  12.687  0.00  0.00    +0.248 C 
ATOM     30  O   UNL     1     -11.402  11.477  12.595  0.00  0.00    -0.270 OA
ATOM     31  H   UNL     1     -13.354  13.880  11.925  0.00  0.00    +0.155 HD
BRANCH  14  15
ATOM     15  C   UNL     1     -11.953  13.228  14.009  0.00  0.00    +0.037 A 
ATOM     16  C   UNL     1     -10.702  13.797  14.516  0.00  0.00    +0.013 A 
ATOM     17  C   UNL     1     -10.672  14.446  15.803  0.00  0.00    +0.005 A 
ATOM     18  C   UNL     1     -11.899  14.530  16.592  0.00  0.00    -0.033 A 
ATOM     28  C   UNL     1     -13.127  13.962  16.062  0.00  0.00    +0.005 A 
ATOM     29  C   UNL     1     -13.160  13.324  14.802  0.00  0.00    +0.013 A 
BRANCH  18  19
ATOM     19  C   UNL     1     -11.955  15.186  17.984  0.00  0.00    +0.119 C 
BRANCH  19  20
ATOM     20  N   UNL     1     -12.655  16.501  18.093  0.00  0.00    -0.302 NA
ATOM     21  C   UNL     1     -12.328  17.425  16.918  0.00  0.00    +0.066 C 
ATOM     22  C   UNL     1     -13.086  18.787  17.036  0.00  0.00    -0.064 C 
ATOM     23  N   UNL     1     -12.728  19.454  18.366  0.00  0.00    +0.379 N 
ATOM     24  C   UNL     1     -13.394  20.761  18.455  0.00  0.00    -0.096 C 
ATOM     25  H   UNL     1     -11.627  19.634  18.368  0.00  0.00    -0.082 HD
ATOM     26  C   UNL     1     -13.047  18.540  19.540  0.00  0.00    -0.064 C 
ATOM     27  C   UNL     1     -12.312  17.178  19.397  0.00  0.00    +0.066 C 
ENDBRANCH  19  20
ENDBRANCH  18  19
ENDBRANCH  14  15
ENDBRANCH  12  13
TORSDOF 6
ENDMDL
MODEL 5
REMARK VINA RESULT:      -7.8      3.739     12.836
REMARK  Name = C:\Users\Docking\Desktop\test protocol\1iep_ligandH.pdb
REMARK  8 active torsions:
REMARK  status: ('A' for Active; 'I' for Inactive)
REMARK    1  A    between atoms: _5  and  _11
REMARK    2  A    between atoms: _19  and  _21
REMARK    3  A    between atoms: _22  and  _66
REMARK    4  A    between atoms: _27  and  _30
REMARK    5  A    between atoms: _32  and  _33
REMARK    6  A    between atoms: _38  and  _43
REMARK    7  A    between atoms: _43  and  _46
REMARK    8  A    between atoms: _53  and  _55
REMARK                            x       y       z     vdW  Elec       q    Type
REMARK                         _______ _______ _______ _____ _____    ______ ____
ROOT
ATOM     10  C   UNL     1     -10.779  23.305  -3.512  0.00  0.00    +0.038 A 
ATOM     11  C   UNL     1     -11.128  24.455  -2.759  0.00  0.00    +0.047 A 
ATOM     12  C   UNL     1     -12.140  25.386  -3.232  0.00  0.00    +0.035 A 
ATOM     32  C   UNL     1     -12.779  25.114  -4.476  0.00  0.00    +0.024 A 
ATOM     33  C   UNL     1     -12.437  23.950  -5.255  0.00  0.00    +0.007 A 
ATOM     34  C   UNL     1     -11.437  23.029  -4.795  0.00  0.00    -0.029 A 
ATOM     35  C   UNL     1     -11.105  21.801  -5.674  0.00  0.00    +0.045 C 
ENDROOT
BRANCH  10   9
ATOM      4  C   UNL     1      -9.421  19.238  -1.355  0.00  0.00    +0.077 A 
ATOM      5  C   UNL     1     -10.778  18.803  -1.190  0.00  0.00    +0.048 A 
ATOM      6  C   UNL     1     -11.797  19.658  -1.668  0.00  0.00    +0.116 A 
ATOM      7  N   UNL     1     -11.470  20.856  -2.264  0.00  0.00    -0.223 NA
ATOM      8  C   UNL     1     -10.151  21.247  -2.406  0.00  0.00    +0.220 A 
ATOM      9  N   UNL     1      -9.800  22.444  -3.010  0.00  0.00    -0.283 N 
ATOM     36  H   UNL     1      -8.816  22.700  -3.088  0.00  0.00    +0.155 HD
ATOM     37  N   UNL     1      -9.161  20.449  -1.957  0.00  0.00    -0.214 NA
BRANCH   4   3
ATOM      1  C   UNL     1      -5.751  18.084  -0.649  0.00  0.00    +0.020 A 
ATOM      2  C   UNL     1      -6.861  18.889  -1.104  0.00  0.00    +0.013 A 
ATOM      3  C   UNL     1      -8.235  18.443  -0.905  0.00  0.00    +0.019 A 
ATOM     38  C   UNL     1      -8.452  17.169  -0.237  0.00  0.00    +0.120 A 
ATOM     39  N   UNL     1      -7.363  16.414   0.188  0.00  0.00    -0.263 NA
ATOM     40  C   UNL     1      -6.037  16.832   0.001  0.00  0.00    +0.111 A 
ENDBRANCH   4   3
ENDBRANCH  10   9
BRANCH  12  13
ATOM     13  N   UNL     1     -12.529  26.575  -2.515  0.00  0.00    -0.281 N 
ATOM     14  C   UNL     1     -13.016  26.667  -1.221  0.00  0.00    +0.248 C 
ATOM     30  O   UNL     1     -13.393  25.715  -0.555  0.00  0.00    -0.270 OA
ATOM     31  H   UNL     1     -12.435  27.454  -3.022  0.00  0.00    +0.155 HD
BRANCH  14  15
ATOM     15  C   UNL     1     -13.111  28.014  -0.580  0.00  0.00    +0.037 A 
ATOM     16  C   UNL     1     -13.353  28.156   0.858  0.00  0.00    +0.013 A 
ATOM     17  C   UNL     1     -13.457  29.467   1.448  0.00  0.00    +0.005 A 
ATOM     18  C   UNL     1     -13.317  30.648   0.599  0.00  0.00    -0.033 A 
ATOM     28  C   UNL     1     -13.071  30.478  -0.824  0.00  0.00    +0.005 A 
ATOM     29  C   UNL     1     -12.970  29.195  -1.406  0.00  0.00    +0.013 A 
BRANCH  18  19
ATOM     19  C   UNL     1     -13.434  32.085   1.139  0.00  0.00    +0.119 C 
BRANCH  19  20
ATOM     20  N   UNL     1     -14.802  32.681   1.206  0.00  0.00    -0.302 NA
ATOM     21  C   UNL     1     -15.232  33.285  -0.133  0.00  0.00    +0.066 C 
ATOM     22  C   UNL     1     -16.674  33.883  -0.051  0.00  0.00    -0.064 C 
ATOM     23  N   UNL     1     -16.724  34.935   1.058  0.00  0.00    +0.379 N 
ATOM     24  C   UNL     1     -18.063  35.541   1.099  0.00  0.00    -0.096 C 
ATOM     25  H   UNL     1     -15.997  35.739   0.795  0.00  0.00    -0.082 HD
ATOM     26  C   UNL     1     -16.296  34.344   2.393  0.00  0.00    -0.064 C 
ATOM     27  C   UNL     1     -14.873  33.726   2.293  0.00  0.00    +0.066 C 
ENDBRANCH  19  20
ENDBRANCH  18  19
ENDBRANCH  14  15
ENDBRANCH  12  13
TORSDOF 6
ENDMDL
