MODEL 1
REMARK VINA RESULT:      -7.0      0.000      0.000
REMARK  Name = C:\Users\Docking\Desktop\test protocol\1iep_ligandH.pdb
REMARK  8 active torsions:
REMARK  status: ('A' for Active; 'I' for Inactive)
REMARK    1  A    between atoms: _5  and  _11
REMARK    2  A    between atoms: _19  and  _21
REMARK    3  A    between atoms: _22  and  _66
REMARK    4  A    between atoms: _27  and  _30
REMARK    5  A    between atoms: _32  and  _33
REMARK    6  A    between atoms: _38  and  _43
REMARK    7  A    between atoms: _43  and  _46
REMARK    8  A    between atoms: _53  and  _55
REMARK                            x       y       z     vdW  Elec       q    Type
REMARK                         _______ _______ _______ _____ _____    ______ ____
ROOT
ATOM     10  C   UNL     1      30.954 -26.496  20.822  0.00  0.00    +0.038 A 
ATOM     11  C   UNL     1      31.108 -27.864  20.480  0.00  0.00    +0.047 A 
ATOM     12  C   UNL     1      32.017 -28.727  21.219  0.00  0.00    +0.035 A 
ATOM     32  C   UNL     1      32.752 -28.163  22.303  0.00  0.00    +0.024 A 
ATOM     33  C   UNL     1      32.609 -26.775  22.663  0.00  0.00    +0.007 A 
ATOM     34  C   UNL     1      31.715 -25.919  21.936  0.00  0.00    -0.029 A 
ATOM     35  C   UNL     1      31.606 -24.436  22.363  0.00  0.00    +0.045 C 
ENDROOT
BRANCH  10   9
ATOM      4  C   UNL     1      29.942 -23.573  17.152  0.00  0.00    +0.077 A 
ATOM      5  C   UNL     1      31.300 -23.584  16.692  0.00  0.00    +0.048 A 
ATOM      6  C   UNL     1      32.230 -24.349  17.432  0.00  0.00    +0.116 A 
ATOM      7  N   UNL     1      31.820 -25.047  18.547  0.00  0.00    -0.223 NA
ATOM      8  C   UNL     1      30.503 -25.014  18.965  0.00  0.00    +0.220 A 
ATOM      9  N   UNL     1      30.067 -25.714  20.079  0.00  0.00    -0.283 N 
ATOM     36  H   UNL     1      29.088 -25.658  20.359  0.00  0.00    +0.155 HD
ATOM     37  N   UNL     1      29.596 -24.290  18.276  0.00  0.00    -0.214 NA
BRANCH   4   3
ATOM      1  C   UNL     1      26.773 -21.374  16.506  0.00  0.00    +0.020 A 
ATOM      2  C   UNL     1      27.812 -22.090  17.208  0.00  0.00    +0.013 A 
ATOM      3  C   UNL     1      28.842 -22.816  16.475  0.00  0.00    +0.019 A 
ATOM     38  C   UNL     1      28.792 -22.795  15.021  0.00  0.00    +0.120 A 
ATOM     39  N   UNL     1      27.778 -22.098  14.372  0.00  0.00    -0.263 NA
ATOM     40  C   UNL     1      26.780 -21.397  15.067  0.00  0.00    +0.111 A 
ENDBRANCH   4   3
ENDBRANCH  10   9
BRANCH  12  13
ATOM     13  N   UNL     1      32.221 -30.121  20.913  0.00  0.00    -0.281 N 
ATOM     14  C   UNL     1      31.340 -31.173  21.106  0.00  0.00    +0.248 C 
ATOM     30  O   UNL     1      30.318 -31.105  21.772  0.00  0.00    -0.270 OA
ATOM     31  H   UNL     1      33.124 -30.362  20.504  0.00  0.00    +0.155 HD
BRANCH  14  15
ATOM     15  C   UNL     1      31.646 -32.495  20.480  0.00  0.00    +0.037 A 
ATOM     16  C   UNL     1      30.825 -33.676  20.757  0.00  0.00    +0.013 A 
ATOM     17  C   UNL     1      31.152 -34.943  20.154  0.00  0.00    +0.005 A 
ATOM     18  C   UNL     1      32.308 -35.035  19.264  0.00  0.00    -0.033 A 
ATOM     28  C   UNL     1      33.103 -33.847  19.002  0.00  0.00    +0.005 A 
ATOM     29  C   UNL     1      32.785 -32.603  19.593  0.00  0.00    +0.013 A 
BRANCH  18  19
ATOM     19  C   UNL     1      32.744 -36.351  18.593  0.00  0.00    +0.119 C 
BRANCH  19  20
ATOM     20  N   UNL     1      32.760 -36.385  17.100  0.00  0.00    -0.302 NA
ATOM     21  C   UNL     1      31.742 -37.380  16.537  0.00  0.00    +0.066 C 
ATOM     22  C   UNL     1      31.757 -37.386  14.974  0.00  0.00    -0.064 C 
ATOM     23  N   UNL     1      33.166 -37.716  14.481  0.00  0.00    +0.379 N 
ATOM     24  C   UNL     1      33.170 -37.780  13.012  0.00  0.00    -0.096 C 
ATOM     25  H   UNL     1      33.429 -38.730  14.864  0.00  0.00    -0.082 HD
ATOM     26  C   UNL     1      34.186 -36.733  15.039  0.00  0.00    -0.064 C 
ATOM     27  C   UNL     1      34.142 -36.714  16.592  0.00  0.00    +0.066 C 
ENDBRANCH  19  20
ENDBRANCH  18  19
ENDBRANCH  14  15
ENDBRANCH  12  13
TORSDOF 6
ENDMDL
MODEL 2
REMARK VINA RESULT:      -6.9      2.078      2.667
REMARK  Name = C:\Users\Docking\Desktop\test protocol\1iep_ligandH.pdb
REMARK  8 active torsions:
REMARK  status: ('A' for Active; 'I' for Inactive)
REMARK    1  A    between atoms: _5  and  _11
REMARK    2  A    between atoms: _19  and  _21
REMARK    3  A    between atoms: _22  and  _66
REMARK    4  A    between atoms: _27  and  _30
REMARK    5  A    between atoms: _32  and  _33
REMARK    6  A    between atoms: _38  and  _43
REMARK    7  A    between atoms: _43  and  _46
REMARK    8  A    between atoms: _53  and  _55
REMARK                            x       y       z     vdW  Elec       q    Type
REMARK                         _______ _______ _______ _____ _____    ______ ____
ROOT
ATOM     10  C   UNL     1      31.182 -26.906  21.254  0.00  0.00    +0.038 A 
ATOM     11  C   UNL     1      31.579 -28.234  20.952  0.00  0.00    +0.047 A 
ATOM     12  C   UNL     1      32.462 -28.975  21.839  0.00  0.00    +0.035 A 
ATOM     32  C   UNL     1      32.918 -28.335  23.028  0.00  0.00    +0.024 A 
ATOM     33  C   UNL     1      32.525 -26.985  23.350  0.00  0.00    +0.007 A 
ATOM     34  C   UNL     1      31.657 -26.248  22.477  0.00  0.00    -0.029 A 
ATOM     35  C   UNL     1      31.273 -24.802  22.869  0.00  0.00    +0.045 C 
ENDROOT
BRANCH  10   9
ATOM      4  C   UNL     1      30.401 -24.209  17.361  0.00  0.00    +0.077 A 
ATOM      5  C   UNL     1      31.804 -24.093  17.087  0.00  0.00    +0.048 A 
ATOM      6  C   UNL     1      32.694 -24.737  17.977  0.00  0.00    +0.116 A 
ATOM      7  N   UNL     1      32.206 -25.441  19.056  0.00  0.00    -0.223 NA
ATOM      8  C   UNL     1      30.846 -25.531  19.292  0.00  0.00    +0.220 A 
ATOM      9  N   UNL     1      30.333 -26.241  20.366  0.00  0.00    -0.283 N 
ATOM     36  H   UNL     1      29.324 -26.278  20.510  0.00  0.00    +0.155 HD
ATOM     37  N   UNL     1      29.976 -24.925  18.458  0.00  0.00    -0.214 NA
BRANCH   4   3
ATOM      1  C   UNL     1      28.566 -22.198  14.552  0.00  0.00    +0.020 A 
ATOM      2  C   UNL     1      29.632 -22.775  15.339  0.00  0.00    +0.013 A 
ATOM      3  C   UNL     1      29.336 -23.588  16.512  0.00  0.00    +0.019 A 
ATOM     38  C   UNL     1      27.940 -23.802  16.863  0.00  0.00    +0.120 A 
ATOM     39  N   UNL     1      26.935 -23.233  16.087  0.00  0.00    -0.263 NA
ATOM     40  C   UNL     1      27.208 -22.447  14.958  0.00  0.00    +0.111 A 
ENDBRANCH   4   3
ENDBRANCH  10   9
BRANCH  12  13
ATOM     13  N   UNL     1      32.906 -30.322  21.581  0.00  0.00    -0.281 N 
ATOM     14  C   UNL     1      32.151 -31.399  21.147  0.00  0.00    +0.248 C 
ATOM     30  O   UNL     1      30.929 -31.421  21.119  0.00  0.00    -0.270 OA
ATOM     31  H   UNL     1      33.897 -30.504  21.737  0.00  0.00    +0.155 HD
BRANCH  14  15
ATOM     15  C   UNL     1      32.854 -32.637  20.691  0.00  0.00    +0.037 A 
ATOM     16  C   UNL     1      32.652 -33.173  19.342  0.00  0.00    +0.013 A 
ATOM     17  C   UNL     1      33.330 -34.378  18.934  0.00  0.00    +0.005 A 
ATOM     18  C   UNL     1      34.217 -35.055  19.876  0.00  0.00    -0.033 A 
ATOM     28  C   UNL     1      34.402 -34.500  21.207  0.00  0.00    +0.005 A 
ATOM     29  C   UNL     1      33.739 -33.319  21.611  0.00  0.00    +0.013 A 
BRANCH  18  19
ATOM     19  C   UNL     1      34.963 -36.358  19.533  0.00  0.00    +0.119 C 
BRANCH  19  20
ATOM     20  N   UNL     1      36.138 -36.252  18.617  0.00  0.00    -0.302 NA
ATOM     21  C   UNL     1      36.780 -34.862  18.664  0.00  0.00    +0.066 C 
ATOM     22  C   UNL     1      38.020 -34.776  17.717  0.00  0.00    -0.064 C 
ATOM     23  N   UNL     1      37.595 -35.128  16.291  0.00  0.00    +0.379 N 
ATOM     24  C   UNL     1      38.747 -34.991  15.387  0.00  0.00    -0.096 C 
ATOM     25  H   UNL     1      36.826 -34.385  15.974  0.00  0.00    -0.082 HD
ATOM     26  C   UNL     1      36.953 -36.507  16.235  0.00  0.00    -0.064 C 
ATOM     27  C   UNL     1      35.740 -36.591  17.202  0.00  0.00    +0.066 C 
ENDBRANCH  19  20
ENDBRANCH  18  19
ENDBRANCH  14  15
ENDBRANCH  12  13
TORSDOF 6
ENDMDL
MODEL 3
REMARK VINA RESULT:      -6.7      2.040     11.644
REMARK  Name = C:\Users\Docking\Desktop\test protocol\1iep_ligandH.pdb
REMARK  8 active torsions:
REMARK  status: ('A' for Active; 'I' for Inactive)
REMARK    1  A    between atoms: _5  and  _11
REMARK    2  A    between atoms: _19  and  _21
REMARK    3  A    between atoms: _22  and  _66
REMARK    4  A    between atoms: _27  and  _30
REMARK    5  A    between atoms: _32  and  _33
REMARK    6  A    between atoms: _38  and  _43
REMARK    7  A    between atoms: _43  and  _46
REMARK    8  A    between atoms: _53  and  _55
REMARK                            x       y       z     vdW  Elec       q    Type
REMARK                         _______ _______ _______ _____ _____    ______ ____
ROOT
ATOM     10  C   UNL     1      33.612 -34.161  19.440  0.00  0.00    +0.038 A 
ATOM     11  C   UNL     1      32.960 -32.904  19.375  0.00  0.00    +0.047 A 
ATOM     12  C   UNL     1      32.660 -32.148  20.581  0.00  0.00    +0.035 A 
ATOM     32  C   UNL     1      33.041 -32.702  21.838  0.00  0.00    +0.024 A 
ATOM     33  C   UNL     1      33.704 -33.980  21.923  0.00  0.00    +0.007 A 
ATOM     34  C   UNL     1      34.000 -34.731  20.736  0.00  0.00    -0.029 A 
ATOM     35  C   UNL     1      34.707 -36.098  20.887  0.00  0.00    +0.045 C 
ENDROOT
BRANCH  10   9
ATOM      4  C   UNL     1      32.473 -37.376  16.063  0.00  0.00    +0.077 A 
ATOM      5  C   UNL     1      31.264 -37.746  16.740  0.00  0.00    +0.048 A 
ATOM      6  C   UNL     1      30.975 -37.091  17.958  0.00  0.00    +0.116 A 
ATOM      7  N   UNL     1      31.838 -36.138  18.452  0.00  0.00    -0.223 NA
ATOM      8  C   UNL     1      32.997 -35.805  17.775  0.00  0.00    +0.220 A 
ATOM      9  N   UNL     1      33.876 -34.844  18.250  0.00  0.00    -0.283 N 
ATOM     36  H   UNL     1      34.724 -34.632  17.725  0.00  0.00    +0.155 HD
ATOM     37  N   UNL     1      33.296 -36.417  16.611  0.00  0.00    -0.214 NA
BRANCH   4   3
ATOM      1  C   UNL     1      32.689 -38.341  12.278  0.00  0.00    +0.020 A 
ATOM      2  C   UNL     1      32.221 -37.737  13.505  0.00  0.00    +0.013 A 
ATOM      3  C   UNL     1      32.915 -37.976  14.764  0.00  0.00    +0.019 A 
ATOM     38  C   UNL     1      34.088 -38.837  14.748  0.00  0.00    +0.120 A 
ATOM     39  N   UNL     1      34.514 -39.406  13.552  0.00  0.00    -0.263 NA
ATOM     40  C   UNL     1      33.854 -39.184  12.334  0.00  0.00    +0.111 A 
ENDBRANCH   4   3
ENDBRANCH  10   9
BRANCH  12  13
ATOM     13  N   UNL     1      31.992 -30.870  20.578  0.00  0.00    -0.281 N 
ATOM     14  C   UNL     1      32.321 -29.735  21.301  0.00  0.00    +0.248 C 
ATOM     30  O   UNL     1      33.117 -29.713  22.228  0.00  0.00    -0.270 OA
ATOM     31  H   UNL     1      31.178 -30.792  19.967  0.00  0.00    +0.155 HD
BRANCH  14  15
ATOM     15  C   UNL     1      31.659 -28.441  20.954  0.00  0.00    +0.037 A 
ATOM     16  C   UNL     1      30.205 -28.348  20.802  0.00  0.00    +0.013 A 
ATOM     17  C   UNL     1      29.593 -27.091  20.450  0.00  0.00    +0.005 A 
ATOM     18  C   UNL     1      30.437 -25.915  20.250  0.00  0.00    -0.033 A 
ATOM     28  C   UNL     1      31.876 -26.034  20.413  0.00  0.00    +0.005 A 
ATOM     29  C   UNL     1      32.479 -27.265  20.756  0.00  0.00    +0.013 A 
BRANCH  18  19
ATOM     19  C   UNL     1      29.872 -24.538  19.853  0.00  0.00    +0.119 C 
BRANCH  19  20
ATOM     20  N   UNL     1      29.866 -24.196  18.399  0.00  0.00    -0.302 NA
ATOM     21  C   UNL     1      29.145 -25.256  17.562  0.00  0.00    +0.066 C 
ATOM     22  C   UNL     1      29.128 -24.870  16.047  0.00  0.00    -0.064 C 
ATOM     23  N   UNL     1      30.564 -24.678  15.557  0.00  0.00    +0.379 N 
ATOM     24  C   UNL     1      30.554 -24.372  14.119  0.00  0.00    -0.096 C 
ATOM     25  H   UNL     1      31.100 -25.645  15.693  0.00  0.00    -0.082 HD
ATOM     26  C   UNL     1      31.289 -23.627  16.385  0.00  0.00    -0.064 C 
ATOM     27  C   UNL     1      31.275 -24.005  17.893  0.00  0.00    +0.066 C 
ENDBRANCH  19  20
ENDBRANCH  18  19
ENDBRANCH  14  15
ENDBRANCH  12  13
TORSDOF 6
ENDMDL
MODEL 4
REMARK VINA RESULT:      -6.6     24.307     30.735
REMARK  Name = C:\Users\Docking\Desktop\test protocol\1iep_ligandH.pdb
REMARK  8 active torsions:
REMARK  status: ('A' for Active; 'I' for Inactive)
REMARK    1  A    between atoms: _5  and  _11
REMARK    2  A    between atoms: _19  and  _21
REMARK    3  A    between atoms: _22  and  _66
REMARK    4  A    between atoms: _27  and  _30
REMARK    5  A    between atoms: _32  and  _33
REMARK    6  A    between atoms: _38  and  _43
REMARK    7  A    between atoms: _43  and  _46
REMARK    8  A    between atoms: _53  and  _55
REMARK                            x       y       z     vdW  Elec       q    Type
REMARK                         _______ _______ _______ _____ _____    ______ ____
ROOT
ATOM     10  C   UNL     1      33.518 -50.128  -2.803  0.00  0.00    +0.038 A 
ATOM     11  C   UNL     1      33.856 -48.876  -3.377  0.00  0.00    +0.047 A 
ATOM     12  C   UNL     1      34.494 -47.834  -2.587  0.00  0.00    +0.035 A 
ATOM     32  C   UNL     1      34.775 -48.102  -1.216  0.00  0.00    +0.024 A 
ATOM     33  C   UNL     1      34.437 -49.369  -0.616  0.00  0.00    +0.007 A 
ATOM     34  C   UNL     1      33.806 -50.400  -1.389  0.00  0.00    -0.029 A 
ATOM     35  C   UNL     1      33.460 -51.736  -0.692  0.00  0.00    +0.045 C 
ENDROOT
BRANCH  10   9
ATOM      4  C   UNL     1      29.660 -52.060  -4.906  0.00  0.00    +0.077 A 
ATOM      5  C   UNL     1      28.784 -51.081  -4.332  0.00  0.00    +0.048 A 
ATOM      6  C   UNL     1      29.364 -50.101  -3.495  0.00  0.00    +0.116 A 
ATOM      7  N   UNL     1      30.721 -50.110  -3.258  0.00  0.00    -0.223 NA
ATOM      8  C   UNL     1      31.539 -51.070  -3.826  0.00  0.00    +0.220 A 
ATOM      9  N   UNL     1      32.907 -51.093  -3.607  0.00  0.00    -0.283 N 
ATOM     36  H   UNL     1      33.475 -51.822  -4.039  0.00  0.00    +0.155 HD
ATOM     37  N   UNL     1      31.008 -52.017  -4.627  0.00  0.00    -0.214 NA
BRANCH   4   3
ATOM      1  C   UNL     1      27.603 -55.003  -6.458  0.00  0.00    +0.020 A 
ATOM      2  C   UNL     1      28.007 -53.955  -5.549  0.00  0.00    +0.013 A 
ATOM      3  C   UNL     1      29.198 -53.157  -5.813  0.00  0.00    +0.019 A 
ATOM     38  C   UNL     1      29.964 -53.448  -7.016  0.00  0.00    +0.120 A 
ATOM     39  N   UNL     1      29.552 -54.464  -7.872  0.00  0.00    -0.263 NA
ATOM     40  C   UNL     1      28.409 -55.239  -7.627  0.00  0.00    +0.111 A 
ENDBRANCH   4   3
ENDBRANCH  10   9
BRANCH  12  13
ATOM     13  N   UNL     1      34.853 -46.540  -3.113  0.00  0.00    -0.281 N 
ATOM     14  C   UNL     1      34.008 -45.543  -3.572  0.00  0.00    +0.248 C 
ATOM     30  O   UNL     1      32.817 -45.696  -3.799  0.00  0.00    -0.270 OA
ATOM     31  H   UNL     1      35.851 -46.335  -3.153  0.00  0.00    +0.155 HD
BRANCH  14  15
ATOM     15  C   UNL     1      34.570 -44.182  -3.829  0.00  0.00    +0.037 A 
ATOM     16  C   UNL     1      33.710 -43.070  -4.240  0.00  0.00    +0.013 A 
ATOM     17  C   UNL     1      34.280 -41.771  -4.499  0.00  0.00    +0.005 A 
ATOM     18  C   UNL     1      35.720 -41.578  -4.345  0.00  0.00    -0.033 A 
ATOM     28  C   UNL     1      36.550 -42.698  -3.931  0.00  0.00    +0.005 A 
ATOM     29  C   UNL     1      35.994 -43.972  -3.678  0.00  0.00    +0.013 A 
BRANCH  18  19
ATOM     19  C   UNL     1      36.418 -40.233  -4.620  0.00  0.00    +0.119 C 
BRANCH  19  20
ATOM     20  N   UNL     1      37.390 -39.745  -3.597  0.00  0.00    -0.302 NA
ATOM     21  C   UNL     1      36.973 -38.396  -3.006  0.00  0.00    +0.066 C 
ATOM     22  C   UNL     1      37.990 -37.911  -1.921  0.00  0.00    -0.064 C 
ATOM     23  N   UNL     1      39.387 -37.824  -2.538  0.00  0.00    +0.379 N 
ATOM     24  C   UNL     1      40.334 -37.313  -1.537  0.00  0.00    -0.096 C 
ATOM     25  H   UNL     1      39.342 -37.084  -3.371  0.00  0.00    -0.082 HD
ATOM     26  C   UNL     1      39.808 -39.161  -3.131  0.00  0.00    -0.064 C 
ATOM     27  C   UNL     1      38.776 -39.647  -4.186  0.00  0.00    +0.066 C 
ENDBRANCH  19  20
ENDBRANCH  18  19
ENDBRANCH  14  15
ENDBRANCH  12  13
TORSDOF 6
ENDMDL
MODEL 5
REMARK VINA RESULT:      -6.6      1.758     12.038
REMARK  Name = C:\Users\Docking\Desktop\test protocol\1iep_ligandH.pdb
REMARK  8 active torsions:
REMARK  status: ('A' for Active; 'I' for Inactive)
REMARK    1  A    between atoms: _5  and  _11
REMARK    2  A    between atoms: _19  and  _21
REMARK    3  A    between atoms: _22  and  _66
REMARK    4  A    between atoms: _27  and  _30
REMARK    5  A    between atoms: _32  and  _33
REMARK    6  A    between atoms: _38  and  _43
REMARK    7  A    between atoms: _43  and  _46
REMARK    8  A    between atoms: _53  and  _55
REMARK                            x       y       z     vdW  Elec       q    Type
REMARK                         _______ _______ _______ _____ _____    ______ ____
ROOT
ATOM     10  C   UNL     1      33.616 -34.715  19.565  0.00  0.00    +0.038 A 
ATOM     11  C   UNL     1      33.149 -33.377  19.504  0.00  0.00    +0.047 A 
ATOM     12  C   UNL     1      32.344 -32.812  20.576  0.00  0.00    +0.035 A 
ATOM     32  C   UNL     1      32.035 -33.637  21.696  0.00  0.00    +0.024 A 
ATOM     33  C   UNL     1      32.501 -35.000  21.773  0.00  0.00    +0.007 A 
ATOM     34  C   UNL     1      33.293 -35.563  20.718  0.00  0.00    -0.029 A 
ATOM     35  C   UNL     1      33.760 -37.032  20.851  0.00  0.00    +0.045 C 
ENDROOT
BRANCH  10   9
ATOM      4  C   UNL     1      34.103 -37.156  15.461  0.00  0.00    +0.077 A 
ATOM      5  C   UNL     1      32.712 -37.505  15.434  0.00  0.00    +0.048 A 
ATOM      6  C   UNL     1      31.907 -37.042  16.499  0.00  0.00    +0.116 A 
ATOM      7  N   UNL     1      32.462 -36.287  17.510  0.00  0.00    -0.223 NA
ATOM      8  C   UNL     1      33.808 -35.970  17.506  0.00  0.00    +0.220 A 
ATOM      9  N   UNL     1      34.386 -35.206  18.508  0.00  0.00    -0.283 N 
ATOM     36  H   UNL     1      35.384 -35.000  18.472  0.00  0.00    +0.155 HD
ATOM     37  N   UNL     1      34.598 -36.401  16.501  0.00  0.00    -0.214 NA
BRANCH   4   3
ATOM      1  C   UNL     1      37.341 -37.461  13.288  0.00  0.00    +0.020 A 
ATOM      2  C   UNL     1      36.435 -37.030  14.327  0.00  0.00    +0.013 A 
ATOM      3  C   UNL     1      35.082 -37.567  14.405  0.00  0.00    +0.019 A 
ATOM     38  C   UNL     1      34.675 -38.546  13.409  0.00  0.00    +0.120 A 
ATOM     39  N   UNL     1      35.568 -38.941  12.418  0.00  0.00    -0.263 NA
ATOM     40  C   UNL     1      36.872 -38.430  12.332  0.00  0.00    +0.111 A 
ENDBRANCH   4   3
ENDBRANCH  10   9
BRANCH  12  13
ATOM     13  N   UNL     1      31.835 -31.463  20.566  0.00  0.00    -0.281 N 
ATOM     14  C   UNL     1      32.264 -30.386  21.325  0.00  0.00    +0.248 C 
ATOM     30  O   UNL     1      33.013 -30.472  22.286  0.00  0.00    -0.270 OA
ATOM     31  H   UNL     1      31.066 -31.280  19.922  0.00  0.00    +0.155 HD
BRANCH  14  15
ATOM     15  C   UNL     1      31.778 -29.016  20.973  0.00  0.00    +0.037 A 
ATOM     16  C   UNL     1      30.347 -28.719  20.875  0.00  0.00    +0.013 A 
ATOM     17  C   UNL     1      29.906 -27.394  20.517  0.00  0.00    +0.005 A 
ATOM     18  C   UNL     1      30.899 -26.355  20.256  0.00  0.00    -0.033 A 
ATOM     28  C   UNL     1      32.313 -26.676  20.366  0.00  0.00    +0.005 A 
ATOM     29  C   UNL     1      32.748 -27.974  20.715  0.00  0.00    +0.013 A 
BRANCH  18  19
ATOM     19  C   UNL     1      30.520 -24.920  19.848  0.00  0.00    +0.119 C 
BRANCH  19  20
ATOM     20  N   UNL     1      30.111 -24.698  18.429  0.00  0.00    -0.302 NA
ATOM     21  C   UNL     1      31.296 -24.296  17.546  0.00  0.00    +0.066 C 
ATOM     22  C   UNL     1      30.855 -24.089  16.060  0.00  0.00    -0.064 C 
ATOM     23  N   UNL     1      29.752 -23.031  16.001  0.00  0.00    +0.379 N 
ATOM     24  C   UNL     1      29.375 -22.793  14.600  0.00  0.00    -0.096 C 
ATOM     25  H   UNL     1      30.173 -22.081  16.405  0.00  0.00    -0.082 HD
ATOM     26  C   UNL     1      28.571 -23.422  16.878  0.00  0.00    -0.064 C 
ATOM     27  C   UNL     1      29.025 -23.653  18.347  0.00  0.00    +0.066 C 
ENDBRANCH  19  20
ENDBRANCH  18  19
ENDBRANCH  14  15
ENDBRANCH  12  13
TORSDOF 6
ENDMDL
