MODEL 1
REMARK VINA RESULT:      -9.4      0.000      0.000
REMARK  Name = C:\Users\Docking\Desktop\test protocol\1iep_ligandH.pdb
REMARK  8 active torsions:
REMARK  status: ('A' for Active; 'I' for Inactive)
REMARK    1  A    between atoms: _5  and  _11
REMARK    2  A    between atoms: _19  and  _21
REMARK    3  A    between atoms: _22  and  _66
REMARK    4  A    between atoms: _27  and  _30
REMARK    5  A    between atoms: _32  and  _33
REMARK    6  A    between atoms: _38  and  _43
REMARK    7  A    between atoms: _43  and  _46
REMARK    8  A    between atoms: _53  and  _55
REMARK                            x       y       z     vdW  Elec       q    Type
REMARK                         _______ _______ _______ _____ _____    ______ ____
ROOT
ATOM     10  C   UNL     1     102.683  27.229  12.890  0.00  0.00    +0.038 A 
ATOM     11  C   UNL     1     102.137  28.536  12.947  0.00  0.00    +0.047 A 
ATOM     12  C   UNL     1     100.699  28.752  12.957  0.00  0.00    +0.035 A 
ATOM     32  C   UNL     1      99.845  27.611  12.910  0.00  0.00    +0.024 A 
ATOM     33  C   UNL     1     100.383  26.275  12.850  0.00  0.00    +0.007 A 
ATOM     34  C   UNL     1     101.801  26.057  12.838  0.00  0.00    -0.029 A 
ATOM     35  C   UNL     1     102.322  24.602  12.767  0.00  0.00    +0.045 C 
ENDROOT
BRANCH  10   9
ATOM      4  C   UNL     1     106.992  27.802  10.854  0.00  0.00    +0.077 A 
ATOM      5  C   UNL     1     106.426  28.426   9.693  0.00  0.00    +0.048 A 
ATOM      6  C   UNL     1     105.021  28.574   9.656  0.00  0.00    +0.116 A 
ATOM      7  N   UNL     1     104.250  28.128  10.707  0.00  0.00    -0.223 NA
ATOM      8  C   UNL     1     104.828  27.529  11.812  0.00  0.00    +0.220 A 
ATOM      9  N   UNL     1     104.072  27.080  12.884  0.00  0.00    -0.283 N 
ATOM     36  H   UNL     1     104.535  26.637  13.677  0.00  0.00    +0.155 HD
ATOM     37  N   UNL     1     106.167  27.375  11.871  0.00  0.00    -0.214 NA
BRANCH   4   3
ATOM      1  C   UNL     1     110.789  27.161  10.167  0.00  0.00    +0.020 A 
ATOM      2  C   UNL     1     109.380  27.374   9.931  0.00  0.00    +0.013 A 
ATOM      3  C   UNL     1     108.460  27.577  11.043  0.00  0.00    +0.019 A 
ATOM     38  C   UNL     1     109.003  27.561  12.393  0.00  0.00    +0.120 A 
ATOM     39  N   UNL     1     110.365  27.352  12.590  0.00  0.00    -0.263 NA
ATOM     40  C   UNL     1     111.259  27.154  11.528  0.00  0.00    +0.111 A 
ENDBRANCH   4   3
ENDBRANCH  10   9
BRANCH  12  13
ATOM     13  N   UNL     1     100.087  30.056  13.005  0.00  0.00    -0.281 N 
ATOM     14  C   UNL     1      99.242  30.636  12.073  0.00  0.00    +0.248 C 
ATOM     30  O   UNL     1      99.053  30.201  10.947  0.00  0.00    -0.270 OA
ATOM     31  H   UNL     1     100.303  30.621  13.827  0.00  0.00    +0.155 HD
BRANCH  14  15
ATOM     15  C   UNL     1      98.512  31.888  12.440  0.00  0.00    +0.037 A 
ATOM     16  C   UNL     1      98.253  32.935  11.449  0.00  0.00    +0.013 A 
ATOM     17  C   UNL     1      97.562  34.140  11.833  0.00  0.00    +0.005 A 
ATOM     18  C   UNL     1      97.123  34.303  13.217  0.00  0.00    -0.033 A 
ATOM     28  C   UNL     1      97.388  33.246  14.179  0.00  0.00    +0.005 A 
ATOM     29  C   UNL     1      98.066  32.064  13.806  0.00  0.00    +0.013 A 
BRANCH  18  19
ATOM     19  C   UNL     1      96.397  35.565  13.721  0.00  0.00    +0.119 C 
BRANCH  19  20
ATOM     20  N   UNL     1      97.220  36.590  14.428  0.00  0.00    -0.302 NA
ATOM     21  C   UNL     1      98.547  36.857  13.711  0.00  0.00    +0.066 C 
ATOM     22  C   UNL     1      99.385  37.949  14.452  0.00  0.00    -0.064 C 
ATOM     23  N   UNL     1      99.630  37.507  15.896  0.00  0.00    +0.379 N 
ATOM     24  C   UNL     1     100.467  38.504  16.579  0.00  0.00    -0.096 C 
ATOM     25  H   UNL     1     100.201  36.550  15.865  0.00  0.00    -0.082 HD
ATOM     26  C   UNL     1      98.316  37.237  16.616  0.00  0.00    -0.064 C 
ATOM     27  C   UNL     1      97.477  36.172  15.855  0.00  0.00    +0.066 C 
ENDBRANCH  19  20
ENDBRANCH  18  19
ENDBRANCH  14  15
ENDBRANCH  12  13
TORSDOF 6
ENDMDL
MODEL 2
REMARK VINA RESULT:      -9.0      2.761      4.200
REMARK  Name = C:\Users\Docking\Desktop\test protocol\1iep_ligandH.pdb
REMARK  8 active torsions:
REMARK  status: ('A' for Active; 'I' for Inactive)
REMARK    1  A    between atoms: _5  and  _11
REMARK    2  A    between atoms: _19  and  _21
REMARK    3  A    between atoms: _22  and  _66
REMARK    4  A    between atoms: _27  and  _30
REMARK    5  A    between atoms: _32  and  _33
REMARK    6  A    between atoms: _38  and  _43
REMARK    7  A    between atoms: _43  and  _46
REMARK    8  A    between atoms: _53  and  _55
REMARK                            x       y       z     vdW  Elec       q    Type
REMARK                         _______ _______ _______ _____ _____    ______ ____
ROOT
ATOM     10  C   UNL     1     102.776  26.476  13.021  0.00  0.00    +0.038 A 
ATOM     11  C   UNL     1     102.026  27.679  13.050  0.00  0.00    +0.047 A 
ATOM     12  C   UNL     1     100.572  27.660  13.087  0.00  0.00    +0.035 A 
ATOM     32  C   UNL     1      99.914  26.396  13.096  0.00  0.00    +0.024 A 
ATOM     33  C   UNL     1     100.660  25.162  13.066  0.00  0.00    +0.007 A 
ATOM     34  C   UNL     1     102.095  25.176  13.027  0.00  0.00    -0.029 A 
ATOM     35  C   UNL     1     102.843  23.823  12.989  0.00  0.00    +0.045 C 
ENDROOT
BRANCH  10   9
ATOM      4  C   UNL     1     106.891  27.777  10.921  0.00  0.00    +0.077 A 
ATOM      5  C   UNL     1     106.207  28.326   9.785  0.00  0.00    +0.048 A 
ATOM      6  C   UNL     1     104.796  28.246   9.777  0.00  0.00    +0.116 A 
ATOM      7  N   UNL     1     104.130  27.660  10.831  0.00  0.00    -0.223 NA
ATOM      8  C   UNL     1     104.820  27.140  11.910  0.00  0.00    +0.220 A 
ATOM      9  N   UNL     1     104.170  26.553  12.985  0.00  0.00    -0.283 N 
ATOM     36  H   UNL     1     104.716  26.175  13.759  0.00  0.00    +0.155 HD
ATOM     37  N   UNL     1     106.168  27.202  11.941  0.00  0.00    -0.214 NA
BRANCH   4   3
ATOM      1  C   UNL     1     110.481  27.840  12.472  0.00  0.00    +0.020 A 
ATOM      2  C   UNL     1     109.040  27.831  12.376  0.00  0.00    +0.013 A 
ATOM      3  C   UNL     1     108.380  27.789  11.077  0.00  0.00    +0.019 A 
ATOM     38  C   UNL     1     109.214  27.754   9.885  0.00  0.00    +0.120 A 
ATOM     39  N   UNL     1     110.600  27.765  10.009  0.00  0.00    -0.263 NA
ATOM     40  C   UNL     1     111.246  27.808  11.253  0.00  0.00    +0.111 A 
ENDBRANCH   4   3
ENDBRANCH  10   9
BRANCH  12  13
ATOM     13  N   UNL     1      99.758  28.849  13.109  0.00  0.00    -0.281 N 
ATOM     14  C   UNL     1      99.516  29.735  12.072  0.00  0.00    +0.248 C 
ATOM     30  O   UNL     1     100.138  29.755  11.021  0.00  0.00    -0.270 OA
ATOM     31  H   UNL     1      99.305  29.065  13.998  0.00  0.00    +0.155 HD
BRANCH  14  15
ATOM     15  C   UNL     1      98.436  30.756  12.232  0.00  0.00    +0.037 A 
ATOM     16  C   UNL     1      98.405  31.655  13.389  0.00  0.00    +0.013 A 
ATOM     17  C   UNL     1      97.342  32.619  13.527  0.00  0.00    +0.005 A 
ATOM     18  C   UNL     1      96.302  32.690  12.504  0.00  0.00    -0.033 A 
ATOM     28  C   UNL     1      96.360  31.790  11.364  0.00  0.00    +0.005 A 
ATOM     29  C   UNL     1      97.399  30.843  11.225  0.00  0.00    +0.013 A 
BRANCH  18  19
ATOM     19  C   UNL     1      95.119  33.673  12.580  0.00  0.00    +0.119 C 
BRANCH  19  20
ATOM     20  N   UNL     1      93.819  33.141  13.089  0.00  0.00    -0.302 NA
ATOM     21  C   UNL     1      94.019  32.026  14.118  0.00  0.00    +0.066 C 
ATOM     22  C   UNL     1      92.649  31.496  14.656  0.00  0.00    -0.064 C 
ATOM     23  N   UNL     1      91.799  31.005  13.483  0.00  0.00    +0.379 N 
ATOM     24  C   UNL     1      90.535  30.453  13.990  0.00  0.00    -0.096 C 
ATOM     25  H   UNL     1      92.355  30.176  12.986  0.00  0.00    -0.082 HD
ATOM     26  C   UNL     1      91.598  32.108  12.453  0.00  0.00    -0.064 C 
ATOM     27  C   UNL     1      92.966  32.647  11.947  0.00  0.00    +0.066 C 
ENDBRANCH  19  20
ENDBRANCH  18  19
ENDBRANCH  14  15
ENDBRANCH  12  13
TORSDOF 6
ENDMDL
MODEL 3
REMARK VINA RESULT:      -8.9     19.537     22.021
REMARK  Name = C:\Users\Docking\Desktop\test protocol\1iep_ligandH.pdb
REMARK  8 active torsions:
REMARK  status: ('A' for Active; 'I' for Inactive)
REMARK    1  A    between atoms: _5  and  _11
REMARK    2  A    between atoms: _19  and  _21
REMARK    3  A    between atoms: _22  and  _66
REMARK    4  A    between atoms: _27  and  _30
REMARK    5  A    between atoms: _32  and  _33
REMARK    6  A    between atoms: _38  and  _43
REMARK    7  A    between atoms: _43  and  _46
REMARK    8  A    between atoms: _53  and  _55
REMARK                            x       y       z     vdW  Elec       q    Type
REMARK                         _______ _______ _______ _____ _____    ______ ____
ROOT
ATOM     10  C   UNL     1     116.255  22.891  -2.163  0.00  0.00    +0.038 A 
ATOM     11  C   UNL     1     114.853  22.686  -2.219  0.00  0.00    +0.047 A 
ATOM     12  C   UNL     1     114.071  23.138  -3.359  0.00  0.00    +0.035 A 
ATOM     32  C   UNL     1     114.751  23.793  -4.427  0.00  0.00    +0.024 A 
ATOM     33  C   UNL     1     116.176  24.010  -4.387  0.00  0.00    +0.007 A 
ATOM     34  C   UNL     1     116.952  23.569  -3.263  0.00  0.00    -0.029 A 
ATOM     35  C   UNL     1     118.475  23.834  -3.270  0.00  0.00    +0.045 C 
ENDROOT
BRANCH  10   9
ATOM      4  C   UNL     1     119.116  19.731   0.043  0.00  0.00    +0.077 A 
ATOM      5  C   UNL     1     119.199  18.901  -1.124  0.00  0.00    +0.048 A 
ATOM      6  C   UNL     1     118.485  19.320  -2.270  0.00  0.00    +0.116 A 
ATOM      7  N   UNL     1     117.747  20.483  -2.238  0.00  0.00    -0.223 NA
ATOM      8  C   UNL     1     117.687  21.259  -1.095  0.00  0.00    +0.220 A 
ATOM      9  N   UNL     1     116.957  22.436  -1.044  0.00  0.00    -0.283 N 
ATOM     36  H   UNL     1     116.931  22.976  -0.180  0.00  0.00    +0.155 HD
ATOM     37  N   UNL     1     118.358  20.880   0.012  0.00  0.00    -0.214 NA
BRANCH   4   3
ATOM      1  C   UNL     1     121.235  20.073   3.314  0.00  0.00    +0.020 A 
ATOM      2  C   UNL     1     120.577  20.421   2.075  0.00  0.00    +0.013 A 
ATOM      3  C   UNL     1     119.817  19.425   1.330  0.00  0.00    +0.019 A 
ATOM     38  C   UNL     1     119.742  18.075   1.870  0.00  0.00    +0.120 A 
ATOM     39  N   UNL     1     120.387  17.769   3.064  0.00  0.00    -0.263 NA
ATOM     40  C   UNL     1     121.122  18.719   3.789  0.00  0.00    +0.111 A 
ENDBRANCH   4   3
ENDBRANCH  10   9
BRANCH  12  13
ATOM     13  N   UNL     1     112.644  22.965  -3.467  0.00  0.00    -0.281 N 
ATOM     14  C   UNL     1     111.925  21.782  -3.442  0.00  0.00    +0.248 C 
ATOM     30  O   UNL     1     112.421  20.669  -3.536  0.00  0.00    -0.270 OA
ATOM     31  H   UNL     1     112.097  23.820  -3.576  0.00  0.00    +0.155 HD
BRANCH  14  15
ATOM     15  C   UNL     1     110.437  21.843  -3.306  0.00  0.00    +0.037 A 
ATOM     16  C   UNL     1     109.694  20.789  -2.611  0.00  0.00    +0.013 A 
ATOM     17  C   UNL     1     108.258  20.864  -2.509  0.00  0.00    +0.005 A 
ATOM     18  C   UNL     1     107.556  22.000  -3.103  0.00  0.00    -0.033 A 
ATOM     28  C   UNL     1     108.319  23.034  -3.782  0.00  0.00    +0.005 A 
ATOM     29  C   UNL     1     109.727  22.963  -3.885  0.00  0.00    +0.013 A 
BRANCH  18  19
ATOM     19  C   UNL     1     106.024  22.151  -3.061  0.00  0.00    +0.119 C 
BRANCH  19  20
ATOM     20  N   UNL     1     105.263  21.741  -4.278  0.00  0.00    -0.302 NA
ATOM     21  C   UNL     1     106.051  20.754  -5.144  0.00  0.00    +0.066 C 
ATOM     22  C   UNL     1     105.231  20.318  -6.401  0.00  0.00    -0.064 C 
ATOM     23  N   UNL     1     104.844  21.558  -7.210  0.00  0.00    +0.379 N 
ATOM     24  C   UNL     1     104.123  21.148  -8.423  0.00  0.00    -0.096 C 
ATOM     25  H   UNL     1     105.787  22.060  -7.530  0.00  0.00    -0.082 HD
ATOM     26  C   UNL     1     104.062  22.546  -6.356  0.00  0.00    -0.064 C 
ATOM     27  C   UNL     1     104.874  22.950  -5.094  0.00  0.00    +0.066 C 
ENDBRANCH  19  20
ENDBRANCH  18  19
ENDBRANCH  14  15
ENDBRANCH  12  13
TORSDOF 6
ENDMDL
MODEL 4
REMARK VINA RESULT:      -8.8      3.052      4.370
REMARK  Name = C:\Users\Docking\Desktop\test protocol\1iep_ligandH.pdb
REMARK  8 active torsions:
REMARK  status: ('A' for Active; 'I' for Inactive)
REMARK    1  A    between atoms: _5  and  _11
REMARK    2  A    between atoms: _19  and  _21
REMARK    3  A    between atoms: _22  and  _66
REMARK    4  A    between atoms: _27  and  _30
REMARK    5  A    between atoms: _32  and  _33
REMARK    6  A    between atoms: _38  and  _43
REMARK    7  A    between atoms: _43  and  _46
REMARK    8  A    between atoms: _53  and  _55
REMARK                            x       y       z     vdW  Elec       q    Type
REMARK                         _______ _______ _______ _____ _____    ______ ____
ROOT
ATOM     10  C   UNL     1     103.611  26.658  12.930  0.00  0.00    +0.038 A 
ATOM     11  C   UNL     1     102.747  27.781  12.890  0.00  0.00    +0.047 A 
ATOM     12  C   UNL     1     101.312  27.634  13.075  0.00  0.00    +0.035 A 
ATOM     32  C   UNL     1     100.791  26.327  13.302  0.00  0.00    +0.024 A 
ATOM     33  C   UNL     1     101.655  25.173  13.344  0.00  0.00    +0.007 A 
ATOM     34  C   UNL     1     103.071  25.312  13.160  0.00  0.00    -0.029 A 
ATOM     35  C   UNL     1     103.948  24.040  13.209  0.00  0.00    +0.045 C 
ENDROOT
BRANCH  10   9
ATOM      4  C   UNL     1     107.348  28.295  10.401  0.00  0.00    +0.077 A 
ATOM      5  C   UNL     1     106.501  28.769   9.345  0.00  0.00    +0.048 A 
ATOM      6  C   UNL     1     105.110  28.566   9.488  0.00  0.00    +0.116 A 
ATOM      7  N   UNL     1     104.614  27.934  10.608  0.00  0.00    -0.223 NA
ATOM      8  C   UNL     1     105.459  27.487  11.607  0.00  0.00    +0.220 A 
ATOM      9  N   UNL     1     104.981  26.857  12.746  0.00  0.00    -0.283 N 
ATOM     36  H   UNL     1     105.638  26.535  13.457  0.00  0.00    +0.155 HD
ATOM     37  N   UNL     1     106.791  27.668  11.494  0.00  0.00    -0.214 NA
BRANCH   4   3
ATOM      1  C   UNL     1     111.176  27.492  10.320  0.00  0.00    +0.020 A 
ATOM      2  C   UNL     1     109.744  27.299  10.321  0.00  0.00    +0.013 A 
ATOM      3  C   UNL     1     108.839  28.438  10.398  0.00  0.00    +0.019 A 
ATOM     38  C   UNL     1     109.419  29.770  10.473  0.00  0.00    +0.120 A 
ATOM     39  N   UNL     1     110.801  29.926  10.472  0.00  0.00    -0.263 NA
ATOM     40  C   UNL     1     111.683  28.836  10.400  0.00  0.00    +0.111 A 
ENDBRANCH   4   3
ENDBRANCH  10   9
BRANCH  12  13
ATOM     13  N   UNL     1     100.384  28.737  13.037  0.00  0.00    -0.281 N 
ATOM     14  C   UNL     1      99.990  29.480  11.937  0.00  0.00    +0.248 C 
ATOM     30  O   UNL     1     100.540  29.446  10.846  0.00  0.00    -0.270 OA
ATOM     31  H   UNL     1      99.968  29.003  13.930  0.00  0.00    +0.155 HD
BRANCH  14  15
ATOM     15  C   UNL     1      98.824  30.406  12.071  0.00  0.00    +0.037 A 
ATOM     16  C   UNL     1      98.728  31.351  13.187  0.00  0.00    +0.013 A 
ATOM     17  C   UNL     1      97.585  32.221  13.302  0.00  0.00    +0.005 A 
ATOM     18  C   UNL     1      96.528  32.151  12.297  0.00  0.00    -0.033 A 
ATOM     28  C   UNL     1      96.650  31.208  11.197  0.00  0.00    +0.005 A 
ATOM     29  C   UNL     1      97.769  30.353  11.081  0.00  0.00    +0.013 A 
BRANCH  18  19
ATOM     19  C   UNL     1      95.262  33.027  12.352  0.00  0.00    +0.119 C 
BRANCH  19  20
ATOM     20  N   UNL     1      94.237  32.815  11.286  0.00  0.00    -0.302 NA
ATOM     21  C   UNL     1      94.231  33.954  10.262  0.00  0.00    +0.066 C 
ATOM     22  C   UNL     1      93.169  33.706   9.141  0.00  0.00    -0.064 C 
ATOM     23  N   UNL     1      91.788  33.543   9.779  0.00  0.00    +0.379 N 
ATOM     24  C   UNL     1      90.779  33.367   8.724  0.00  0.00    -0.096 C 
ATOM     25  H   UNL     1      91.552  34.488  10.319  0.00  0.00    -0.082 HD
ATOM     26  C   UNL     1      91.786  32.414  10.800  0.00  0.00    -0.064 C 
ATOM     27  C   UNL     1      92.865  32.656  11.893  0.00  0.00    +0.066 C 
ENDBRANCH  19  20
ENDBRANCH  18  19
ENDBRANCH  14  15
ENDBRANCH  12  13
TORSDOF 6
ENDMDL
MODEL 5
REMARK VINA RESULT:      -8.3     20.808     24.619
REMARK  Name = C:\Users\Docking\Desktop\test protocol\1iep_ligandH.pdb
REMARK  8 active torsions:
REMARK  status: ('A' for Active; 'I' for Inactive)
REMARK    1  A    between atoms: _5  and  _11
REMARK    2  A    between atoms: _19  and  _21
REMARK    3  A    between atoms: _22  and  _66
REMARK    4  A    between atoms: _27  and  _30
REMARK    5  A    between atoms: _32  and  _33
REMARK    6  A    between atoms: _38  and  _43
REMARK    7  A    between atoms: _43  and  _46
REMARK    8  A    between atoms: _53  and  _55
REMARK                            x       y       z     vdW  Elec       q    Type
REMARK                         _______ _______ _______ _____ _____    ______ ____
ROOT
ATOM     10  C   UNL     1     118.592  41.834  25.526  0.00  0.00    +0.038 A 
ATOM     11  C   UNL     1     118.187  40.475  25.480  0.00  0.00    +0.047 A 
ATOM     12  C   UNL     1     118.495  39.561  26.570  0.00  0.00    +0.035 A 
ATOM     32  C   UNL     1     119.213  40.066  27.692  0.00  0.00    +0.024 A 
ATOM     33  C   UNL     1     119.633  41.444  27.755  0.00  0.00    +0.007 A 
ATOM     34  C   UNL     1     119.335  42.350  26.682  0.00  0.00    -0.029 A 
ATOM     35  C   UNL     1     119.815  43.815  26.799  0.00  0.00    +0.045 C 
ENDROOT
BRANCH  10   9
ATOM      4  C   UNL     1     115.654  44.884  23.267  0.00  0.00    +0.077 A 
ATOM      5  C   UNL     1     114.664  44.790  24.302  0.00  0.00    +0.048 A 
ATOM      6  C   UNL     1     114.947  43.940  25.394  0.00  0.00    +0.116 A 
ATOM      7  N   UNL     1     116.134  43.241  25.439  0.00  0.00    -0.223 NA
ATOM      8  C   UNL     1     117.066  43.354  24.424  0.00  0.00    +0.220 A 
ATOM      9  N   UNL     1     118.270  42.666  24.452  0.00  0.00    -0.283 N 
ATOM     36  H   UNL     1     118.928  42.770  23.680  0.00  0.00    +0.155 HD
ATOM     37  N   UNL     1     116.819  44.158  23.369  0.00  0.00    -0.214 NA
BRANCH   4   3
ATOM      1  C   UNL     1     115.772  46.191  19.582  0.00  0.00    +0.020 A 
ATOM      2  C   UNL     1     115.942  45.324  20.725  0.00  0.00    +0.013 A 
ATOM      3  C   UNL     1     115.502  45.743  22.050  0.00  0.00    +0.019 A 
ATOM     38  C   UNL     1     114.889  47.055  22.185  0.00  0.00    +0.120 A 
ATOM     39  N   UNL     1     114.740  47.869  21.067  0.00  0.00    -0.263 NA
ATOM     40  C   UNL     1     115.161  47.478  19.787  0.00  0.00    +0.111 A 
ENDBRANCH   4   3
ENDBRANCH  10   9
BRANCH  12  13
ATOM     13  N   UNL     1     118.117  38.170  26.575  0.00  0.00    -0.281 N 
ATOM     14  C   UNL     1     118.242  37.249  25.548  0.00  0.00    +0.248 C 
ATOM     30  O   UNL     1     118.502  37.538  24.389  0.00  0.00    -0.270 OA
ATOM     31  H   UNL     1     117.709  37.821  27.443  0.00  0.00    +0.155 HD
BRANCH  14  15
ATOM     15  C   UNL     1     118.033  35.800  25.847  0.00  0.00    +0.037 A 
ATOM     16  C   UNL     1     117.813  34.826  24.775  0.00  0.00    +0.013 A 
ATOM     17  C   UNL     1     117.597  33.437  25.092  0.00  0.00    +0.005 A 
ATOM     18  C   UNL     1     117.601  33.013  26.490  0.00  0.00    -0.033 A 
ATOM     28  C   UNL     1     117.827  33.999  27.534  0.00  0.00    +0.005 A 
ATOM     29  C   UNL     1     118.038  35.362  27.227  0.00  0.00    +0.013 A 
BRANCH  18  19
ATOM     19  C   UNL     1     117.359  31.555  26.922  0.00  0.00    +0.119 C 
BRANCH  19  20
ATOM     20  N   UNL     1     117.997  31.103  28.195  0.00  0.00    -0.302 NA
ATOM     21  C   UNL     1     119.515  30.956  28.055  0.00  0.00    +0.066 C 
ATOM     22  C   UNL     1     120.169  30.505  29.401  0.00  0.00    -0.064 C 
ATOM     23  N   UNL     1     119.537  29.188  29.857  0.00  0.00    +0.379 N 
ATOM     24  C   UNL     1     120.190  28.732  31.092  0.00  0.00    -0.096 C 
ATOM     25  H   UNL     1     119.736  28.427  29.067  0.00  0.00    -0.082 HD
ATOM     26  C   UNL     1     118.027  29.325  29.995  0.00  0.00    -0.064 C 
ATOM     27  C   UNL     1     117.390  29.802  28.660  0.00  0.00    +0.066 C 
ENDBRANCH  19  20
ENDBRANCH  18  19
ENDBRANCH  14  15
ENDBRANCH  12  13
TORSDOF 6
ENDMDL
