MODEL 1
REMARK VINA RESULT:     -10.0      0.000      0.000
REMARK  Name = C:\Users\Docking\Desktop\test protocol\1iep_ligandH.pdb
REMARK  8 active torsions:
REMARK  status: ('A' for Active; 'I' for Inactive)
REMARK    1  A    between atoms: _5  and  _11
REMARK    2  A    between atoms: _19  and  _21
REMARK    3  A    between atoms: _22  and  _66
REMARK    4  A    between atoms: _27  and  _30
REMARK    5  A    between atoms: _32  and  _33
REMARK    6  A    between atoms: _38  and  _43
REMARK    7  A    between atoms: _43  and  _46
REMARK    8  A    between atoms: _53  and  _55
REMARK                            x       y       z     vdW  Elec       q    Type
REMARK                         _______ _______ _______ _____ _____    ______ ____
ROOT
ATOM     10  C   UNL     1      12.839  71.077  10.079  0.00  0.00    +0.038 A 
ATOM     11  C   UNL     1      13.417  69.786  10.177  0.00  0.00    +0.047 A 
ATOM     12  C   UNL     1      12.632  68.589   9.917  0.00  0.00    +0.035 A 
ATOM     32  C   UNL     1      11.261  68.744   9.558  0.00  0.00    +0.024 A 
ATOM     33  C   UNL     1      10.658  70.050   9.455  0.00  0.00    +0.007 A 
ATOM     34  C   UNL     1      11.427  71.234   9.712  0.00  0.00    -0.029 A 
ATOM     35  C   UNL     1      10.726  72.607   9.593  0.00  0.00    +0.045 C 
ENDROOT
BRANCH  10   9
ATOM      4  C   UNL     1      16.858  73.633   9.487  0.00  0.00    +0.077 A 
ATOM      5  C   UNL     1      17.423  72.652   8.607  0.00  0.00    +0.048 A 
ATOM      6  C   UNL     1      16.650  71.500   8.337  0.00  0.00    +0.116 A 
ATOM      7  N   UNL     1      15.406  71.352   8.911  0.00  0.00    -0.223 NA
ATOM      8  C   UNL     1      14.892  72.317   9.757  0.00  0.00    +0.220 A 
ATOM      9  N   UNL     1      13.639  72.192  10.339  0.00  0.00    -0.283 N 
ATOM     36  H   UNL     1      13.299  72.923  10.964  0.00  0.00    +0.155 HD
ATOM     37  N   UNL     1      15.611  73.425  10.032  0.00  0.00    -0.214 NA
BRANCH   4   3
ATOM      1  C   UNL     1      18.958  76.308  11.421  0.00  0.00    +0.020 A 
ATOM      2  C   UNL     1      18.307  75.058  11.103  0.00  0.00    +0.013 A 
ATOM      3  C   UNL     1      17.552  74.905   9.866  0.00  0.00    +0.019 A 
ATOM     38  C   UNL     1      17.475  76.045   8.965  0.00  0.00    +0.120 A 
ATOM     39  N   UNL     1      18.111  77.237   9.298  0.00  0.00    -0.263 NA
ATOM     40  C   UNL     1      18.839  77.396  10.487  0.00  0.00    +0.111 A 
ENDBRANCH   4   3
ENDBRANCH  10   9
BRANCH  12  13
ATOM     13  N   UNL     1      13.162  67.251  10.009  0.00  0.00    -0.281 N 
ATOM     14  C   UNL     1      14.141  66.667   9.222  0.00  0.00    +0.248 C 
ATOM     30  O   UNL     1      14.561  67.141   8.176  0.00  0.00    -0.270 OA
ATOM     31  H   UNL     1      12.767  66.663  10.743  0.00  0.00    +0.155 HD
BRANCH  14  15
ATOM     15  C   UNL     1      14.728  65.361   9.650  0.00  0.00    +0.037 A 
ATOM     16  C   UNL     1      13.916  64.143   9.703  0.00  0.00    +0.013 A 
ATOM     17  C   UNL     1      14.503  62.900  10.136  0.00  0.00    +0.005 A 
ATOM     18  C   UNL     1      15.913  62.869  10.519  0.00  0.00    -0.033 A 
ATOM     28  C   UNL     1      16.697  64.091  10.453  0.00  0.00    +0.005 A 
ATOM     29  C   UNL     1      16.124  65.311  10.029  0.00  0.00    +0.013 A 
BRANCH  18  19
ATOM     19  C   UNL     1      16.617  61.592  11.014  0.00  0.00    +0.119 C 
BRANCH  19  20
ATOM     20  N   UNL     1      16.701  61.386  12.491  0.00  0.00    -0.302 NA
ATOM     21  C   UNL     1      16.125  62.571  13.270  0.00  0.00    +0.066 C 
ATOM     22  C   UNL     1      16.201  62.329  14.813  0.00  0.00    -0.064 C 
ATOM     23  N   UNL     1      17.654  62.072  15.215  0.00  0.00    +0.379 N 
ATOM     24  C   UNL     1      17.736  61.901  16.673  0.00  0.00    -0.096 C 
ATOM     25  H   UNL     1      18.244  62.979  14.946  0.00  0.00    -0.082 HD
ATOM     26  C   UNL     1      18.236  60.896  14.443  0.00  0.00    -0.064 C 
ATOM     27  C   UNL     1      18.129  61.134  12.910  0.00  0.00    +0.066 C 
ENDBRANCH  19  20
ENDBRANCH  18  19
ENDBRANCH  14  15
ENDBRANCH  12  13
TORSDOF 6
ENDMDL
MODEL 2
REMARK VINA RESULT:      -9.6      3.838     11.056
REMARK  Name = C:\Users\Docking\Desktop\test protocol\1iep_ligandH.pdb
REMARK  8 active torsions:
REMARK  status: ('A' for Active; 'I' for Inactive)
REMARK    1  A    between atoms: _5  and  _11
REMARK    2  A    between atoms: _19  and  _21
REMARK    3  A    between atoms: _22  and  _66
REMARK    4  A    between atoms: _27  and  _30
REMARK    5  A    between atoms: _32  and  _33
REMARK    6  A    between atoms: _38  and  _43
REMARK    7  A    between atoms: _43  and  _46
REMARK    8  A    between atoms: _53  and  _55
REMARK                            x       y       z     vdW  Elec       q    Type
REMARK                         _______ _______ _______ _____ _____    ______ ____
ROOT
ATOM     10  C   UNL     1      17.801  69.841   7.482  0.00  0.00    +0.038 A 
ATOM     11  C   UNL     1      17.698  70.824   8.499  0.00  0.00    +0.047 A 
ATOM     12  C   UNL     1      17.776  72.242   8.185  0.00  0.00    +0.035 A 
ATOM     32  C   UNL     1      17.957  72.624   6.824  0.00  0.00    +0.024 A 
ATOM     33  C   UNL     1      18.065  71.639   5.778  0.00  0.00    +0.007 A 
ATOM     34  C   UNL     1      17.991  70.238   6.081  0.00  0.00    -0.029 A 
ATOM     35  C   UNL     1      18.119  69.225   4.920  0.00  0.00    +0.045 C 
ENDROOT
BRANCH  10   9
ATOM      4  C   UNL     1      15.435  66.079   9.294  0.00  0.00    +0.077 A 
ATOM      5  C   UNL     1      14.273  66.871   9.577  0.00  0.00    +0.048 A 
ATOM      6  C   UNL     1      14.327  68.244   9.247  0.00  0.00    +0.116 A 
ATOM      7  N   UNL     1      15.464  68.774   8.677  0.00  0.00    -0.223 NA
ATOM      8  C   UNL     1      16.568  67.983   8.419  0.00  0.00    +0.220 A 
ATOM      9  N   UNL     1      17.719  68.493   7.839  0.00  0.00    -0.283 N 
ATOM     36  H   UNL     1      18.515  67.878   7.672  0.00  0.00    +0.155 HD
ATOM     37  N   UNL     1      16.542  66.669   8.726  0.00  0.00    -0.214 NA
BRANCH   4   3
ATOM      1  C   UNL     1      14.506  62.352  10.034  0.00  0.00    +0.020 A 
ATOM      2  C   UNL     1      14.359  63.762   9.758  0.00  0.00    +0.013 A 
ATOM      3  C   UNL     1      15.530  64.612   9.581  0.00  0.00    +0.019 A 
ATOM     38  C   UNL     1      16.845  63.999   9.689  0.00  0.00    +0.120 A 
ATOM     39  N   UNL     1      16.956  62.638   9.957  0.00  0.00    -0.263 NA
ATOM     40  C   UNL     1      15.836  61.810  10.131  0.00  0.00    +0.111 A 
ENDBRANCH   4   3
ENDBRANCH  10   9
BRANCH  12  13
ATOM     13  N   UNL     1      17.686  73.285   9.177  0.00  0.00    -0.281 N 
ATOM     14  C   UNL     1      16.543  73.884   9.682  0.00  0.00    +0.248 C 
ATOM     30  O   UNL     1      15.427  73.760   9.200  0.00  0.00    -0.270 OA
ATOM     31  H   UNL     1      18.572  73.624   9.552  0.00  0.00    +0.155 HD
BRANCH  14  15
ATOM     15  C   UNL     1      16.659  74.757  10.890  0.00  0.00    +0.037 A 
ATOM     16  C   UNL     1      15.527  75.561  11.357  0.00  0.00    +0.013 A 
ATOM     17  C   UNL     1      15.671  76.408  12.515  0.00  0.00    +0.005 A 
ATOM     18  C   UNL     1      16.952  76.453  13.214  0.00  0.00    -0.033 A 
ATOM     28  C   UNL     1      18.057  75.641  12.732  0.00  0.00    +0.005 A 
ATOM     29  C   UNL     1      17.920  74.811  11.597  0.00  0.00    +0.013 A 
BRANCH  18  19
ATOM     19  C   UNL     1      17.202  77.344  14.446  0.00  0.00    +0.119 C 
BRANCH  19  20
ATOM     20  N   UNL     1      17.643  76.667  15.702  0.00  0.00    -0.302 NA
ATOM     21  C   UNL     1      16.588  75.688  16.226  0.00  0.00    +0.066 C 
ATOM     22  C   UNL     1      17.075  74.972  17.528  0.00  0.00    -0.064 C 
ATOM     23  N   UNL     1      17.414  76.021  18.588  0.00  0.00    +0.379 N 
ATOM     24  C   UNL     1      17.816  75.350  19.832  0.00  0.00    -0.096 C 
ATOM     25  H   UNL     1      16.485  76.599  18.800  0.00  0.00    -0.082 HD
ATOM     26  C   UNL     1      18.459  77.001  18.074  0.00  0.00    -0.064 C 
ATOM     27  C   UNL     1      17.978  77.685  16.764  0.00  0.00    +0.066 C 
ENDBRANCH  19  20
ENDBRANCH  18  19
ENDBRANCH  14  15
ENDBRANCH  12  13
TORSDOF 6
ENDMDL
MODEL 3
REMARK VINA RESULT:      -9.1      4.672     10.625
REMARK  Name = C:\Users\Docking\Desktop\test protocol\1iep_ligandH.pdb
REMARK  8 active torsions:
REMARK  status: ('A' for Active; 'I' for Inactive)
REMARK    1  A    between atoms: _5  and  _11
REMARK    2  A    between atoms: _19  and  _21
REMARK    3  A    between atoms: _22  and  _66
REMARK    4  A    between atoms: _27  and  _30
REMARK    5  A    between atoms: _32  and  _33
REMARK    6  A    between atoms: _38  and  _43
REMARK    7  A    between atoms: _43  and  _46
REMARK    8  A    between atoms: _53  and  _55
REMARK                            x       y       z     vdW  Elec       q    Type
REMARK                         _______ _______ _______ _____ _____    ______ ____
ROOT
ATOM     10  C   UNL     1      17.601  70.854   8.135  0.00  0.00    +0.038 A 
ATOM     11  C   UNL     1      17.067  71.565   9.240  0.00  0.00    +0.047 A 
ATOM     12  C   UNL     1      16.590  72.931   9.097  0.00  0.00    +0.035 A 
ATOM     32  C   UNL     1      16.670  73.543   7.812  0.00  0.00    +0.024 A 
ATOM     33  C   UNL     1      17.211  72.836   6.678  0.00  0.00    +0.007 A 
ATOM     34  C   UNL     1      17.685  71.488   6.814  0.00  0.00    -0.029 A 
ATOM     35  C   UNL     1      18.262  70.781   5.566  0.00  0.00    +0.045 C 
ENDROOT
BRANCH  10   9
ATOM      4  C   UNL     1      16.798  66.176   8.849  0.00  0.00    +0.077 A 
ATOM      5  C   UNL     1      15.376  66.362   8.861  0.00  0.00    +0.048 A 
ATOM      6  C   UNL     1      14.892  67.678   8.688  0.00  0.00    +0.116 A 
ATOM      7  N   UNL     1      15.773  68.722   8.515  0.00  0.00    -0.223 NA
ATOM      8  C   UNL     1      17.140  68.509   8.510  0.00  0.00    +0.220 A 
ATOM      9  N   UNL     1      18.045  69.544   8.330  0.00  0.00    -0.283 N 
ATOM     36  H   UNL     1      19.045  69.347   8.340  0.00  0.00    +0.155 HD
ATOM     37  N   UNL     1      17.627  67.262   8.675  0.00  0.00    -0.214 NA
BRANCH   4   3
ATOM      1  C   UNL     1      17.493  62.441   9.779  0.00  0.00    +0.020 A 
ATOM      2  C   UNL     1      16.806  63.705   9.643  0.00  0.00    +0.013 A 
ATOM      3  C   UNL     1      17.463  64.845   9.016  0.00  0.00    +0.019 A 
ATOM     38  C   UNL     1      18.825  64.671   8.534  0.00  0.00    +0.120 A 
ATOM     39  N   UNL     1      19.461  63.443   8.680  0.00  0.00    -0.263 NA
ATOM     40  C   UNL     1      18.840  62.339   9.283  0.00  0.00    +0.111 A 
ENDBRANCH   4   3
ENDBRANCH  10   9
BRANCH  12  13
ATOM     13  N   UNL     1      16.045  73.705  10.184  0.00  0.00    -0.281 N 
ATOM     14  C   UNL     1      14.889  73.461  10.907  0.00  0.00    +0.248 C 
ATOM     30  O   UNL     1      14.030  72.653  10.586  0.00  0.00    -0.270 OA
ATOM     31  H   UNL     1      16.576  74.534  10.454  0.00  0.00    +0.155 HD
BRANCH  14  15
ATOM     15  C   UNL     1      14.644  74.237  12.161  0.00  0.00    +0.037 A 
ATOM     16  C   UNL     1      15.480  75.386  12.520  0.00  0.00    +0.013 A 
ATOM     17  C   UNL     1      15.233  76.106  13.743  0.00  0.00    +0.005 A 
ATOM     18  C   UNL     1      14.143  75.681  14.618  0.00  0.00    -0.033 A 
ATOM     28  C   UNL     1      13.326  74.541  14.235  0.00  0.00    +0.005 A 
ATOM     29  C   UNL     1      13.565  73.832  13.037  0.00  0.00    +0.013 A 
BRANCH  18  19
ATOM     19  C   UNL     1      13.821  76.378  15.953  0.00  0.00    +0.119 C 
BRANCH  19  20
ATOM     20  N   UNL     1      14.316  75.725  17.202  0.00  0.00    -0.302 NA
ATOM     21  C   UNL     1      14.598  76.744  18.309  0.00  0.00    +0.066 C 
ATOM     22  C   UNL     1      15.094  76.043  19.616  0.00  0.00    -0.064 C 
ATOM     23  N   UNL     1      16.345  75.220  19.306  0.00  0.00    +0.379 N 
ATOM     24  C   UNL     1      16.847  74.605  20.543  0.00  0.00    -0.096 C 
ATOM     25  H   UNL     1      17.128  75.921  18.934  0.00  0.00    -0.082 HD
ATOM     26  C   UNL     1      16.074  74.205  18.203  0.00  0.00    -0.064 C 
ATOM     27  C   UNL     1      15.554  74.910  16.919  0.00  0.00    +0.066 C 
ENDBRANCH  19  20
ENDBRANCH  18  19
ENDBRANCH  14  15
ENDBRANCH  12  13
TORSDOF 6
ENDMDL
MODEL 4
REMARK VINA RESULT:      -8.8      4.581     10.750
REMARK  Name = C:\Users\Docking\Desktop\test protocol\1iep_ligandH.pdb
REMARK  8 active torsions:
REMARK  status: ('A' for Active; 'I' for Inactive)
REMARK    1  A    between atoms: _5  and  _11
REMARK    2  A    between atoms: _19  and  _21
REMARK    3  A    between atoms: _22  and  _66
REMARK    4  A    between atoms: _27  and  _30
REMARK    5  A    between atoms: _32  and  _33
REMARK    6  A    between atoms: _38  and  _43
REMARK    7  A    between atoms: _43  and  _46
REMARK    8  A    between atoms: _53  and  _55
REMARK                            x       y       z     vdW  Elec       q    Type
REMARK                         _______ _______ _______ _____ _____    ______ ____
ROOT
ATOM     10  C   UNL     1      17.447  70.033   8.218  0.00  0.00    +0.038 A 
ATOM     11  C   UNL     1      16.733  70.758   9.206  0.00  0.00    +0.047 A 
ATOM     12  C   UNL     1      16.340  72.141   8.987  0.00  0.00    +0.035 A 
ATOM     32  C   UNL     1      16.689  72.755   7.749  0.00  0.00    +0.024 A 
ATOM     33  C   UNL     1      17.416  72.033   6.734  0.00  0.00    +0.007 A 
ATOM     34  C   UNL     1      17.808  70.669   6.946  0.00  0.00    -0.029 A 
ATOM     35  C   UNL     1      18.592  69.946   5.825  0.00  0.00    +0.045 C 
ENDROOT
BRANCH  10   9
ATOM      4  C   UNL     1      16.328  65.486   9.273  0.00  0.00    +0.077 A 
ATOM      5  C   UNL     1      14.926  65.783   9.331  0.00  0.00    +0.048 A 
ATOM      6  C   UNL     1      14.534  67.119   9.090  0.00  0.00    +0.116 A 
ATOM      7  N   UNL     1      15.484  68.079   8.813  0.00  0.00    -0.223 NA
ATOM      8  C   UNL     1      16.828  67.759   8.766  0.00  0.00    +0.220 A 
ATOM      9  N   UNL     1      17.799  68.707   8.482  0.00  0.00    -0.283 N 
ATOM     36  H   UNL     1      18.781  68.433   8.464  0.00  0.00    +0.155 HD
ATOM     37  N   UNL     1      17.227  66.491   8.994  0.00  0.00    -0.214 NA
BRANCH   4   3
ATOM      1  C   UNL     1      16.754  61.753  10.362  0.00  0.00    +0.020 A 
ATOM      2  C   UNL     1      16.159  63.055  10.166  0.00  0.00    +0.013 A 
ATOM      3  C   UNL     1      16.898  64.120   9.501  0.00  0.00    +0.019 A 
ATOM     38  C   UNL     1      18.248  63.834   9.040  0.00  0.00    +0.120 A 
ATOM     39  N   UNL     1      18.796  62.571   9.243  0.00  0.00    -0.263 NA
ATOM     40  C   UNL     1      18.095  61.539   9.884  0.00  0.00    +0.111 A 
ENDBRANCH   4   3
ENDBRANCH  10   9
BRANCH  12  13
ATOM     13  N   UNL     1      15.621  72.930   9.956  0.00  0.00    -0.281 N 
ATOM     14  C   UNL     1      14.292  72.815  10.331  0.00  0.00    +0.248 C 
ATOM     30  O   UNL     1      13.460  72.151   9.732  0.00  0.00    -0.270 OA
ATOM     31  H   UNL     1      16.156  73.663  10.423  0.00  0.00    +0.155 HD
BRANCH  14  15
ATOM     15  C   UNL     1      13.816  73.556  11.539  0.00  0.00    +0.037 A 
ATOM     16  C   UNL     1      14.626  73.624  12.757  0.00  0.00    +0.013 A 
ATOM     17  C   UNL     1      14.136  74.331  13.914  0.00  0.00    +0.005 A 
ATOM     18  C   UNL     1      12.827  74.977  13.856  0.00  0.00    -0.033 A 
ATOM     28  C   UNL     1      12.046  74.899  12.632  0.00  0.00    +0.005 A 
ATOM     29  C   UNL     1      12.523  74.206  11.497  0.00  0.00    +0.013 A 
BRANCH  18  19
ATOM     19  C   UNL     1      12.215  75.735  15.049  0.00  0.00    +0.119 C 
BRANCH  19  20
ATOM     20  N   UNL     1      11.553  74.920  16.110  0.00  0.00    -0.302 NA
ATOM     21  C   UNL     1      10.179  75.479  16.491  0.00  0.00    +0.066 C 
ATOM     22  C   UNL     1       9.490  74.601  17.586  0.00  0.00    -0.064 C 
ATOM     23  N   UNL     1      10.400  74.516  18.813  0.00  0.00    +0.379 N 
ATOM     24  C   UNL     1       9.730  73.739  19.867  0.00  0.00    -0.096 C 
ATOM     25  H   UNL     1      10.546  75.552  19.198  0.00  0.00    -0.082 HD
ATOM     26  C   UNL     1      11.769  73.964  18.443  0.00  0.00    -0.064 C 
ATOM     27  C   UNL     1      12.431  74.826  17.333  0.00  0.00    +0.066 C 
ENDBRANCH  19  20
ENDBRANCH  18  19
ENDBRANCH  14  15
ENDBRANCH  12  13
TORSDOF 6
ENDMDL
MODEL 5
REMARK VINA RESULT:      -8.7      2.735     11.703
REMARK  Name = C:\Users\Docking\Desktop\test protocol\1iep_ligandH.pdb
REMARK  8 active torsions:
REMARK  status: ('A' for Active; 'I' for Inactive)
REMARK    1  A    between atoms: _5  and  _11
REMARK    2  A    between atoms: _19  and  _21
REMARK    3  A    between atoms: _22  and  _66
REMARK    4  A    between atoms: _27  and  _30
REMARK    5  A    between atoms: _32  and  _33
REMARK    6  A    between atoms: _38  and  _43
REMARK    7  A    between atoms: _43  and  _46
REMARK    8  A    between atoms: _53  and  _55
REMARK                            x       y       z     vdW  Elec       q    Type
REMARK                         _______ _______ _______ _____ _____    ______ ____
ROOT
ATOM     10  C   UNL     1      13.421  68.552  10.072  0.00  0.00    +0.038 A 
ATOM     11  C   UNL     1      14.122  69.784  10.013  0.00  0.00    +0.047 A 
ATOM     12  C   UNL     1      13.412  71.048   9.891  0.00  0.00    +0.035 A 
ATOM     32  C   UNL     1      11.988  71.021   9.833  0.00  0.00    +0.024 A 
ATOM     33  C   UNL     1      11.260  69.777   9.891  0.00  0.00    +0.007 A 
ATOM     34  C   UNL     1      11.955  68.527  10.009  0.00  0.00    -0.029 A 
ATOM     35  C   UNL     1      11.123  67.225  10.060  0.00  0.00    +0.045 C 
ENDROOT
BRANCH  10   9
ATOM      4  C   UNL     1      17.032  65.663   8.788  0.00  0.00    +0.077 A 
ATOM      5  C   UNL     1      17.483  66.577   7.778  0.00  0.00    +0.048 A 
ATOM      6  C   UNL     1      16.754  67.777   7.617  0.00  0.00    +0.116 A 
ATOM      7  N   UNL     1      15.657  68.032   8.411  0.00  0.00    -0.223 NA
ATOM      8  C   UNL     1      15.248  67.128   9.374  0.00  0.00    +0.220 A 
ATOM      9  N   UNL     1      14.153  67.369  10.190  0.00  0.00    -0.283 N 
ATOM     36  H   UNL     1      13.879  66.673  10.884  0.00  0.00    +0.155 HD
ATOM     37  N   UNL     1      15.927  65.975   9.547  0.00  0.00    -0.214 NA
BRANCH   4   3
ATOM      1  C   UNL     1      19.654  62.764   8.954  0.00  0.00    +0.020 A 
ATOM      2  C   UNL     1      19.055  64.042   8.644  0.00  0.00    +0.013 A 
ATOM      3  C   UNL     1      17.700  64.356   9.081  0.00  0.00    +0.019 A 
ATOM     38  C   UNL     1      16.973  63.346   9.836  0.00  0.00    +0.120 A 
ATOM     39  N   UNL     1      17.575  62.124  10.119  0.00  0.00    -0.263 NA
ATOM     40  C   UNL     1      18.878  61.811   9.702  0.00  0.00    +0.111 A 
ENDBRANCH   4   3
ENDBRANCH  10   9
BRANCH  12  13
ATOM     13  N   UNL     1      14.070  72.329   9.818  0.00  0.00    -0.281 N 
ATOM     14  C   UNL     1      15.004  72.858  10.694  0.00  0.00    +0.248 C 
ATOM     30  O   UNL     1      15.258  72.394  11.796  0.00  0.00    -0.270 OA
ATOM     31  H   UNL     1      13.816  72.918   9.025  0.00  0.00    +0.155 HD
BRANCH  14  15
ATOM     15  C   UNL     1      15.753  74.088  10.295  0.00  0.00    +0.037 A 
ATOM     16  C   UNL     1      16.738  74.059   9.210  0.00  0.00    +0.013 A 
ATOM     17  C   UNL     1      17.459  75.256   8.856  0.00  0.00    +0.005 A 
ATOM     18  C   UNL     1      17.197  76.493   9.588  0.00  0.00    -0.033 A 
ATOM     28  C   UNL     1      16.211  76.495  10.656  0.00  0.00    +0.005 A 
ATOM     29  C   UNL     1      15.503  75.323  11.006  0.00  0.00    +0.013 A 
BRANCH  18  19
ATOM     19  C   UNL     1      17.935  77.812   9.292  0.00  0.00    +0.119 C 
BRANCH  19  20
ATOM     20  N   UNL     1      17.470  78.607   8.117  0.00  0.00    -0.302 NA
ATOM     21  C   UNL     1      15.969  78.438   7.866  0.00  0.00    +0.066 C 
ATOM     22  C   UNL     1      15.495  79.294   6.647  0.00  0.00    -0.064 C 
ATOM     23  N   UNL     1      16.299  78.899   5.407  0.00  0.00    +0.379 N 
ATOM     24  C   UNL     1      15.817  79.662   4.246  0.00  0.00    -0.096 C 
ATOM     25  H   UNL     1      16.105  77.820   5.207  0.00  0.00    -0.082 HD
ATOM     26  C   UNL     1      17.793  79.062   5.648  0.00  0.00    -0.064 C 
ATOM     27  C   UNL     1      18.248  78.231   6.880  0.00  0.00    +0.066 C 
ENDBRANCH  19  20
ENDBRANCH  18  19
ENDBRANCH  14  15
ENDBRANCH  12  13
TORSDOF 6
ENDMDL
