MODEL 1
REMARK VINA RESULT:      -7.8      0.000      0.000
REMARK  Name = C:\Users\Docking\Desktop\test protocol\1iep_ligandH.pdb
REMARK  8 active torsions:
REMARK  status: ('A' for Active; 'I' for Inactive)
REMARK    1  A    between atoms: _5  and  _11
REMARK    2  A    between atoms: _19  and  _21
REMARK    3  A    between atoms: _22  and  _66
REMARK    4  A    between atoms: _27  and  _30
REMARK    5  A    between atoms: _32  and  _33
REMARK    6  A    between atoms: _38  and  _43
REMARK    7  A    between atoms: _43  and  _46
REMARK    8  A    between atoms: _53  and  _55
REMARK                            x       y       z     vdW  Elec       q    Type
REMARK                         _______ _______ _______ _____ _____    ______ ____
ROOT
ATOM     10  C   UNL     1       8.345  69.743   8.307  0.00  0.00    +0.038 A 
ATOM     11  C   UNL     1       8.193  70.188   6.969  0.00  0.00    +0.047 A 
ATOM     12  C   UNL     1       7.168  71.155   6.609  0.00  0.00    +0.035 A 
ATOM     32  C   UNL     1       6.316  71.651   7.639  0.00  0.00    +0.024 A 
ATOM     33  C   UNL     1       6.455  71.208   9.004  0.00  0.00    +0.007 A 
ATOM     34  C   UNL     1       7.463  70.252   9.364  0.00  0.00    -0.029 A 
ATOM     35  C   UNL     1       7.563  69.809  10.843  0.00  0.00    +0.045 C 
ENDROOT
BRANCH  10   9
ATOM      4  C   UNL     1      12.951  68.526   8.890  0.00  0.00    +0.077 A 
ATOM      5  C   UNL     1      13.403  69.848   8.565  0.00  0.00    +0.048 A 
ATOM      6  C   UNL     1      12.418  70.810   8.246  0.00  0.00    +0.116 A 
ATOM      7  N   UNL     1      11.084  70.465   8.256  0.00  0.00    -0.223 NA
ATOM      8  C   UNL     1      10.682  69.180   8.573  0.00  0.00    +0.220 A 
ATOM      9  N   UNL     1       9.346  68.813   8.596  0.00  0.00    -0.283 N 
ATOM     36  H   UNL     1       9.091  67.853   8.828  0.00  0.00    +0.155 HD
ATOM     37  N   UNL     1      11.603  68.243   8.879  0.00  0.00    -0.214 NA
BRANCH   4   3
ATOM      1  C   UNL     1      14.335  64.985   9.811  0.00  0.00    +0.020 A 
ATOM      2  C   UNL     1      13.405  66.036   9.464  0.00  0.00    +0.013 A 
ATOM      3  C   UNL     1      13.870  67.401   9.251  0.00  0.00    +0.019 A 
ATOM     38  C   UNL     1      15.292  67.671   9.398  0.00  0.00    +0.120 A 
ATOM     39  N   UNL     1      16.163  66.640   9.734  0.00  0.00    -0.263 NA
ATOM     40  C   UNL     1      15.727  65.323   9.943  0.00  0.00    +0.111 A 
ENDBRANCH   4   3
ENDBRANCH  10   9
BRANCH  12  13
ATOM     13  N   UNL     1       6.961  71.637   5.266  0.00  0.00    -0.281 N 
ATOM     14  C   UNL     1       5.784  71.643   4.535  0.00  0.00    +0.248 C 
ATOM     30  O   UNL     1       4.772  71.036   4.850  0.00  0.00    -0.270 OA
ATOM     31  H   UNL     1       7.782  72.021   4.798  0.00  0.00    +0.155 HD
BRANCH  14  15
ATOM     15  C   UNL     1       5.729  72.426   3.263  0.00  0.00    +0.037 A 
ATOM     16  C   UNL     1       4.747  73.497   3.072  0.00  0.00    +0.013 A 
ATOM     17  C   UNL     1       4.704  74.225   1.829  0.00  0.00    +0.005 A 
ATOM     18  C   UNL     1       5.647  73.884   0.766  0.00  0.00    -0.033 A 
ATOM     28  C   UNL     1       6.614  72.821   0.985  0.00  0.00    +0.005 A 
ATOM     29  C   UNL     1       6.659  72.105   2.202  0.00  0.00    +0.013 A 
BRANCH  18  19
ATOM     19  C   UNL     1       5.660  74.594  -0.600  0.00  0.00    +0.119 C 
BRANCH  19  20
ATOM     20  N   UNL     1       6.666  74.132  -1.602  0.00  0.00    -0.302 NA
ATOM     21  C   UNL     1       7.399  75.303  -2.263  0.00  0.00    +0.066 C 
ATOM     22  C   UNL     1       8.464  74.801  -3.291  0.00  0.00    -0.064 C 
ATOM     23  N   UNL     1       7.780  73.927  -4.344  0.00  0.00    +0.379 N 
ATOM     24  C   UNL     1       8.769  73.501  -5.345  0.00  0.00    -0.096 C 
ATOM     25  H   UNL     1       7.021  74.556  -4.864  0.00  0.00    -0.082 HD
ATOM     26  C   UNL     1       7.047  72.762  -3.695  0.00  0.00    -0.064 C 
ATOM     27  C   UNL     1       6.011  73.271  -2.654  0.00  0.00    +0.066 C 
ENDBRANCH  19  20
ENDBRANCH  18  19
ENDBRANCH  14  15
ENDBRANCH  12  13
TORSDOF 6
ENDMDL
MODEL 2
REMARK VINA RESULT:      -7.7     17.960     22.649
REMARK  Name = C:\Users\Docking\Desktop\test protocol\1iep_ligandH.pdb
REMARK  8 active torsions:
REMARK  status: ('A' for Active; 'I' for Inactive)
REMARK    1  A    between atoms: _5  and  _11
REMARK    2  A    between atoms: _19  and  _21
REMARK    3  A    between atoms: _22  and  _66
REMARK    4  A    between atoms: _27  and  _30
REMARK    5  A    between atoms: _32  and  _33
REMARK    6  A    between atoms: _38  and  _43
REMARK    7  A    between atoms: _43  and  _46
REMARK    8  A    between atoms: _53  and  _55
REMARK                            x       y       z     vdW  Elec       q    Type
REMARK                         _______ _______ _______ _____ _____    ______ ____
ROOT
ATOM     10  C   UNL     1      21.243  59.423  -6.369  0.00  0.00    +0.038 A 
ATOM     11  C   UNL     1      22.252  60.070  -5.610  0.00  0.00    +0.047 A 
ATOM     12  C   UNL     1      23.580  60.294  -6.160  0.00  0.00    +0.035 A 
ATOM     32  C   UNL     1      23.845  59.849  -7.488  0.00  0.00    +0.024 A 
ATOM     33  C   UNL     1      22.832  59.189  -8.273  0.00  0.00    +0.007 A 
ATOM     34  C   UNL     1      21.521  58.963  -7.735  0.00  0.00    -0.029 A 
ATOM     35  C   UNL     1      20.475  58.245  -8.619  0.00  0.00    +0.045 C 
ENDROOT
BRANCH  10   9
ATOM      4  C   UNL     1      18.165  56.941  -3.648  0.00  0.00    +0.077 A 
ATOM      5  C   UNL     1      19.137  55.921  -3.377  0.00  0.00    +0.048 A 
ATOM      6  C   UNL     1      20.414  56.069  -3.962  0.00  0.00    +0.116 A 
ATOM      7  N   UNL     1      20.689  57.160  -4.757  0.00  0.00    -0.223 NA
ATOM      8  C   UNL     1      19.729  58.125  -5.001  0.00  0.00    +0.220 A 
ATOM      9  N   UNL     1      19.986  59.234  -5.791  0.00  0.00    -0.283 N 
ATOM     36  H   UNL     1      19.249  59.920  -5.952  0.00  0.00    +0.155 HD
ATOM     37  N   UNL     1      18.501  58.006  -4.454  0.00  0.00    -0.214 NA
BRANCH   4   3
ATOM      1  C   UNL     1      14.538  58.007  -2.645  0.00  0.00    +0.020 A 
ATOM      2  C   UNL     1      15.874  58.072  -3.191  0.00  0.00    +0.013 A 
ATOM      3  C   UNL     1      16.773  56.928  -3.099  0.00  0.00    +0.019 A 
ATOM     38  C   UNL     1      16.284  55.724  -2.444  0.00  0.00    +0.120 A 
ATOM     39  N   UNL     1      14.993  55.691  -1.926  0.00  0.00    -0.263 NA
ATOM     40  C   UNL     1      14.120  56.787  -2.008  0.00  0.00    +0.111 A 
ENDBRANCH   4   3
ENDBRANCH  10   9
BRANCH  12  13
ATOM     13  N   UNL     1      24.647  60.937  -5.434  0.00  0.00    -0.281 N 
ATOM     14  C   UNL     1      25.460  60.392  -4.454  0.00  0.00    +0.248 C 
ATOM     30  O   UNL     1      25.251  59.323  -3.898  0.00  0.00    -0.270 OA
ATOM     31  H   UNL     1      24.825  61.913  -5.672  0.00  0.00    +0.155 HD
BRANCH  14  15
ATOM     15  C   UNL     1      26.672  61.149  -4.018  0.00  0.00    +0.037 A 
ATOM     16  C   UNL     1      27.074  62.390  -4.684  0.00  0.00    +0.013 A 
ATOM     17  C   UNL     1      28.258  63.092  -4.254  0.00  0.00    +0.005 A 
ATOM     18  C   UNL     1      29.048  62.553  -3.150  0.00  0.00    -0.033 A 
ATOM     28  C   UNL     1      28.624  61.323  -2.503  0.00  0.00    +0.005 A 
ATOM     29  C   UNL     1      27.465  60.632  -2.922  0.00  0.00    +0.013 A 
BRANCH  18  19
ATOM     19  C   UNL     1      30.337  63.224  -2.639  0.00  0.00    +0.119 C 
BRANCH  19  20
ATOM     20  N   UNL     1      30.198  64.553  -1.972  0.00  0.00    -0.302 NA
ATOM     21  C   UNL     1      31.525  65.043  -1.386  0.00  0.00    +0.066 C 
ATOM     22  C   UNL     1      31.366  66.445  -0.713  0.00  0.00    -0.064 C 
ATOM     23  N   UNL     1      30.291  66.368   0.372  0.00  0.00    +0.379 N 
ATOM     24  C   UNL     1      30.180  67.669   1.047  0.00  0.00    -0.096 C 
ATOM     25  H   UNL     1      30.628  65.622   1.129  0.00  0.00    -0.082 HD
ATOM     26  C   UNL     1      28.969  65.879  -0.201  0.00  0.00    -0.064 C 
ATOM     27  C   UNL     1      29.144  64.498  -0.894  0.00  0.00    +0.066 C 
ENDBRANCH  19  20
ENDBRANCH  18  19
ENDBRANCH  14  15
ENDBRANCH  12  13
TORSDOF 6
ENDMDL
MODEL 3
REMARK VINA RESULT:      -7.6      6.591     13.320
REMARK  Name = C:\Users\Docking\Desktop\test protocol\1iep_ligandH.pdb
REMARK  8 active torsions:
REMARK  status: ('A' for Active; 'I' for Inactive)
REMARK    1  A    between atoms: _5  and  _11
REMARK    2  A    between atoms: _19  and  _21
REMARK    3  A    between atoms: _22  and  _66
REMARK    4  A    between atoms: _27  and  _30
REMARK    5  A    between atoms: _32  and  _33
REMARK    6  A    between atoms: _38  and  _43
REMARK    7  A    between atoms: _43  and  _46
REMARK    8  A    between atoms: _53  and  _55
REMARK                            x       y       z     vdW  Elec       q    Type
REMARK                         _______ _______ _______ _____ _____    ______ ____
ROOT
ATOM     10  C   UNL     1       7.199  70.307   9.483  0.00  0.00    +0.038 A 
ATOM     11  C   UNL     1       6.676  69.631  10.614  0.00  0.00    +0.047 A 
ATOM     12  C   UNL     1       5.254  69.663  10.919  0.00  0.00    +0.035 A 
ATOM     32  C   UNL     1       4.393  70.392  10.048  0.00  0.00    +0.024 A 
ATOM     33  C   UNL     1       4.908  71.086   8.894  0.00  0.00    +0.007 A 
ATOM     34  C   UNL     1       6.310  71.060   8.590  0.00  0.00    -0.029 A 
ATOM     35  C   UNL     1       6.807  71.828   7.343  0.00  0.00    +0.045 C 
ENDROOT
BRANCH  10   9
ATOM      4  C   UNL     1      11.365  67.927   9.331  0.00  0.00    +0.077 A 
ATOM      5  C   UNL     1      10.758  66.717   9.807  0.00  0.00    +0.048 A 
ATOM      6  C   UNL     1       9.374  66.751  10.085  0.00  0.00    +0.116 A 
ATOM      7  N   UNL     1       8.658  67.914   9.898  0.00  0.00    -0.223 NA
ATOM      8  C   UNL     1       9.274  69.064   9.440  0.00  0.00    +0.220 A 
ATOM      9  N   UNL     1       8.573  70.243   9.237  0.00  0.00    -0.283 N 
ATOM     36  H   UNL     1       9.065  71.072   8.905  0.00  0.00    +0.155 HD
ATOM     37  N   UNL     1      10.596  69.058   9.168  0.00  0.00    -0.214 NA
BRANCH   4   3
ATOM      1  C   UNL     1      14.712  68.854   7.531  0.00  0.00    +0.020 A 
ATOM      2  C   UNL     1      13.298  68.765   7.815  0.00  0.00    +0.013 A 
ATOM      3  C   UNL     1      12.817  68.049   8.990  0.00  0.00    +0.019 A 
ATOM     38  C   UNL     1      13.801  67.429   9.865  0.00  0.00    +0.120 A 
ATOM     39  N   UNL     1      15.156  67.530   9.565  0.00  0.00    -0.263 NA
ATOM     40  C   UNL     1      15.630  68.215   8.436  0.00  0.00    +0.111 A 
ENDBRANCH   4   3
ENDBRANCH  10   9
BRANCH  12  13
ATOM     13  N   UNL     1       4.667  69.003  12.058  0.00  0.00    -0.281 N 
ATOM     14  C   UNL     1       3.695  68.015  12.062  0.00  0.00    +0.248 C 
ATOM     30  O   UNL     1       3.026  67.700  11.090  0.00  0.00    -0.270 OA
ATOM     31  H   UNL     1       5.009  69.299  12.973  0.00  0.00    +0.155 HD
BRANCH  14  15
ATOM     15  C   UNL     1       3.415  67.283  13.335  0.00  0.00    +0.037 A 
ATOM     16  C   UNL     1       2.418  66.211  13.392  0.00  0.00    +0.013 A 
ATOM     17  C   UNL     1       2.155  65.532  14.636  0.00  0.00    +0.005 A 
ATOM     18  C   UNL     1       2.894  65.922  15.834  0.00  0.00    -0.033 A 
ATOM     28  C   UNL     1       3.882  66.985  15.748  0.00  0.00    +0.005 A 
ATOM     29  C   UNL     1       4.141  67.654  14.531  0.00  0.00    +0.013 A 
BRANCH  18  19
ATOM     19  C   UNL     1       2.665  65.267  17.209  0.00  0.00    +0.119 C 
BRANCH  19  20
ATOM     20  N   UNL     1       2.081  66.122  18.285  0.00  0.00    -0.302 NA
ATOM     21  C   UNL     1       2.599  65.732  19.672  0.00  0.00    +0.066 C 
ATOM     22  C   UNL     1       1.996  66.652  20.784  0.00  0.00    -0.064 C 
ATOM     23  N   UNL     1       0.469  66.573  20.734  0.00  0.00    +0.379 N 
ATOM     24  C   UNL     1      -0.099  67.391  21.815  0.00  0.00    -0.096 C 
ATOM     25  H   UNL     1       0.179  65.513  20.923  0.00  0.00    -0.082 HD
ATOM     26  C   UNL     1      -0.054  66.956  19.357  0.00  0.00    -0.064 C 
ATOM     27  C   UNL     1       0.574  66.056  18.257  0.00  0.00    +0.066 C 
ENDBRANCH  19  20
ENDBRANCH  18  19
ENDBRANCH  14  15
ENDBRANCH  12  13
TORSDOF 6
ENDMDL
MODEL 4
REMARK VINA RESULT:      -7.4     18.121     21.900
REMARK  Name = C:\Users\Docking\Desktop\test protocol\1iep_ligandH.pdb
REMARK  8 active torsions:
REMARK  status: ('A' for Active; 'I' for Inactive)
REMARK    1  A    between atoms: _5  and  _11
REMARK    2  A    between atoms: _19  and  _21
REMARK    3  A    between atoms: _22  and  _66
REMARK    4  A    between atoms: _27  and  _30
REMARK    5  A    between atoms: _32  and  _33
REMARK    6  A    between atoms: _38  and  _43
REMARK    7  A    between atoms: _43  and  _46
REMARK    8  A    between atoms: _53  and  _55
REMARK                            x       y       z     vdW  Elec       q    Type
REMARK                         _______ _______ _______ _____ _____    ______ ____
ROOT
ATOM     10  C   UNL     1      24.790  55.529  -2.814  0.00  0.00    +0.038 A 
ATOM     11  C   UNL     1      23.380  55.673  -2.799  0.00  0.00    +0.047 A 
ATOM     12  C   UNL     1      22.736  56.837  -3.387  0.00  0.00    +0.035 A 
ATOM     32  C   UNL     1      23.559  57.836  -3.983  0.00  0.00    +0.024 A 
ATOM     33  C   UNL     1      24.995  57.707  -4.006  0.00  0.00    +0.007 A 
ATOM     34  C   UNL     1      25.636  56.561  -3.426  0.00  0.00    -0.029 A 
ATOM     35  C   UNL     1      27.180  56.478  -3.473  0.00  0.00    +0.045 C 
ENDROOT
BRANCH  10   9
ATOM      4  C   UNL     1      26.550  53.121   0.947  0.00  0.00    +0.077 A 
ATOM      5  C   UNL     1      26.351  54.235   1.828  0.00  0.00    +0.048 A 
ATOM      6  C   UNL     1      25.800  55.411   1.273  0.00  0.00    +0.116 A 
ATOM      7  N   UNL     1      25.475  55.459  -0.065  0.00  0.00    -0.223 NA
ATOM      8  C   UNL     1      25.682  54.367  -0.888  0.00  0.00    +0.220 A 
ATOM      9  N   UNL     1      25.356  54.390  -2.236  0.00  0.00    -0.283 N 
ATOM     36  H   UNL     1      25.530  53.567  -2.811  0.00  0.00    +0.155 HD
ATOM     37  N   UNL     1      26.208  53.232  -0.383  0.00  0.00    -0.214 NA
BRANCH   4   3
ATOM      1  C   UNL     1      27.011  49.301   1.655  0.00  0.00    +0.020 A 
ATOM      2  C   UNL     1      26.416  50.542   1.214  0.00  0.00    +0.013 A 
ATOM      3  C   UNL     1      27.120  51.807   1.385  0.00  0.00    +0.019 A 
ATOM     38  C   UNL     1      28.434  51.782   2.008  0.00  0.00    +0.120 A 
ATOM     39  N   UNL     1      28.981  50.572   2.423  0.00  0.00    -0.263 NA
ATOM     40  C   UNL     1      28.313  49.349   2.266  0.00  0.00    +0.111 A 
ENDBRANCH   4   3
ENDBRANCH  10   9
BRANCH  12  13
ATOM     13  N   UNL     1      21.308  57.041  -3.394  0.00  0.00    -0.281 N 
ATOM     14  C   UNL     1      20.329  56.190  -3.880  0.00  0.00    +0.248 C 
ATOM     30  O   UNL     1      20.548  55.212  -4.578  0.00  0.00    -0.270 OA
ATOM     31  H   UNL     1      20.980  57.920  -2.993  0.00  0.00    +0.155 HD
BRANCH  14  15
ATOM     15  C   UNL     1      18.898  56.475  -3.554  0.00  0.00    +0.037 A 
ATOM     16  C   UNL     1      18.074  55.500  -2.835  0.00  0.00    +0.013 A 
ATOM     17  C   UNL     1      16.692  55.793  -2.549  0.00  0.00    +0.005 A 
ATOM     18  C   UNL     1      16.126  57.070  -2.980  0.00  0.00    -0.033 A 
ATOM     28  C   UNL     1      16.968  58.021  -3.686  0.00  0.00    +0.005 A 
ATOM     29  C   UNL     1      18.323  57.737  -3.970  0.00  0.00    +0.013 A 
BRANCH  18  19
ATOM     19  C   UNL     1      14.656  57.458  -2.735  0.00  0.00    +0.119 C 
BRANCH  19  20
ATOM     20  N   UNL     1      13.715  57.332  -3.888  0.00  0.00    -0.302 NA
ATOM     21  C   UNL     1      14.014  56.096  -4.741  0.00  0.00    +0.066 C 
ATOM     22  C   UNL     1      13.006  55.967  -5.930  0.00  0.00    -0.064 C 
ATOM     23  N   UNL     1      13.059  57.238  -6.779  0.00  0.00    +0.379 N 
ATOM     24  C   UNL     1      12.154  57.097  -7.930  0.00  0.00    -0.096 C 
ATOM     25  H   UNL     1      14.096  57.338  -7.174  0.00  0.00    -0.082 HD
ATOM     26  C   UNL     1      12.765  58.472  -5.938  0.00  0.00    -0.064 C 
ATOM     27  C   UNL     1      13.754  58.574  -4.743  0.00  0.00    +0.066 C 
ENDBRANCH  19  20
ENDBRANCH  18  19
ENDBRANCH  14  15
ENDBRANCH  12  13
TORSDOF 6
ENDMDL
MODEL 5
REMARK VINA RESULT:      -7.3     19.625     23.751
REMARK  Name = C:\Users\Docking\Desktop\test protocol\1iep_ligandH.pdb
REMARK  8 active torsions:
REMARK  status: ('A' for Active; 'I' for Inactive)
REMARK    1  A    between atoms: _5  and  _11
REMARK    2  A    between atoms: _19  and  _21
REMARK    3  A    between atoms: _22  and  _66
REMARK    4  A    between atoms: _27  and  _30
REMARK    5  A    between atoms: _32  and  _33
REMARK    6  A    between atoms: _38  and  _43
REMARK    7  A    between atoms: _43  and  _46
REMARK    8  A    between atoms: _53  and  _55
REMARK                            x       y       z     vdW  Elec       q    Type
REMARK                         _______ _______ _______ _____ _____    ______ ____
ROOT
ATOM     10  C   UNL     1      26.342  59.919  -3.442  0.00  0.00    +0.038 A 
ATOM     11  C   UNL     1      26.701  61.132  -2.801  0.00  0.00    +0.047 A 
ATOM     12  C   UNL     1      28.073  61.614  -2.816  0.00  0.00    +0.035 A 
ATOM     32  C   UNL     1      29.054  60.837  -3.497  0.00  0.00    +0.024 A 
ATOM     33  C   UNL     1      28.707  59.601  -4.154  0.00  0.00    +0.007 A 
ATOM     34  C   UNL     1      27.356  59.119  -4.139  0.00  0.00    -0.029 A 
ATOM     35  C   UNL     1      27.043  57.784  -4.854  0.00  0.00    +0.045 C 
ENDROOT
BRANCH  10   9
ATOM      4  C   UNL     1      21.924  59.654  -5.299  0.00  0.00    +0.077 A 
ATOM      5  C   UNL     1      22.295  60.433  -6.445  0.00  0.00    +0.048 A 
ATOM      6  C   UNL     1      23.630  60.888  -6.515  0.00  0.00    +0.116 A 
ATOM      7  N   UNL     1      24.520  60.582  -5.508  0.00  0.00    -0.223 NA
ATOM      8  C   UNL     1      24.129  59.830  -4.416  0.00  0.00    +0.220 A 
ATOM      9  N   UNL     1      25.009  59.503  -3.396  0.00  0.00    -0.283 N 
ATOM     36  H   UNL     1      24.680  58.953  -2.603  0.00  0.00    +0.155 HD
ATOM     37  N   UNL     1      22.859  59.384  -4.325  0.00  0.00    -0.214 NA
BRANCH   4   3
ATOM      1  C   UNL     1      18.818  57.894  -3.700  0.00  0.00    +0.020 A 
ATOM      2  C   UNL     1      20.157  58.412  -3.858  0.00  0.00    +0.013 A 
ATOM      3  C   UNL     1      20.550  59.098  -5.082  0.00  0.00    +0.019 A 
ATOM     38  C   UNL     1      19.556  59.246  -6.134  0.00  0.00    +0.120 A 
ATOM     39  N   UNL     1      18.274  58.736  -5.954  0.00  0.00    -0.263 NA
ATOM     40  C   UNL     1      17.885  58.072  -4.781  0.00  0.00    +0.111 A 
ENDBRANCH   4   3
ENDBRANCH  10   9
BRANCH  12  13
ATOM     13  N   UNL     1      28.498  62.834  -2.176  0.00  0.00    -0.281 N 
ATOM     14  C   UNL     1      29.163  62.975  -0.969  0.00  0.00    +0.248 C 
ATOM     30  O   UNL     1      29.307  62.080  -0.150  0.00  0.00    -0.270 OA
ATOM     31  H   UNL     1      28.281  63.699  -2.672  0.00  0.00    +0.155 HD
BRANCH  14  15
ATOM     15  C   UNL     1      29.741  64.307  -0.615  0.00  0.00    +0.037 A 
ATOM     16  C   UNL     1      31.190  64.511  -0.540  0.00  0.00    +0.013 A 
ATOM     17  C   UNL     1      31.721  65.802  -0.179  0.00  0.00    +0.005 A 
ATOM     18  C   UNL     1      30.801  66.900   0.108  0.00  0.00    -0.033 A 
ATOM     28  C   UNL     1      29.368  66.671   0.022  0.00  0.00    +0.005 A 
ATOM     29  C   UNL     1      28.844  65.407  -0.331  0.00  0.00    +0.013 A 
BRANCH  18  19
ATOM     19  C   UNL     1      31.279  68.305   0.522  0.00  0.00    +0.119 C 
BRANCH  19  20
ATOM     20  N   UNL     1      31.599  68.521   1.964  0.00  0.00    -0.302 NA
ATOM     21  C   UNL     1      30.462  69.231   2.705  0.00  0.00    +0.066 C 
ATOM     22  C   UNL     1      30.805  69.429   4.217  0.00  0.00    -0.064 C 
ATOM     23  N   UNL     1      32.109  70.218   4.343  0.00  0.00    +0.379 N 
ATOM     24  C   UNL     1      32.404  70.456   5.763  0.00  0.00    -0.096 C 
ATOM     25  H   UNL     1      31.952  71.210   3.859  0.00  0.00    -0.082 HD
ATOM     26  C   UNL     1      33.244  69.521   3.607  0.00  0.00    -0.064 C 
ATOM     27  C   UNL     1      32.882  69.302   2.111  0.00  0.00    +0.066 C 
ENDBRANCH  19  20
ENDBRANCH  18  19
ENDBRANCH  14  15
ENDBRANCH  12  13
TORSDOF 6
ENDMDL
