MODEL 1
REMARK VINA RESULT:      -9.8      0.000      0.000
REMARK  Name = C:\Users\Docking\Desktop\test protocol\1iep_ligandH.pdb
REMARK  8 active torsions:
REMARK  status: ('A' for Active; 'I' for Inactive)
REMARK    1  A    between atoms: _5  and  _11
REMARK    2  A    between atoms: _19  and  _21
REMARK    3  A    between atoms: _22  and  _66
REMARK    4  A    between atoms: _27  and  _30
REMARK    5  A    between atoms: _32  and  _33
REMARK    6  A    between atoms: _38  and  _43
REMARK    7  A    between atoms: _43  and  _46
REMARK    8  A    between atoms: _53  and  _55
REMARK                            x       y       z     vdW  Elec       q    Type
REMARK                         _______ _______ _______ _____ _____    ______ ____
ROOT
ATOM     10  C   UNL     1     106.797  38.814  -0.856  0.00  0.00    +0.038 A 
ATOM     11  C   UNL     1     105.934  38.362   0.175  0.00  0.00    +0.047 A 
ATOM     12  C   UNL     1     104.573  37.938  -0.115  0.00  0.00    +0.035 A 
ATOM     32  C   UNL     1     104.125  37.984  -1.467  0.00  0.00    +0.024 A 
ATOM     33  C   UNL     1     104.989  38.440  -2.527  0.00  0.00    +0.007 A 
ATOM     34  C   UNL     1     106.331  38.863  -2.247  0.00  0.00    -0.029 A 
ATOM     35  C   UNL     1     107.211  39.349  -3.422  0.00  0.00    +0.045 C 
ENDROOT
BRANCH  10   9
ATOM      4  C   UNL     1     110.875  38.291   1.622  0.00  0.00    +0.077 A 
ATOM      5  C   UNL     1     110.369  37.149   2.327  0.00  0.00    +0.048 A 
ATOM      6  C   UNL     1     109.052  36.733   2.029  0.00  0.00    +0.116 A 
ATOM      7  N   UNL     1     108.306  37.415   1.092  0.00  0.00    -0.223 NA
ATOM      8  C   UNL     1     108.824  38.513   0.431  0.00  0.00    +0.220 A 
ATOM      9  N   UNL     1     108.094  39.209  -0.521  0.00  0.00    -0.283 N 
ATOM     36  H   UNL     1     108.509  40.019  -0.981  0.00  0.00    +0.155 HD
ATOM     37  N   UNL     1     110.078  38.932   0.699  0.00  0.00    -0.214 NA
BRANCH   4   3
ATOM      1  C   UNL     1     114.762  38.638   1.890  0.00  0.00    +0.020 A 
ATOM      2  C   UNL     1     113.459  38.050   1.683  0.00  0.00    +0.013 A 
ATOM      3  C   UNL     1     112.249  38.850   1.824  0.00  0.00    +0.019 A 
ATOM     38  C   UNL     1     112.394  40.255   2.177  0.00  0.00    +0.120 A 
ATOM     39  N   UNL     1     113.662  40.794   2.371  0.00  0.00    -0.263 NA
ATOM     40  C   UNL     1     114.833  40.033   2.239  0.00  0.00    +0.111 A 
ENDBRANCH   4   3
ENDBRANCH  10   9
BRANCH  12  13
ATOM     13  N   UNL     1     103.649  37.478   0.892  0.00  0.00    -0.281 N 
ATOM     14  C   UNL     1     103.486  37.957   2.181  0.00  0.00    +0.248 C 
ATOM     30  O   UNL     1     104.262  38.718   2.739  0.00  0.00    -0.270 OA
ATOM     31  H   UNL     1     103.041  36.705   0.620  0.00  0.00    +0.155 HD
BRANCH  14  15
ATOM     15  C   UNL     1     102.296  37.516   2.970  0.00  0.00    +0.037 A 
ATOM     16  C   UNL     1     101.010  38.209   2.858  0.00  0.00    +0.013 A 
ATOM     17  C   UNL     1      99.882  37.773   3.644  0.00  0.00    +0.005 A 
ATOM     18  C   UNL     1     100.036  36.636   4.548  0.00  0.00    -0.033 A 
ATOM     28  C   UNL     1     101.322  35.963   4.636  0.00  0.00    +0.005 A 
ATOM     29  C   UNL     1     102.429  36.388   3.868  0.00  0.00    +0.013 A 
BRANCH  18  19
ATOM     19  C   UNL     1      98.893  36.116   5.439  0.00  0.00    +0.119 C 
BRANCH  19  20
ATOM     20  N   UNL     1      98.645  36.838   6.723  0.00  0.00    -0.302 NA
ATOM     21  C   UNL     1      99.823  37.732   7.117  0.00  0.00    +0.066 C 
ATOM     22  C   UNL     1      99.537  38.497   8.450  0.00  0.00    -0.064 C 
ATOM     23  N   UNL     1      99.230  37.487   9.558  0.00  0.00    +0.379 N 
ATOM     24  C   UNL     1      99.018  38.200  10.826  0.00  0.00    -0.096 C 
ATOM     25  H   UNL     1     100.127  36.837   9.681  0.00  0.00    -0.082 HD
ATOM     26  C   UNL     1      98.061  36.592   9.173  0.00  0.00    -0.064 C 
ATOM     27  C   UNL     1      98.343  35.859   7.832  0.00  0.00    +0.066 C 
ENDBRANCH  19  20
ENDBRANCH  18  19
ENDBRANCH  14  15
ENDBRANCH  12  13
TORSDOF 6
ENDMDL
MODEL 2
REMARK VINA RESULT:      -9.2      3.786      6.958
REMARK  Name = C:\Users\Docking\Desktop\test protocol\1iep_ligandH.pdb
REMARK  8 active torsions:
REMARK  status: ('A' for Active; 'I' for Inactive)
REMARK    1  A    between atoms: _5  and  _11
REMARK    2  A    between atoms: _19  and  _21
REMARK    3  A    between atoms: _22  and  _66
REMARK    4  A    between atoms: _27  and  _30
REMARK    5  A    between atoms: _32  and  _33
REMARK    6  A    between atoms: _38  and  _43
REMARK    7  A    between atoms: _43  and  _46
REMARK    8  A    between atoms: _53  and  _55
REMARK                            x       y       z     vdW  Elec       q    Type
REMARK                         _______ _______ _______ _____ _____    ______ ____
ROOT
ATOM     10  C   UNL     1     104.880  38.616  -0.886  0.00  0.00    +0.038 A 
ATOM     11  C   UNL     1     103.925  38.302   0.115  0.00  0.00    +0.047 A 
ATOM     12  C   UNL     1     104.335  37.787   1.412  0.00  0.00    +0.035 A 
ATOM     32  C   UNL     1     105.727  37.605   1.657  0.00  0.00    +0.024 A 
ATOM     33  C   UNL     1     106.712  37.918   0.651  0.00  0.00    +0.007 A 
ATOM     34  C   UNL     1     106.313  38.425  -0.631  0.00  0.00    -0.029 A 
ATOM     35  C   UNL     1     107.411  38.737  -1.674  0.00  0.00    +0.045 C 
ENDROOT
BRANCH  10   9
ATOM      4  C   UNL     1     103.516  42.208  -3.763  0.00  0.00    +0.077 A 
ATOM      5  C   UNL     1     103.689  43.183  -2.725  0.00  0.00    +0.048 A 
ATOM      6  C   UNL     1     104.123  42.719  -1.463  0.00  0.00    +0.116 A 
ATOM      7  N   UNL     1     104.364  41.376  -1.265  0.00  0.00    -0.223 NA
ATOM      8  C   UNL     1     104.186  40.462  -2.287  0.00  0.00    +0.220 A 
ATOM      9  N   UNL     1     104.430  39.108  -2.113  0.00  0.00    -0.283 N 
ATOM     36  H   UNL     1     104.280  38.465  -2.889  0.00  0.00    +0.155 HD
ATOM     37  N   UNL     1     103.771  40.880  -3.501  0.00  0.00    -0.214 NA
BRANCH   4   3
ATOM      1  C   UNL     1     102.159  44.138  -6.882  0.00  0.00    +0.020 A 
ATOM      2  C   UNL     1     102.581  43.865  -5.528  0.00  0.00    +0.013 A 
ATOM      3  C   UNL     1     103.066  42.544  -5.150  0.00  0.00    +0.019 A 
ATOM     38  C   UNL     1     103.112  41.512  -6.175  0.00  0.00    +0.120 A 
ATOM     39  N   UNL     1     102.697  41.803  -7.471  0.00  0.00    -0.263 NA
ATOM     40  C   UNL     1     102.227  43.071  -7.846  0.00  0.00    +0.111 A 
ENDBRANCH   4   3
ENDBRANCH  10   9
BRANCH  12  13
ATOM     13  N   UNL     1     103.410  37.443   2.463  0.00  0.00    -0.281 N 
ATOM     14  C   UNL     1     102.299  38.154   2.886  0.00  0.00    +0.248 C 
ATOM     30  O   UNL     1     102.053  39.307   2.565  0.00  0.00    -0.270 OA
ATOM     31  H   UNL     1     103.597  36.569   2.955  0.00  0.00    +0.155 HD
BRANCH  14  15
ATOM     15  C   UNL     1     101.329  37.494   3.812  0.00  0.00    +0.037 A 
ATOM     16  C   UNL     1     101.570  36.144   4.330  0.00  0.00    +0.013 A 
ATOM     17  C   UNL     1     100.610  35.524   5.208  0.00  0.00    +0.005 A 
ATOM     18  C   UNL     1      99.399  36.254   5.575  0.00  0.00    -0.033 A 
ATOM     28  C   UNL     1      99.187  37.593   5.051  0.00  0.00    +0.005 A 
ATOM     29  C   UNL     1     100.126  38.204   4.189  0.00  0.00    +0.013 A 
BRANCH  18  19
ATOM     19  C   UNL     1      98.310  35.662   6.489  0.00  0.00    +0.119 C 
BRANCH  19  20
ATOM     20  N   UNL     1      98.255  36.158   7.896  0.00  0.00    -0.302 NA
ATOM     21  C   UNL     1      97.834  37.628   7.971  0.00  0.00    +0.066 C 
ATOM     22  C   UNL     1      97.759  38.125   9.452  0.00  0.00    -0.064 C 
ATOM     23  N   UNL     1      99.116  37.915  10.126  0.00  0.00    +0.379 N 
ATOM     24  C   UNL     1      99.066  38.433  11.501  0.00  0.00    -0.096 C 
ATOM     25  H   UNL     1      99.869  38.516   9.565  0.00  0.00    -0.082 HD
ATOM     26  C   UNL     1      99.544  36.456  10.054  0.00  0.00    -0.064 C 
ATOM     27  C   UNL     1      99.586  35.964   8.580  0.00  0.00    +0.066 C 
ENDBRANCH  19  20
ENDBRANCH  18  19
ENDBRANCH  14  15
ENDBRANCH  12  13
TORSDOF 6
ENDMDL
MODEL 3
REMARK VINA RESULT:      -8.9      1.631      2.326
REMARK  Name = C:\Users\Docking\Desktop\test protocol\1iep_ligandH.pdb
REMARK  8 active torsions:
REMARK  status: ('A' for Active; 'I' for Inactive)
REMARK    1  A    between atoms: _5  and  _11
REMARK    2  A    between atoms: _19  and  _21
REMARK    3  A    between atoms: _22  and  _66
REMARK    4  A    between atoms: _27  and  _30
REMARK    5  A    between atoms: _32  and  _33
REMARK    6  A    between atoms: _38  and  _43
REMARK    7  A    between atoms: _43  and  _46
REMARK    8  A    between atoms: _53  and  _55
REMARK                            x       y       z     vdW  Elec       q    Type
REMARK                         _______ _______ _______ _____ _____    ______ ____
ROOT
ATOM     10  C   UNL     1     107.217  39.888  -1.979  0.00  0.00    +0.038 A 
ATOM     11  C   UNL     1     106.194  39.682  -1.018  0.00  0.00    +0.047 A 
ATOM     12  C   UNL     1     104.941  39.036  -1.380  0.00  0.00    +0.035 A 
ATOM     32  C   UNL     1     104.765  38.611  -2.729  0.00  0.00    +0.024 A 
ATOM     33  C   UNL     1     105.794  38.813  -3.718  0.00  0.00    +0.007 A 
ATOM     34  C   UNL     1     107.031  39.452  -3.368  0.00  0.00    -0.029 A 
ATOM     35  C   UNL     1     108.096  39.649  -4.472  0.00  0.00    +0.045 C 
ENDROOT
BRANCH  10   9
ATOM      4  C   UNL     1     111.074  40.223   0.857  0.00  0.00    +0.077 A 
ATOM      5  C   UNL     1     110.687  39.072   1.620  0.00  0.00    +0.048 A 
ATOM      6  C   UNL     1     109.485  38.426   1.255  0.00  0.00    +0.116 A 
ATOM      7  N   UNL     1     108.734  38.905   0.203  0.00  0.00    -0.223 NA
ATOM      8  C   UNL     1     109.135  40.019  -0.511  0.00  0.00    +0.220 A 
ATOM      9  N   UNL     1     108.399  40.513  -1.577  0.00  0.00    -0.283 N 
ATOM     36  H   UNL     1     108.726  41.342  -2.074  0.00  0.00    +0.155 HD
ATOM     37  N   UNL     1     110.279  40.654  -0.181  0.00  0.00    -0.214 NA
BRANCH   4   3
ATOM      1  C   UNL     1     113.829  42.379   2.608  0.00  0.00    +0.020 A 
ATOM      2  C   UNL     1     112.611  41.628   2.407  0.00  0.00    +0.013 A 
ATOM      3  C   UNL     1     112.320  41.011   1.119  0.00  0.00    +0.019 A 
ATOM     38  C   UNL     1     113.291  41.173   0.047  0.00  0.00    +0.120 A 
ATOM     39  N   UNL     1     114.454  41.903   0.269  0.00  0.00    -0.263 NA
ATOM     40  C   UNL     1     114.744  42.502   1.504  0.00  0.00    +0.111 A 
ENDBRANCH   4   3
ENDBRANCH  10   9
BRANCH  12  13
ATOM     13  N   UNL     1     103.864  38.807  -0.450  0.00  0.00    -0.281 N 
ATOM     14  C   UNL     1     103.932  38.231   0.808  0.00  0.00    +0.248 C 
ATOM     30  O   UNL     1     104.903  37.627   1.240  0.00  0.00    -0.270 OA
ATOM     31  H   UNL     1     102.938  39.106  -0.756  0.00  0.00    +0.155 HD
BRANCH  14  15
ATOM     15  C   UNL     1     102.746  38.327   1.712  0.00  0.00    +0.037 A 
ATOM     16  C   UNL     1     102.562  37.394   2.827  0.00  0.00    +0.013 A 
ATOM     17  C   UNL     1     101.400  37.498   3.673  0.00  0.00    +0.005 A 
ATOM     18  C   UNL     1     100.412  38.541   3.408  0.00  0.00    -0.033 A 
ATOM     28  C   UNL     1     100.621  39.456   2.298  0.00  0.00    +0.005 A 
ATOM     29  C   UNL     1     101.759  39.356   1.466  0.00  0.00    +0.013 A 
BRANCH  18  19
ATOM     19  C   UNL     1      99.131  38.712   4.246  0.00  0.00    +0.119 C 
BRANCH  19  20
ATOM     20  N   UNL     1      99.067  37.991   5.552  0.00  0.00    -0.302 NA
ATOM     21  C   UNL     1      97.626  37.790   6.028  0.00  0.00    +0.066 C 
ATOM     22  C   UNL     1      97.577  37.014   7.384  0.00  0.00    -0.064 C 
ATOM     23  N   UNL     1      98.392  37.774   8.433  0.00  0.00    +0.379 N 
ATOM     24  C   UNL     1      98.300  37.078   9.724  0.00  0.00    -0.096 C 
ATOM     25  H   UNL     1      97.929  38.780   8.557  0.00  0.00    -0.082 HD
ATOM     26  C   UNL     1      99.826  37.980   7.967  0.00  0.00    -0.064 C 
ATOM     27  C   UNL     1      99.862  38.726   6.603  0.00  0.00    +0.066 C 
ENDBRANCH  19  20
ENDBRANCH  18  19
ENDBRANCH  14  15
ENDBRANCH  12  13
TORSDOF 6
ENDMDL
MODEL 4
REMARK VINA RESULT:      -8.8      2.324      2.854
REMARK  Name = C:\Users\Docking\Desktop\test protocol\1iep_ligandH.pdb
REMARK  8 active torsions:
REMARK  status: ('A' for Active; 'I' for Inactive)
REMARK    1  A    between atoms: _5  and  _11
REMARK    2  A    between atoms: _19  and  _21
REMARK    3  A    between atoms: _22  and  _66
REMARK    4  A    between atoms: _27  and  _30
REMARK    5  A    between atoms: _32  and  _33
REMARK    6  A    between atoms: _38  and  _43
REMARK    7  A    between atoms: _43  and  _46
REMARK    8  A    between atoms: _53  and  _55
REMARK                            x       y       z     vdW  Elec       q    Type
REMARK                         _______ _______ _______ _____ _____    ______ ____
ROOT
ATOM     10  C   UNL     1     106.192  39.547  -2.036  0.00  0.00    +0.038 A 
ATOM     11  C   UNL     1     105.414  39.244  -0.890  0.00  0.00    +0.047 A 
ATOM     12  C   UNL     1     104.445  38.159  -0.902  0.00  0.00    +0.035 A 
ATOM     32  C   UNL     1     104.297  37.400  -2.100  0.00  0.00    +0.024 A 
ATOM     33  C   UNL     1     105.079  37.695  -3.275  0.00  0.00    +0.007 A 
ATOM     34  C   UNL     1     106.034  38.766  -3.269  0.00  0.00    -0.029 A 
ATOM     35  C   UNL     1     106.840  39.041  -4.560  0.00  0.00    +0.045 C 
ENDROOT
BRANCH  10   9
ATOM      4  C   UNL     1     110.271  41.513  -0.444  0.00  0.00    +0.077 A 
ATOM      5  C   UNL     1     110.593  40.355   0.339  0.00  0.00    +0.048 A 
ATOM      6  C   UNL     1     109.679  39.278   0.311  0.00  0.00    +0.116 A 
ATOM      7  N   UNL     1     108.532  39.363  -0.448  0.00  0.00    -0.223 NA
ATOM      8  C   UNL     1     108.251  40.495  -1.191  0.00  0.00    +0.220 A 
ATOM      9  N   UNL     1     107.107  40.600  -1.968  0.00  0.00    -0.283 N 
ATOM     36  H   UNL     1     106.932  41.454  -2.496  0.00  0.00    +0.155 HD
ATOM     37  N   UNL     1     109.107  41.538  -1.180  0.00  0.00    -0.214 NA
BRANCH   4   3
ATOM      1  C   UNL     1     113.296  43.968  -0.099  0.00  0.00    +0.020 A 
ATOM      2  C   UNL     1     112.500  42.767  -0.001  0.00  0.00    +0.013 A 
ATOM      3  C   UNL     1     111.139  42.731  -0.520  0.00  0.00    +0.019 A 
ATOM     38  C   UNL     1     110.609  43.936  -1.138  0.00  0.00    +0.120 A 
ATOM     39  N   UNL     1     111.398  45.079  -1.218  0.00  0.00    -0.263 NA
ATOM     40  C   UNL     1     112.709  45.126  -0.720  0.00  0.00    +0.111 A 
ENDBRANCH   4   3
ENDBRANCH  10   9
BRANCH  12  13
ATOM     13  N   UNL     1     103.621  37.810   0.228  0.00  0.00    -0.281 N 
ATOM     14  C   UNL     1     103.582  38.418   1.473  0.00  0.00    +0.248 C 
ATOM     30  O   UNL     1     104.408  39.224   1.875  0.00  0.00    -0.270 OA
ATOM     31  H   UNL     1     102.991  37.020   0.095  0.00  0.00    +0.155 HD
BRANCH  14  15
ATOM     15  C   UNL     1     102.473  38.069   2.412  0.00  0.00    +0.037 A 
ATOM     16  C   UNL     1     101.286  38.918   2.536  0.00  0.00    +0.013 A 
ATOM     17  C   UNL     1     100.239  38.567   3.462  0.00  0.00    +0.005 A 
ATOM     18  C   UNL     1     100.374  37.358   4.271  0.00  0.00    -0.033 A 
ATOM     28  C   UNL     1     101.560  36.531   4.124  0.00  0.00    +0.005 A 
ATOM     29  C   UNL     1     102.589  36.872   3.218  0.00  0.00    +0.013 A 
BRANCH  18  19
ATOM     19  C   UNL     1      99.316  36.918   5.300  0.00  0.00    +0.119 C 
BRANCH  19  20
ATOM     20  N   UNL     1      99.745  36.831   6.728  0.00  0.00    -0.302 NA
ATOM     21  C   UNL     1      98.815  35.938   7.554  0.00  0.00    +0.066 C 
ATOM     22  C   UNL     1      99.292  35.841   9.040  0.00  0.00    -0.064 C 
ATOM     23  N   UNL     1      99.369  37.245   9.641  0.00  0.00    +0.379 N 
ATOM     24  C   UNL     1      99.761  37.153  11.055  0.00  0.00    -0.096 C 
ATOM     25  H   UNL     1      98.346  37.687   9.602  0.00  0.00    -0.082 HD
ATOM     26  C   UNL     1     100.290  38.141   8.824  0.00  0.00    -0.064 C 
ATOM     27  C   UNL     1      99.824  38.207   7.343  0.00  0.00    +0.066 C 
ENDBRANCH  19  20
ENDBRANCH  18  19
ENDBRANCH  14  15
ENDBRANCH  12  13
TORSDOF 6
ENDMDL
MODEL 5
REMARK VINA RESULT:      -8.7     18.886     20.663
REMARK  Name = C:\Users\Docking\Desktop\test protocol\1iep_ligandH.pdb
REMARK  8 active torsions:
REMARK  status: ('A' for Active; 'I' for Inactive)
REMARK    1  A    between atoms: _5  and  _11
REMARK    2  A    between atoms: _19  and  _21
REMARK    3  A    between atoms: _22  and  _66
REMARK    4  A    between atoms: _27  and  _30
REMARK    5  A    between atoms: _32  and  _33
REMARK    6  A    between atoms: _38  and  _43
REMARK    7  A    between atoms: _43  and  _46
REMARK    8  A    between atoms: _53  and  _55
REMARK                            x       y       z     vdW  Elec       q    Type
REMARK                         _______ _______ _______ _____ _____    ______ ____
ROOT
ATOM     10  C   UNL     1     113.843  18.399   6.649  0.00  0.00    +0.038 A 
ATOM     11  C   UNL     1     112.726  18.764   5.854  0.00  0.00    +0.047 A 
ATOM     12  C   UNL     1     111.641  17.828   5.606  0.00  0.00    +0.035 A 
ATOM     32  C   UNL     1     111.724  16.528   6.185  0.00  0.00    +0.024 A 
ATOM     33  C   UNL     1     112.852  16.140   6.995  0.00  0.00    +0.007 A 
ATOM     34  C   UNL     1     113.927  17.059   7.241  0.00  0.00    -0.029 A 
ATOM     35  C   UNL     1     115.115  16.586   8.112  0.00  0.00    +0.045 C 
ENDROOT
BRANCH  10   9
ATOM      4  C   UNL     1     118.192  20.205   5.720  0.00  0.00    +0.077 A 
ATOM      5  C   UNL     1     118.479  19.176   4.762  0.00  0.00    +0.048 A 
ATOM      6  C   UNL     1     117.485  18.197   4.543  0.00  0.00    +0.116 A 
ATOM      7  N   UNL     1     116.294  18.253   5.236  0.00  0.00    -0.223 NA
ATOM      8  C   UNL     1     116.049  19.258   6.153  0.00  0.00    +0.220 A 
ATOM      9  N   UNL     1     114.856  19.338   6.855  0.00  0.00    -0.283 N 
ATOM     36  H   UNL     1     114.717  20.090   7.529  0.00  0.00    +0.155 HD
ATOM     37  N   UNL     1     116.984  20.204   6.382  0.00  0.00    -0.214 NA
BRANCH   4   3
ATOM      1  C   UNL     1     120.137  23.598   5.677  0.00  0.00    +0.020 A 
ATOM      2  C   UNL     1     119.202  22.560   5.308  0.00  0.00    +0.013 A 
ATOM      3  C   UNL     1     119.141  21.312   6.058  0.00  0.00    +0.019 A 
ATOM     38  C   UNL     1     120.045  21.145   7.186  0.00  0.00    +0.120 A 
ATOM     39  N   UNL     1     120.936  22.162   7.517  0.00  0.00    -0.263 NA
ATOM     40  C   UNL     1     121.006  23.366   6.801  0.00  0.00    +0.111 A 
ENDBRANCH   4   3
ENDBRANCH  10   9
BRANCH  12  13
ATOM     13  N   UNL     1     110.486  18.139   4.801  0.00  0.00    -0.281 N 
ATOM     14  C   UNL     1     110.156  17.633   3.554  0.00  0.00    +0.248 C 
ATOM     30  O   UNL     1     110.917  16.992   2.845  0.00  0.00    -0.270 OA
ATOM     31  H   UNL     1     109.834  18.815   5.198  0.00  0.00    +0.155 HD
BRANCH  14  15
ATOM     15  C   UNL     1     108.787  17.888   3.011  0.00  0.00    +0.037 A 
ATOM     16  C   UNL     1     107.804  18.671   3.765  0.00  0.00    +0.013 A 
ATOM     17  C   UNL     1     106.485  18.888   3.226  0.00  0.00    +0.005 A 
ATOM     18  C   UNL     1     106.142  18.321   1.924  0.00  0.00    -0.033 A 
ATOM     28  C   UNL     1     107.137  17.553   1.195  0.00  0.00    +0.005 A 
ATOM     29  C   UNL     1     108.431  17.338   1.721  0.00  0.00    +0.013 A 
BRANCH  18  19
ATOM     19  C   UNL     1     104.751  18.484   1.281  0.00  0.00    +0.119 C 
BRANCH  19  20
ATOM     20  N   UNL     1     103.880  19.579   1.804  0.00  0.00    -0.302 NA
ATOM     21  C   UNL     1     102.773  19.046   2.717  0.00  0.00    +0.066 C 
ATOM     22  C   UNL     1     101.885  20.206   3.273  0.00  0.00    -0.064 C 
ATOM     23  N   UNL     1     101.291  20.995   2.105  0.00  0.00    +0.379 N 
ATOM     24  C   UNL     1     100.410  22.051   2.624  0.00  0.00    -0.096 C 
ATOM     25  H   UNL     1     100.663  20.293   1.508  0.00  0.00    -0.082 HD
ATOM     26  C   UNL     1     102.385  21.527   1.190  0.00  0.00    -0.064 C 
ATOM     27  C   UNL     1     103.280  20.368   0.667  0.00  0.00    +0.066 C 
ENDBRANCH  19  20
ENDBRANCH  18  19
ENDBRANCH  14  15
ENDBRANCH  12  13
TORSDOF 6
ENDMDL
