MODEL 1
REMARK VINA RESULT:     -10.0      0.000      0.000
REMARK  Name = C:\Users\Docking\Desktop\test protocol\1iep_ligandH.pdb
REMARK  8 active torsions:
REMARK  status: ('A' for Active; 'I' for Inactive)
REMARK    1  A    between atoms: _5  and  _11
REMARK    2  A    between atoms: _19  and  _21
REMARK    3  A    between atoms: _22  and  _66
REMARK    4  A    between atoms: _27  and  _30
REMARK    5  A    between atoms: _32  and  _33
REMARK    6  A    between atoms: _38  and  _43
REMARK    7  A    between atoms: _43  and  _46
REMARK    8  A    between atoms: _53  and  _55
REMARK                            x       y       z     vdW  Elec       q    Type
REMARK                         _______ _______ _______ _____ _____    ______ ____
ROOT
ATOM     10  C   UNL     1      16.683  63.335  10.103  0.00  0.00    +0.038 A 
ATOM     11  C   UNL     1      16.631  64.753  10.094  0.00  0.00    +0.047 A 
ATOM     12  C   UNL     1      17.770  65.545   9.654  0.00  0.00    +0.035 A 
ATOM     32  C   UNL     1      18.944  64.860   9.227  0.00  0.00    +0.024 A 
ATOM     33  C   UNL     1      19.015  63.420   9.230  0.00  0.00    +0.007 A 
ATOM     34  C   UNL     1      17.896  62.633   9.666  0.00  0.00    -0.029 A 
ATOM     35  C   UNL     1      18.030  61.093   9.655  0.00  0.00    +0.045 C 
ENDROOT
BRANCH  10   9
ATOM      4  C   UNL     1      14.217  60.954  13.462  0.00  0.00    +0.077 A 
ATOM      5  C   UNL     1      15.264  61.116  14.429  0.00  0.00    +0.048 A 
ATOM      6  C   UNL     1      16.423  61.812  14.020  0.00  0.00    +0.116 A 
ATOM      7  N   UNL     1      16.518  62.305  12.737  0.00  0.00    -0.223 NA
ATOM      8  C   UNL     1      15.491  62.130  11.828  0.00  0.00    +0.220 A 
ATOM      9  N   UNL     1      15.561  62.625  10.535  0.00  0.00    -0.283 N 
ATOM     36  H   UNL     1      14.785  62.469   9.892  0.00  0.00    +0.155 HD
ATOM     37  N   UNL     1      14.373  61.468  12.194  0.00  0.00    -0.214 NA
BRANCH   4   3
ATOM      1  C   UNL     1      11.317  59.064  15.284  0.00  0.00    +0.020 A 
ATOM      2  C   UNL     1      12.574  59.741  15.065  0.00  0.00    +0.013 A 
ATOM      3  C   UNL     1      12.929  60.245  13.744  0.00  0.00    +0.019 A 
ATOM     38  C   UNL     1      11.981  60.046  12.658  0.00  0.00    +0.120 A 
ATOM     39  N   UNL     1      10.778  59.389  12.898  0.00  0.00    -0.263 NA
ATOM     40  C   UNL     1      10.427  58.898  14.165  0.00  0.00    +0.111 A 
ENDBRANCH   4   3
ENDBRANCH  10   9
BRANCH  12  13
ATOM     13  N   UNL     1      17.778  66.986   9.630  0.00  0.00    -0.281 N 
ATOM     14  C   UNL     1      17.704  67.820   8.527  0.00  0.00    +0.248 C 
ATOM     30  O   UNL     1      17.834  67.449   7.370  0.00  0.00    -0.270 OA
ATOM     31  H   UNL     1      17.847  67.448  10.537  0.00  0.00    +0.155 HD
BRANCH  14  15
ATOM     15  C   UNL     1      17.464  69.280   8.740  0.00  0.00    +0.037 A 
ATOM     16  C   UNL     1      16.236  69.764   9.375  0.00  0.00    +0.013 A 
ATOM     17  C   UNL     1      16.022  71.178   9.553  0.00  0.00    +0.005 A 
ATOM     18  C   UNL     1      17.042  72.120   9.096  0.00  0.00    -0.033 A 
ATOM     28  C   UNL     1      18.253  71.612   8.474  0.00  0.00    +0.005 A 
ATOM     29  C   UNL     1      18.466  70.227   8.297  0.00  0.00    +0.013 A 
BRANCH  18  19
ATOM     19  C   UNL     1      16.888  73.647   9.227  0.00  0.00    +0.119 C 
BRANCH  19  20
ATOM     20  N   UNL     1      17.202  74.254  10.554  0.00  0.00    -0.302 NA
ATOM     21  C   UNL     1      18.412  73.592  11.218  0.00  0.00    +0.066 C 
ATOM     22  C   UNL     1      18.740  74.255  12.596  0.00  0.00    -0.064 C 
ATOM     23  N   UNL     1      17.511  74.172  13.503  0.00  0.00    +0.379 N 
ATOM     24  C   UNL     1      17.834  74.742  14.819  0.00  0.00    -0.096 C 
ATOM     25  H   UNL     1      17.273  73.093  13.651  0.00  0.00    -0.082 HD
ATOM     26  C   UNL     1      16.302  74.826  12.850  0.00  0.00    -0.064 C 
ATOM     27  C   UNL     1      16.003  74.179  11.468  0.00  0.00    +0.066 C 
ENDBRANCH  19  20
ENDBRANCH  18  19
ENDBRANCH  14  15
ENDBRANCH  12  13
TORSDOF 6
ENDMDL
MODEL 2
REMARK VINA RESULT:      -9.5      1.630      2.228
REMARK  Name = C:\Users\Docking\Desktop\test protocol\1iep_ligandH.pdb
REMARK  8 active torsions:
REMARK  status: ('A' for Active; 'I' for Inactive)
REMARK    1  A    between atoms: _5  and  _11
REMARK    2  A    between atoms: _19  and  _21
REMARK    3  A    between atoms: _22  and  _66
REMARK    4  A    between atoms: _27  and  _30
REMARK    5  A    between atoms: _32  and  _33
REMARK    6  A    between atoms: _38  and  _43
REMARK    7  A    between atoms: _43  and  _46
REMARK    8  A    between atoms: _53  and  _55
REMARK                            x       y       z     vdW  Elec       q    Type
REMARK                         _______ _______ _______ _____ _____    ______ ____
ROOT
ATOM     10  C   UNL     1      15.992  63.558  10.220  0.00  0.00    +0.038 A 
ATOM     11  C   UNL     1      15.629  64.929  10.201  0.00  0.00    +0.047 A 
ATOM     12  C   UNL     1      16.578  65.953   9.796  0.00  0.00    +0.035 A 
ATOM     32  C   UNL     1      17.889  65.546   9.412  0.00  0.00    +0.024 A 
ATOM     33  C   UNL     1      18.275  64.157   9.426  0.00  0.00    +0.007 A 
ATOM     34  C   UNL     1      17.344  63.142   9.827  0.00  0.00    -0.029 A 
ATOM     35  C   UNL     1      17.815  61.669   9.829  0.00  0.00    +0.045 C 
ENDROOT
BRANCH  10   9
ATOM      4  C   UNL     1      13.897  60.803  13.545  0.00  0.00    +0.077 A 
ATOM      5  C   UNL     1      14.792  61.258  14.570  0.00  0.00    +0.048 A 
ATOM      6  C   UNL     1      15.781  62.196  14.199  0.00  0.00    +0.116 A 
ATOM      7  N   UNL     1      15.861  62.639  12.897  0.00  0.00    -0.223 NA
ATOM      8  C   UNL     1      14.984  62.178  11.932  0.00  0.00    +0.220 A 
ATOM      9  N   UNL     1      15.040  62.616  10.618  0.00  0.00    -0.283 N 
ATOM     36  H   UNL     1      14.380  62.247   9.934  0.00  0.00    +0.155 HD
ATOM     37  N   UNL     1      14.031  61.281  12.261  0.00  0.00    -0.214 NA
BRANCH   4   3
ATOM      1  C   UNL     1      11.063  58.166  12.985  0.00  0.00    +0.020 A 
ATOM      2  C   UNL     1      12.119  59.111  12.702  0.00  0.00    +0.013 A 
ATOM      3  C   UNL     1      12.797  59.815  13.782  0.00  0.00    +0.019 A 
ATOM     38  C   UNL     1      12.380  59.538  15.149  0.00  0.00    +0.120 A 
ATOM     39  N   UNL     1      11.359  58.625  15.391  0.00  0.00    -0.263 NA
ATOM     40  C   UNL     1      10.698  57.942  14.359  0.00  0.00    +0.111 A 
ENDBRANCH   4   3
ENDBRANCH  10   9
BRANCH  12  13
ATOM     13  N   UNL     1      16.269  67.361   9.765  0.00  0.00    -0.281 N 
ATOM     14  C   UNL     1      15.021  67.958   9.694  0.00  0.00    +0.248 C 
ATOM     30  O   UNL     1      13.985  67.364   9.430  0.00  0.00    -0.270 OA
ATOM     31  H   UNL     1      17.067  67.995   9.799  0.00  0.00    +0.155 HD
BRANCH  14  15
ATOM     15  C   UNL     1      14.908  69.428   9.938  0.00  0.00    +0.037 A 
ATOM     16  C   UNL     1      15.474  70.400   8.999  0.00  0.00    +0.013 A 
ATOM     17  C   UNL     1      15.366  71.812   9.267  0.00  0.00    +0.005 A 
ATOM     18  C   UNL     1      14.687  72.261  10.480  0.00  0.00    -0.033 A 
ATOM     28  C   UNL     1      14.131  71.275  11.392  0.00  0.00    +0.005 A 
ATOM     29  C   UNL     1      14.235  69.890  11.133  0.00  0.00    +0.013 A 
BRANCH  18  19
ATOM     19  C   UNL     1      14.544  73.747  10.857  0.00  0.00    +0.119 C 
BRANCH  19  20
ATOM     20  N   UNL     1      15.761  74.442  11.374  0.00  0.00    -0.302 NA
ATOM     21  C   UNL     1      16.523  75.170  10.263  0.00  0.00    +0.066 C 
ATOM     22  C   UNL     1      17.780  75.909  10.825  0.00  0.00    -0.064 C 
ATOM     23  N   UNL     1      18.687  74.901  11.533  0.00  0.00    +0.379 N 
ATOM     24  C   UNL     1      19.898  75.583  12.013  0.00  0.00    -0.096 C 
ATOM     25  H   UNL     1      19.002  74.143  10.780  0.00  0.00    -0.082 HD
ATOM     26  C   UNL     1      17.937  74.171  12.638  0.00  0.00    -0.064 C 
ATOM     27  C   UNL     1      16.673  73.464  12.073  0.00  0.00    +0.066 C 
ENDBRANCH  19  20
ENDBRANCH  18  19
ENDBRANCH  14  15
ENDBRANCH  12  13
TORSDOF 6
ENDMDL
MODEL 3
REMARK VINA RESULT:      -9.5      1.643      2.783
REMARK  Name = C:\Users\Docking\Desktop\test protocol\1iep_ligandH.pdb
REMARK  8 active torsions:
REMARK  status: ('A' for Active; 'I' for Inactive)
REMARK    1  A    between atoms: _5  and  _11
REMARK    2  A    between atoms: _19  and  _21
REMARK    3  A    between atoms: _22  and  _66
REMARK    4  A    between atoms: _27  and  _30
REMARK    5  A    between atoms: _32  and  _33
REMARK    6  A    between atoms: _38  and  _43
REMARK    7  A    between atoms: _43  and  _46
REMARK    8  A    between atoms: _53  and  _55
REMARK                            x       y       z     vdW  Elec       q    Type
REMARK                         _______ _______ _______ _____ _____    ______ ____
ROOT
ATOM     10  C   UNL     1      16.669  63.330  10.104  0.00  0.00    +0.038 A 
ATOM     11  C   UNL     1      16.612  64.747  10.089  0.00  0.00    +0.047 A 
ATOM     12  C   UNL     1      17.746  65.542   9.644  0.00  0.00    +0.035 A 
ATOM     32  C   UNL     1      18.923  64.859   9.218  0.00  0.00    +0.024 A 
ATOM     33  C   UNL     1      18.999  63.420   9.227  0.00  0.00    +0.007 A 
ATOM     34  C   UNL     1      17.884  62.631   9.668  0.00  0.00    -0.029 A 
ATOM     35  C   UNL     1      18.024  61.091   9.663  0.00  0.00    +0.045 C 
ENDROOT
BRANCH  10   9
ATOM      4  C   UNL     1      14.217  60.952  13.476  0.00  0.00    +0.077 A 
ATOM      5  C   UNL     1      15.265  61.122  14.441  0.00  0.00    +0.048 A 
ATOM      6  C   UNL     1      16.422  61.821  14.028  0.00  0.00    +0.116 A 
ATOM      7  N   UNL     1      16.512  62.309  12.742  0.00  0.00    -0.223 NA
ATOM      8  C   UNL     1      15.484  62.127  11.836  0.00  0.00    +0.220 A 
ATOM      9  N   UNL     1      15.551  62.617  10.541  0.00  0.00    -0.283 N 
ATOM     36  H   UNL     1      14.774  62.455   9.900  0.00  0.00    +0.155 HD
ATOM     37  N   UNL     1      14.370  61.462  12.206  0.00  0.00    -0.214 NA
BRANCH   4   3
ATOM      1  C   UNL     1      11.329  59.056  15.310  0.00  0.00    +0.020 A 
ATOM      2  C   UNL     1      12.583  59.738  15.086  0.00  0.00    +0.013 A 
ATOM      3  C   UNL     1      12.932  60.240  13.763  0.00  0.00    +0.019 A 
ATOM     38  C   UNL     1      11.983  60.035  12.680  0.00  0.00    +0.120 A 
ATOM     39  N   UNL     1      10.783  59.374  12.925  0.00  0.00    -0.263 NA
ATOM     40  C   UNL     1      10.437  58.885  14.193  0.00  0.00    +0.111 A 
ENDBRANCH   4   3
ENDBRANCH  10   9
BRANCH  12  13
ATOM     13  N   UNL     1      17.749  66.983   9.615  0.00  0.00    -0.281 N 
ATOM     14  C   UNL     1      17.567  67.813   8.521  0.00  0.00    +0.248 C 
ATOM     30  O   UNL     1      17.586  67.438   7.358  0.00  0.00    -0.270 OA
ATOM     31  H   UNL     1      17.904  67.448  10.509  0.00  0.00    +0.155 HD
BRANCH  14  15
ATOM     15  C   UNL     1      17.346  69.273   8.751  0.00  0.00    +0.037 A 
ATOM     16  C   UNL     1      18.405  70.252   8.495  0.00  0.00    +0.013 A 
ATOM     17  C   UNL     1      18.171  71.653   8.742  0.00  0.00    +0.005 A 
ATOM     18  C   UNL     1      16.869  72.083   9.247  0.00  0.00    -0.033 A 
ATOM     28  C   UNL     1      15.834  71.091   9.487  0.00  0.00    +0.005 A 
ATOM     29  C   UNL     1      16.060  69.718   9.247  0.00  0.00    +0.013 A 
BRANCH  18  19
ATOM     19  C   UNL     1      16.538  73.555   9.558  0.00  0.00    +0.119 C 
BRANCH  19  20
ATOM     20  N   UNL     1      16.738  74.548   8.461  0.00  0.00    -0.302 NA
ATOM     21  C   UNL     1      16.823  75.981   8.992  0.00  0.00    +0.066 C 
ATOM     22  C   UNL     1      17.055  77.005   7.834  0.00  0.00    -0.064 C 
ATOM     23  N   UNL     1      15.928  76.874   6.808  0.00  0.00    +0.379 N 
ATOM     24  C   UNL     1      16.112  77.875   5.747  0.00  0.00    -0.096 C 
ATOM     25  H   UNL     1      14.970  77.104   7.328  0.00  0.00    -0.082 HD
ATOM     26  C   UNL     1      15.835  75.451   6.276  0.00  0.00    -0.064 C 
ATOM     27  C   UNL     1      15.634  74.439   7.439  0.00  0.00    +0.066 C 
ENDBRANCH  19  20
ENDBRANCH  18  19
ENDBRANCH  14  15
ENDBRANCH  12  13
TORSDOF 6
ENDMDL
MODEL 4
REMARK VINA RESULT:      -9.0      4.172     10.773
REMARK  Name = C:\Users\Docking\Desktop\test protocol\1iep_ligandH.pdb
REMARK  8 active torsions:
REMARK  status: ('A' for Active; 'I' for Inactive)
REMARK    1  A    between atoms: _5  and  _11
REMARK    2  A    between atoms: _19  and  _21
REMARK    3  A    between atoms: _22  and  _66
REMARK    4  A    between atoms: _27  and  _30
REMARK    5  A    between atoms: _32  and  _33
REMARK    6  A    between atoms: _38  and  _43
REMARK    7  A    between atoms: _43  and  _46
REMARK    8  A    between atoms: _53  and  _55
REMARK                            x       y       z     vdW  Elec       q    Type
REMARK                         _______ _______ _______ _____ _____    ______ ____
ROOT
ATOM     10  C   UNL     1      14.848  68.046   9.090  0.00  0.00    +0.038 A 
ATOM     11  C   UNL     1      14.873  67.000  10.048  0.00  0.00    +0.047 A 
ATOM     12  C   UNL     1      16.025  66.120  10.172  0.00  0.00    +0.035 A 
ATOM     32  C   UNL     1      17.136  66.335   9.305  0.00  0.00    +0.024 A 
ATOM     33  C   UNL     1      17.127  67.393   8.325  0.00  0.00    +0.007 A 
ATOM     34  C   UNL     1      15.993  68.263   8.197  0.00  0.00    -0.029 A 
ATOM     35  C   UNL     1      16.036  69.376   7.124  0.00  0.00    +0.045 C 
ENDROOT
BRANCH  10   9
ATOM      4  C   UNL     1      12.187  71.743  10.602  0.00  0.00    +0.077 A 
ATOM      5  C   UNL     1      13.117  72.061  11.647  0.00  0.00    +0.048 A 
ATOM      6  C   UNL     1      14.263  71.245  11.767  0.00  0.00    +0.116 A 
ATOM      7  N   UNL     1      14.456  70.191  10.899  0.00  0.00    -0.223 NA
ATOM      8  C   UNL     1      13.539  69.911   9.903  0.00  0.00    +0.220 A 
ATOM      9  N   UNL     1      13.717  68.861   9.015  0.00  0.00    -0.283 N 
ATOM     36  H   UNL     1      13.014  68.683   8.298  0.00  0.00    +0.155 HD
ATOM     37  N   UNL     1      12.435  70.675   9.769  0.00  0.00    -0.214 NA
BRANCH   4   3
ATOM      1  C   UNL     1       9.132  74.149  11.026  0.00  0.00    +0.020 A 
ATOM      2  C   UNL     1      10.347  73.426  11.323  0.00  0.00    +0.013 A 
ATOM      3  C   UNL     1      10.930  72.515  10.346  0.00  0.00    +0.019 A 
ATOM     38  C   UNL     1      10.253  72.357   9.068  0.00  0.00    +0.120 A 
ATOM     39  N   UNL     1       9.083  73.064   8.810  0.00  0.00    -0.263 NA
ATOM     40  C   UNL     1       8.512  73.942   9.743  0.00  0.00    +0.111 A 
ENDBRANCH   4   3
ENDBRANCH  10   9
BRANCH  12  13
ATOM     13  N   UNL     1      16.103  65.037  11.120  0.00  0.00    -0.281 N 
ATOM     14  C   UNL     1      15.938  63.682  10.881  0.00  0.00    +0.248 C 
ATOM     30  O   UNL     1      15.484  63.213   9.849  0.00  0.00    -0.270 OA
ATOM     31  H   UNL     1      16.305  65.301  12.085  0.00  0.00    +0.155 HD
BRANCH  14  15
ATOM     15  C   UNL     1      16.319  62.709  11.950  0.00  0.00    +0.037 A 
ATOM     16  C   UNL     1      15.629  62.690  13.242  0.00  0.00    +0.013 A 
ATOM     17  C   UNL     1      16.028  61.753  14.262  0.00  0.00    +0.005 A 
ATOM     18  C   UNL     1      17.122  60.824  13.991  0.00  0.00    -0.033 A 
ATOM     28  C   UNL     1      17.786  60.860  12.699  0.00  0.00    +0.005 A 
ATOM     29  C   UNL     1      17.399  61.779  11.698  0.00  0.00    +0.013 A 
BRANCH  18  19
ATOM     19  C   UNL     1      17.629  59.803  15.028  0.00  0.00    +0.119 C 
BRANCH  19  20
ATOM     20  N   UNL     1      18.308  60.343  16.244  0.00  0.00    -0.302 NA
ATOM     21  C   UNL     1      17.305  60.785  17.313  0.00  0.00    +0.066 C 
ATOM     22  C   UNL     1      18.033  61.326  18.587  0.00  0.00    -0.064 C 
ATOM     23  N   UNL     1      18.950  62.485  18.193  0.00  0.00    +0.379 N 
ATOM     24  C   UNL     1      19.592  63.033  19.397  0.00  0.00    -0.096 C 
ATOM     25  H   UNL     1      18.313  63.287  17.754  0.00  0.00    -0.082 HD
ATOM     26  C   UNL     1      19.949  62.054  17.128  0.00  0.00    -0.064 C 
ATOM     27  C   UNL     1      19.216  61.491  15.878  0.00  0.00    +0.066 C 
ENDBRANCH  19  20
ENDBRANCH  18  19
ENDBRANCH  14  15
ENDBRANCH  12  13
TORSDOF 6
ENDMDL
MODEL 5
REMARK VINA RESULT:      -8.9      2.311      2.988
REMARK  Name = C:\Users\Docking\Desktop\test protocol\1iep_ligandH.pdb
REMARK  8 active torsions:
REMARK  status: ('A' for Active; 'I' for Inactive)
REMARK    1  A    between atoms: _5  and  _11
REMARK    2  A    between atoms: _19  and  _21
REMARK    3  A    between atoms: _22  and  _66
REMARK    4  A    between atoms: _27  and  _30
REMARK    5  A    between atoms: _32  and  _33
REMARK    6  A    between atoms: _38  and  _43
REMARK    7  A    between atoms: _43  and  _46
REMARK    8  A    between atoms: _53  and  _55
REMARK                            x       y       z     vdW  Elec       q    Type
REMARK                         _______ _______ _______ _____ _____    ______ ____
ROOT
ATOM     10  C   UNL     1      16.014  63.572  10.240  0.00  0.00    +0.038 A 
ATOM     11  C   UNL     1      15.664  64.946  10.217  0.00  0.00    +0.047 A 
ATOM     12  C   UNL     1      16.619  65.959   9.795  0.00  0.00    +0.035 A 
ATOM     32  C   UNL     1      17.921  65.535   9.398  0.00  0.00    +0.024 A 
ATOM     33  C   UNL     1      18.294  64.143   9.416  0.00  0.00    +0.007 A 
ATOM     34  C   UNL     1      17.357  63.140   9.834  0.00  0.00    -0.029 A 
ATOM     35  C   UNL     1      17.813  61.662   9.840  0.00  0.00    +0.045 C 
ENDROOT
BRANCH  10   9
ATOM      4  C   UNL     1      13.972  60.809  13.592  0.00  0.00    +0.077 A 
ATOM      5  C   UNL     1      14.906  61.233  14.595  0.00  0.00    +0.048 A 
ATOM      6  C   UNL     1      15.901  62.158  14.205  0.00  0.00    +0.116 A 
ATOM      7  N   UNL     1      15.948  62.618  12.907  0.00  0.00    -0.223 NA
ATOM      8  C   UNL     1      15.033  62.187  11.964  0.00  0.00    +0.220 A 
ATOM      9  N   UNL     1      15.058  62.642  10.655  0.00  0.00    -0.283 N 
ATOM     36  H   UNL     1      14.370  62.294   9.987  0.00  0.00    +0.155 HD
ATOM     37  N   UNL     1      14.074  61.303  12.310  0.00  0.00    -0.214 NA
BRANCH   4   3
ATOM      1  C   UNL     1      11.322  58.558  15.384  0.00  0.00    +0.020 A 
ATOM      2  C   UNL     1      12.398  59.502  15.190  0.00  0.00    +0.013 A 
ATOM      3  C   UNL     1      12.861  59.838  13.849  0.00  0.00    +0.019 A 
ATOM     38  C   UNL     1      12.208  59.198  12.718  0.00  0.00    +0.120 A 
ATOM     39  N   UNL     1      11.174  58.292  12.936  0.00  0.00    -0.263 NA
ATOM     40  C   UNL     1      10.721  57.959  14.221  0.00  0.00    +0.111 A 
ENDBRANCH   4   3
ENDBRANCH  10   9
BRANCH  12  13
ATOM     13  N   UNL     1      16.324  67.369   9.759  0.00  0.00    -0.281 N 
ATOM     14  C   UNL     1      15.082  67.977   9.666  0.00  0.00    +0.248 C 
ATOM     30  O   UNL     1      14.047  67.394   9.383  0.00  0.00    -0.270 OA
ATOM     31  H   UNL     1      17.127  67.996   9.808  0.00  0.00    +0.155 HD
BRANCH  14  15
ATOM     15  C   UNL     1      14.979  69.449   9.908  0.00  0.00    +0.037 A 
ATOM     16  C   UNL     1      15.618  70.414   9.010  0.00  0.00    +0.013 A 
ATOM     17  C   UNL     1      15.518  71.827   9.277  0.00  0.00    +0.005 A 
ATOM     18  C   UNL     1      14.772  72.283  10.447  0.00  0.00    -0.033 A 
ATOM     28  C   UNL     1      14.143  71.304  11.319  0.00  0.00    +0.005 A 
ATOM     29  C   UNL     1      14.241  69.919  11.061  0.00  0.00    +0.013 A 
BRANCH  18  19
ATOM     19  C   UNL     1      14.630  73.771  10.821  0.00  0.00    +0.119 C 
BRANCH  19  20
ATOM     20  N   UNL     1      13.576  74.128  11.816  0.00  0.00    -0.302 NA
ATOM     21  C   UNL     1      12.382  74.829  11.160  0.00  0.00    +0.066 C 
ATOM     22  C   UNL     1      11.278  75.175  12.212  0.00  0.00    -0.064 C 
ATOM     23  N   UNL     1      11.882  76.050  13.311  0.00  0.00    +0.379 N 
ATOM     24  C   UNL     1      10.833  76.426  14.271  0.00  0.00    -0.096 C 
ATOM     25  H   UNL     1      12.254  76.986  12.833  0.00  0.00    -0.082 HD
ATOM     26  C   UNL     1      13.072  75.363  13.967  0.00  0.00    -0.064 C 
ATOM     27  C   UNL     1      14.150  74.996  12.909  0.00  0.00    +0.066 C 
ENDBRANCH  19  20
ENDBRANCH  18  19
ENDBRANCH  14  15
ENDBRANCH  12  13
TORSDOF 6
ENDMDL
