MODEL 1
REMARK VINA RESULT:      -8.2      0.000      0.000
REMARK  Name = C:\Users\Docking\Desktop\test protocol\1iep_ligandH.pdb
REMARK  8 active torsions:
REMARK  status: ('A' for Active; 'I' for Inactive)
REMARK    1  A    between atoms: _5  and  _11
REMARK    2  A    between atoms: _19  and  _21
REMARK    3  A    between atoms: _22  and  _66
REMARK    4  A    between atoms: _27  and  _30
REMARK    5  A    between atoms: _32  and  _33
REMARK    6  A    between atoms: _38  and  _43
REMARK    7  A    between atoms: _43  and  _46
REMARK    8  A    between atoms: _53  and  _55
REMARK                            x       y       z     vdW  Elec       q    Type
REMARK                         _______ _______ _______ _____ _____    ______ ____
ROOT
ATOM     10  C   UNL     1      68.646  53.715  17.538  0.00  0.00    +0.038 A 
ATOM     11  C   UNL     1      69.171  54.937  17.046  0.00  0.00    +0.047 A 
ATOM     12  C   UNL     1      69.164  56.141  17.862  0.00  0.00    +0.035 A 
ATOM     32  C   UNL     1      68.618  56.064  19.176  0.00  0.00    +0.024 A 
ATOM     33  C   UNL     1      68.080  54.830  19.692  0.00  0.00    +0.007 A 
ATOM     34  C   UNL     1      68.081  53.639  18.890  0.00  0.00    -0.029 A 
ATOM     35  C   UNL     1      67.485  52.346  19.492  0.00  0.00    +0.045 C 
ENDROOT
BRANCH  10   9
ATOM      4  C   UNL     1      67.120  51.207  13.740  0.00  0.00    +0.077 A 
ATOM      5  C   UNL     1      66.159  52.213  13.388  0.00  0.00    +0.048 A 
ATOM      6  C   UNL     1      66.084  53.357  14.215  0.00  0.00    +0.116 A 
ATOM      7  N   UNL     1      66.914  53.476  15.308  0.00  0.00    -0.223 NA
ATOM      8  C   UNL     1      67.828  52.487  15.621  0.00  0.00    +0.220 A 
ATOM      9  N   UNL     1      68.678  52.589  16.711  0.00  0.00    -0.283 N 
ATOM     36  H   UNL     1      69.334  51.835  16.912  0.00  0.00    +0.155 HD
ATOM     37  N   UNL     1      67.918  51.384  14.848  0.00  0.00    -0.214 NA
BRANCH   4   3
ATOM      1  C   UNL     1      66.517  48.114  11.423  0.00  0.00    +0.020 A 
ATOM      2  C   UNL     1      66.271  49.336  12.155  0.00  0.00    +0.013 A 
ATOM      3  C   UNL     1      67.320  49.943  12.964  0.00  0.00    +0.019 A 
ATOM     38  C   UNL     1      68.617  49.285  13.011  0.00  0.00    +0.120 A 
ATOM     39  N   UNL     1      68.824  48.108  12.298  0.00  0.00    -0.263 NA
ATOM     40  C   UNL     1      67.822  47.514  11.517  0.00  0.00    +0.111 A 
ENDBRANCH   4   3
ENDBRANCH  10   9
BRANCH  12  13
ATOM     13  N   UNL     1      69.676  57.413  17.413  0.00  0.00    -0.281 N 
ATOM     14  C   UNL     1      70.932  57.693  16.900  0.00  0.00    +0.248 C 
ATOM     30  O   UNL     1      71.884  56.928  16.949  0.00  0.00    -0.270 OA
ATOM     31  H   UNL     1      69.034  58.202  17.482  0.00  0.00    +0.155 HD
BRANCH  14  15
ATOM     15  C   UNL     1      71.168  59.019  16.252  0.00  0.00    +0.037 A 
ATOM     16  C   UNL     1      72.195  59.188  15.221  0.00  0.00    +0.013 A 
ATOM     17  C   UNL     1      72.414  60.482  14.625  0.00  0.00    +0.005 A 
ATOM     18  C   UNL     1      71.603  61.617  15.058  0.00  0.00    -0.033 A 
ATOM     28  C   UNL     1      70.588  61.420  16.079  0.00  0.00    +0.005 A 
ATOM     29  C   UNL     1      70.371  60.153  16.667  0.00  0.00    +0.013 A 
BRANCH  18  19
ATOM     19  C   UNL     1      71.782  63.038  14.492  0.00  0.00    +0.119 C 
BRANCH  19  20
ATOM     20  N   UNL     1      72.154  63.158  13.050  0.00  0.00    -0.302 NA
ATOM     21  C   UNL     1      72.917  64.453  12.759  0.00  0.00    +0.066 C 
ATOM     22  C   UNL     1      73.318  64.551  11.251  0.00  0.00    -0.064 C 
ATOM     23  N   UNL     1      72.060  64.458  10.385  0.00  0.00    +0.379 N 
ATOM     24  C   UNL     1      72.427  64.608   8.970  0.00  0.00    -0.096 C 
ATOM     25  H   UNL     1      71.399  65.313  10.656  0.00  0.00    -0.082 HD
ATOM     26  C   UNL     1      71.294  63.174  10.670  0.00  0.00    -0.064 C 
ATOM     27  C   UNL     1      70.926  63.072  12.177  0.00  0.00    +0.066 C 
ENDBRANCH  19  20
ENDBRANCH  18  19
ENDBRANCH  14  15
ENDBRANCH  12  13
TORSDOF 6
ENDMDL
MODEL 2
REMARK VINA RESULT:      -8.1     16.387     20.006
REMARK  Name = C:\Users\Docking\Desktop\test protocol\1iep_ligandH.pdb
REMARK  8 active torsions:
REMARK  status: ('A' for Active; 'I' for Inactive)
REMARK    1  A    between atoms: _5  and  _11
REMARK    2  A    between atoms: _19  and  _21
REMARK    3  A    between atoms: _22  and  _66
REMARK    4  A    between atoms: _27  and  _30
REMARK    5  A    between atoms: _32  and  _33
REMARK    6  A    between atoms: _38  and  _43
REMARK    7  A    between atoms: _43  and  _46
REMARK    8  A    between atoms: _53  and  _55
REMARK                            x       y       z     vdW  Elec       q    Type
REMARK                         _______ _______ _______ _____ _____    ______ ____
ROOT
ATOM     10  C   UNL     1      76.086  70.420   5.380  0.00  0.00    +0.038 A 
ATOM     11  C   UNL     1      74.713  70.101   5.221  0.00  0.00    +0.047 A 
ATOM     12  C   UNL     1      73.994  70.452   4.007  0.00  0.00    +0.035 A 
ATOM     32  C   UNL     1      74.705  71.126   2.972  0.00  0.00    +0.024 A 
ATOM     33  C   UNL     1      76.101  71.460   3.116  0.00  0.00    +0.007 A 
ATOM     34  C   UNL     1      76.815  71.118   4.313  0.00  0.00    -0.029 A 
ATOM     35  C   UNL     1      78.308  71.506   4.416  0.00  0.00    +0.045 C 
ENDROOT
BRANCH  10   9
ATOM      4  C   UNL     1      77.626  71.388   9.821  0.00  0.00    +0.077 A 
ATOM      5  C   UNL     1      77.136  72.734   9.762  0.00  0.00    +0.048 A 
ATOM      6  C   UNL     1      76.500  73.141   8.568  0.00  0.00    +0.116 A 
ATOM      7  N   UNL     1      76.369  72.258   7.518  0.00  0.00    -0.223 NA
ATOM      8  C   UNL     1      76.855  70.967   7.607  0.00  0.00    +0.220 A 
ATOM      9  N   UNL     1      76.727  70.059   6.567  0.00  0.00    -0.283 N 
ATOM     36  H   UNL     1      77.106  69.118   6.669  0.00  0.00    +0.155 HD
ATOM     37  N   UNL     1      77.468  70.554   8.737  0.00  0.00    -0.214 NA
BRANCH   4   3
ATOM      1  C   UNL     1      79.940  70.943  12.944  0.00  0.00    +0.020 A 
ATOM      2  C   UNL     1      79.301  71.549  11.798  0.00  0.00    +0.013 A 
ATOM      3  C   UNL     1      78.318  70.809  11.016  0.00  0.00    +0.019 A 
ATOM     38  C   UNL     1      78.002  69.448  11.424  0.00  0.00    +0.120 A 
ATOM     39  N   UNL     1      78.635  68.891  12.531  0.00  0.00    -0.263 NA
ATOM     40  C   UNL     1      79.583  69.593  13.290  0.00  0.00    +0.111 A 
ENDBRANCH   4   3
ENDBRANCH  10   9
BRANCH  12  13
ATOM     13  N   UNL     1      72.598  70.161   3.793  0.00  0.00    -0.281 N 
ATOM     14  C   UNL     1      72.042  69.022   3.234  0.00  0.00    +0.248 C 
ATOM     30  O   UNL     1      72.676  68.165   2.635  0.00  0.00    -0.270 OA
ATOM     31  H   UNL     1      71.940  70.882   4.089  0.00  0.00    +0.155 HD
BRANCH  14  15
ATOM     15  C   UNL     1      70.566  68.810   3.345  0.00  0.00    +0.037 A 
ATOM     16  C   UNL     1      69.994  67.997   4.420  0.00  0.00    +0.013 A 
ATOM     17  C   UNL     1      68.569  67.794   4.494  0.00  0.00    +0.005 A 
ATOM     18  C   UNL     1      67.705  68.409   3.488  0.00  0.00    -0.033 A 
ATOM     28  C   UNL     1      68.299  69.215   2.435  0.00  0.00    +0.005 A 
ATOM     29  C   UNL     1      69.696  69.415   2.359  0.00  0.00    +0.013 A 
BRANCH  18  19
ATOM     19  C   UNL     1      66.176  68.229   3.477  0.00  0.00    +0.119 C 
BRANCH  19  20
ATOM     20  N   UNL     1      65.479  68.381   2.164  0.00  0.00    -0.302 NA
ATOM     21  C   UNL     1      63.962  68.219   2.297  0.00  0.00    +0.066 C 
ATOM     22  C   UNL     1      63.248  68.403   0.918  0.00  0.00    -0.064 C 
ATOM     23  N   UNL     1      63.815  67.397  -0.085  0.00  0.00    +0.379 N 
ATOM     24  C   UNL     1      63.104  67.528  -1.366  0.00  0.00    -0.096 C 
ATOM     25  H   UNL     1      63.613  66.374   0.311  0.00  0.00    -0.082 HD
ATOM     26  C   UNL     1      65.323  67.549  -0.221  0.00  0.00    -0.064 C 
ATOM     27  C   UNL     1      66.021  67.394   1.159  0.00  0.00    +0.066 C 
ENDBRANCH  19  20
ENDBRANCH  18  19
ENDBRANCH  14  15
ENDBRANCH  12  13
TORSDOF 6
ENDMDL
MODEL 3
REMARK VINA RESULT:      -8.0      1.443      2.196
REMARK  Name = C:\Users\Docking\Desktop\test protocol\1iep_ligandH.pdb
REMARK  8 active torsions:
REMARK  status: ('A' for Active; 'I' for Inactive)
REMARK    1  A    between atoms: _5  and  _11
REMARK    2  A    between atoms: _19  and  _21
REMARK    3  A    between atoms: _22  and  _66
REMARK    4  A    between atoms: _27  and  _30
REMARK    5  A    between atoms: _32  and  _33
REMARK    6  A    between atoms: _38  and  _43
REMARK    7  A    between atoms: _43  and  _46
REMARK    8  A    between atoms: _53  and  _55
REMARK                            x       y       z     vdW  Elec       q    Type
REMARK                         _______ _______ _______ _____ _____    ______ ____
ROOT
ATOM     10  C   UNL     1      68.612  53.627  17.305  0.00  0.00    +0.038 A 
ATOM     11  C   UNL     1      69.177  54.818  16.780  0.00  0.00    +0.047 A 
ATOM     12  C   UNL     1      69.163  56.056  17.543  0.00  0.00    +0.035 A 
ATOM     32  C   UNL     1      68.569  56.045  18.839  0.00  0.00    +0.024 A 
ATOM     33  C   UNL     1      67.990  54.844  19.387  0.00  0.00    +0.007 A 
ATOM     34  C   UNL     1      67.998  53.620  18.638  0.00  0.00    -0.029 A 
ATOM     35  C   UNL     1      67.357  52.364  19.272  0.00  0.00    +0.045 C 
ENDROOT
BRANCH  10   9
ATOM      4  C   UNL     1      67.135  50.960  13.597  0.00  0.00    +0.077 A 
ATOM      5  C   UNL     1      66.183  51.952  13.187  0.00  0.00    +0.048 A 
ATOM      6  C   UNL     1      66.100  53.131  13.961  0.00  0.00    +0.116 A 
ATOM      7  N   UNL     1      66.913  53.295  15.061  0.00  0.00    -0.223 NA
ATOM      8  C   UNL     1      67.820  52.318  15.431  0.00  0.00    +0.220 A 
ATOM      9  N   UNL     1      68.653  52.466  16.529  0.00  0.00    -0.283 N 
ATOM     36  H   UNL     1      69.303  51.719  16.773  0.00  0.00    +0.155 HD
ATOM     37  N   UNL     1      67.917  51.183  14.708  0.00  0.00    -0.214 NA
BRANCH   4   3
ATOM      1  C   UNL     1      66.685  47.915  11.184  0.00  0.00    +0.020 A 
ATOM      2  C   UNL     1      66.438  49.175  11.847  0.00  0.00    +0.013 A 
ATOM      3  C   UNL     1      67.343  49.663  12.879  0.00  0.00    +0.019 A 
ATOM     38  C   UNL     1      68.499  48.846  13.220  0.00  0.00    +0.120 A 
ATOM     39  N   UNL     1      68.710  47.637  12.566  0.00  0.00    -0.263 NA
ATOM     40  C   UNL     1      67.845  47.156  11.572  0.00  0.00    +0.111 A 
ENDBRANCH   4   3
ENDBRANCH  10   9
BRANCH  12  13
ATOM     13  N   UNL     1      69.714  57.298  17.060  0.00  0.00    -0.281 N 
ATOM     14  C   UNL     1      71.041  57.595  16.794  0.00  0.00    +0.248 C 
ATOM     30  O   UNL     1      71.986  56.901  17.137  0.00  0.00    -0.270 OA
ATOM     31  H   UNL     1      69.044  58.049  16.893  0.00  0.00    +0.155 HD
BRANCH  14  15
ATOM     15  C   UNL     1      71.364  58.852  16.053  0.00  0.00    +0.037 A 
ATOM     16  C   UNL     1      70.680  60.111  16.357  0.00  0.00    +0.013 A 
ATOM     17  C   UNL     1      70.999  61.305  15.615  0.00  0.00    +0.005 A 
ATOM     18  C   UNL     1      72.010  61.245  14.562  0.00  0.00    -0.033 A 
ATOM     28  C   UNL     1      72.677  59.984  14.285  0.00  0.00    +0.005 A 
ATOM     29  C   UNL     1      72.366  58.812  15.009  0.00  0.00    +0.013 A 
BRANCH  18  19
ATOM     19  C   UNL     1      72.399  62.465  13.706  0.00  0.00    +0.119 C 
BRANCH  19  20
ATOM     20  N   UNL     1      72.777  63.716  14.429  0.00  0.00    -0.302 NA
ATOM     21  C   UNL     1      71.635  64.736  14.449  0.00  0.00    +0.066 C 
ATOM     22  C   UNL     1      72.039  66.029  15.229  0.00  0.00    -0.064 C 
ATOM     23  N   UNL     1      73.293  66.632  14.594  0.00  0.00    +0.379 N 
ATOM     24  C   UNL     1      73.643  67.880  15.289  0.00  0.00    -0.096 C 
ATOM     25  H   UNL     1      73.047  66.891  13.538  0.00  0.00    -0.082 HD
ATOM     26  C   UNL     1      74.433  65.624  14.568  0.00  0.00    -0.064 C 
ATOM     27  C   UNL     1      74.011  64.331  13.816  0.00  0.00    +0.066 C 
ENDBRANCH  19  20
ENDBRANCH  18  19
ENDBRANCH  14  15
ENDBRANCH  12  13
TORSDOF 6
ENDMDL
MODEL 4
REMARK VINA RESULT:      -7.8      5.940     10.751
REMARK  Name = C:\Users\Docking\Desktop\test protocol\1iep_ligandH.pdb
REMARK  8 active torsions:
REMARK  status: ('A' for Active; 'I' for Inactive)
REMARK    1  A    between atoms: _5  and  _11
REMARK    2  A    between atoms: _19  and  _21
REMARK    3  A    between atoms: _22  and  _66
REMARK    4  A    between atoms: _27  and  _30
REMARK    5  A    between atoms: _32  and  _33
REMARK    6  A    between atoms: _38  and  _43
REMARK    7  A    between atoms: _43  and  _46
REMARK    8  A    between atoms: _53  and  _55
REMARK                            x       y       z     vdW  Elec       q    Type
REMARK                         _______ _______ _______ _____ _____    ______ ____
ROOT
ATOM     10  C   UNL     1      69.343  53.934  18.846  0.00  0.00    +0.038 A 
ATOM     11  C   UNL     1      68.508  54.002  19.990  0.00  0.00    +0.047 A 
ATOM     12  C   UNL     1      68.743  54.986  21.036  0.00  0.00    +0.035 A 
ATOM     32  C   UNL     1      69.837  55.886  20.882  0.00  0.00    +0.024 A 
ATOM     33  C   UNL     1      70.697  55.830  19.726  0.00  0.00    +0.007 A 
ATOM     34  C   UNL     1      70.471  54.860  18.693  0.00  0.00    -0.029 A 
ATOM     35  C   UNL     1      71.429  54.841  17.479  0.00  0.00    +0.045 C 
ENDROOT
BRANCH  10   9
ATOM      4  C   UNL     1      67.286  52.521  14.746  0.00  0.00    +0.077 A 
ATOM      5  C   UNL     1      66.680  53.805  14.539  0.00  0.00    +0.048 A 
ATOM      6  C   UNL     1      66.916  54.799  15.515  0.00  0.00    +0.116 A 
ATOM      7  N   UNL     1      67.702  54.519  16.611  0.00  0.00    -0.223 NA
ATOM      8  C   UNL     1      68.271  53.270  16.781  0.00  0.00    +0.220 A 
ATOM      9  N   UNL     1      69.072  52.970  17.872  0.00  0.00    -0.283 N 
ATOM     36  H   UNL     1      69.467  52.034  17.965  0.00  0.00    +0.155 HD
ATOM     37  N   UNL     1      68.059  52.303  15.864  0.00  0.00    -0.214 NA
BRANCH   4   3
ATOM      1  C   UNL     1      65.844  50.038  12.090  0.00  0.00    +0.020 A 
ATOM      2  C   UNL     1      65.942  51.167  12.986  0.00  0.00    +0.013 A 
ATOM      3  C   UNL     1      67.133  51.369  13.802  0.00  0.00    +0.019 A 
ATOM     38  C   UNL     1      68.216  50.404  13.686  0.00  0.00    +0.120 A 
ATOM     39  N   UNL     1      68.093  49.325  12.815  0.00  0.00    -0.263 NA
ATOM     40  C   UNL     1      66.951  49.119  12.026  0.00  0.00    +0.111 A 
ENDBRANCH   4   3
ENDBRANCH  10   9
BRANCH  12  13
ATOM     13  N   UNL     1      67.933  55.097  22.223  0.00  0.00    -0.281 N 
ATOM     14  C   UNL     1      68.173  54.547  23.472  0.00  0.00    +0.248 C 
ATOM     30  O   UNL     1      69.017  53.694  23.701  0.00  0.00    -0.270 OA
ATOM     31  H   UNL     1      67.080  55.649  22.133  0.00  0.00    +0.155 HD
BRANCH  14  15
ATOM     15  C   UNL     1      67.346  55.001  24.631  0.00  0.00    +0.037 A 
ATOM     16  C   UNL     1      67.631  56.262  25.321  0.00  0.00    +0.013 A 
ATOM     17  C   UNL     1      66.828  56.667  26.448  0.00  0.00    +0.005 A 
ATOM     18  C   UNL     1      65.730  55.811  26.890  0.00  0.00    -0.033 A 
ATOM     28  C   UNL     1      65.466  54.568  26.184  0.00  0.00    +0.005 A 
ATOM     29  C   UNL     1      66.252  54.167  25.081  0.00  0.00    +0.013 A 
BRANCH  18  19
ATOM     19  C   UNL     1      64.835  56.154  28.096  0.00  0.00    +0.119 C 
BRANCH  19  20
ATOM     20  N   UNL     1      63.476  56.699  27.805  0.00  0.00    -0.302 NA
ATOM     21  C   UNL     1      62.411  55.599  27.771  0.00  0.00    +0.066 C 
ATOM     22  C   UNL     1      60.991  56.190  27.488  0.00  0.00    -0.064 C 
ATOM     23  N   UNL     1      61.016  56.959  26.166  0.00  0.00    +0.379 N 
ATOM     24  C   UNL     1      59.669  57.466  25.868  0.00  0.00    -0.096 C 
ATOM     25  H   UNL     1      61.293  56.239  25.361  0.00  0.00    -0.082 HD
ATOM     26  C   UNL     1      62.074  58.053  26.190  0.00  0.00    -0.064 C 
ATOM     27  C   UNL     1      63.477  57.460  26.501  0.00  0.00    +0.066 C 
ENDBRANCH  19  20
ENDBRANCH  18  19
ENDBRANCH  14  15
ENDBRANCH  12  13
TORSDOF 6
ENDMDL
MODEL 5
REMARK VINA RESULT:      -7.8      5.386     10.182
REMARK  Name = C:\Users\Docking\Desktop\test protocol\1iep_ligandH.pdb
REMARK  8 active torsions:
REMARK  status: ('A' for Active; 'I' for Inactive)
REMARK    1  A    between atoms: _5  and  _11
REMARK    2  A    between atoms: _19  and  _21
REMARK    3  A    between atoms: _22  and  _66
REMARK    4  A    between atoms: _27  and  _30
REMARK    5  A    between atoms: _32  and  _33
REMARK    6  A    between atoms: _38  and  _43
REMARK    7  A    between atoms: _43  and  _46
REMARK    8  A    between atoms: _53  and  _55
REMARK                            x       y       z     vdW  Elec       q    Type
REMARK                         _______ _______ _______ _____ _____    ______ ____
ROOT
ATOM     10  C   UNL     1      69.023  53.666  16.604  0.00  0.00    +0.038 A 
ATOM     11  C   UNL     1      68.638  53.562  17.965  0.00  0.00    +0.047 A 
ATOM     12  C   UNL     1      68.572  54.737  18.820  0.00  0.00    +0.035 A 
ATOM     32  C   UNL     1      68.903  56.003  18.255  0.00  0.00    +0.024 A 
ATOM     33  C   UNL     1      69.298  56.126  16.874  0.00  0.00    +0.007 A 
ATOM     34  C   UNL     1      69.367  54.971  16.026  0.00  0.00    -0.029 A 
ATOM     35  C   UNL     1      69.803  55.162  14.555  0.00  0.00    +0.045 C 
ENDROOT
BRANCH  10   9
ATOM      4  C   UNL     1      67.176  50.693  13.319  0.00  0.00    +0.077 A 
ATOM      5  C   UNL     1      66.006  51.508  13.154  0.00  0.00    +0.048 A 
ATOM      6  C   UNL     1      65.916  52.680  13.938  0.00  0.00    +0.116 A 
ATOM      7  N   UNL     1      66.925  53.004  14.818  0.00  0.00    -0.223 NA
ATOM      8  C   UNL     1      68.039  52.195  14.955  0.00  0.00    +0.220 A 
ATOM      9  N   UNL     1      69.070  52.505  15.828  0.00  0.00    -0.283 N 
ATOM     36  H   UNL     1      69.871  51.879  15.905  0.00  0.00    +0.155 HD
ATOM     37  N   UNL     1      68.148  51.070  14.218  0.00  0.00    -0.214 NA
BRANCH   4   3
ATOM      1  C   UNL     1      66.682  47.562  11.028  0.00  0.00    +0.020 A 
ATOM      2  C   UNL     1      66.396  48.785  11.742  0.00  0.00    +0.013 A 
ATOM      3  C   UNL     1      67.418  49.426  12.560  0.00  0.00    +0.019 A 
ATOM     38  C   UNL     1      68.730  48.800  12.634  0.00  0.00    +0.120 A 
ATOM     39  N   UNL     1      68.976  47.621  11.936  0.00  0.00    -0.263 NA
ATOM     40  C   UNL     1      68.000  46.994  11.148  0.00  0.00    +0.111 A 
ENDBRANCH   4   3
ENDBRANCH  10   9
BRANCH  12  13
ATOM     13  N   UNL     1      68.195  54.692  20.211  0.00  0.00    -0.281 N 
ATOM     14  C   UNL     1      68.960  55.041  21.312  0.00  0.00    +0.248 C 
ATOM     30  O   UNL     1      70.164  55.244  21.281  0.00  0.00    -0.270 OA
ATOM     31  H   UNL     1      67.250  54.362  20.408  0.00  0.00    +0.155 HD
BRANCH  14  15
ATOM     15  C   UNL     1      68.292  55.169  22.643  0.00  0.00    +0.037 A 
ATOM     16  C   UNL     1      68.820  56.065  23.675  0.00  0.00    +0.013 A 
ATOM     17  C   UNL     1      68.167  56.156  24.957  0.00  0.00    +0.005 A 
ATOM     18  C   UNL     1      66.976  55.350  25.213  0.00  0.00    -0.033 A 
ATOM     28  C   UNL     1      66.471  54.473  24.170  0.00  0.00    +0.005 A 
ATOM     29  C   UNL     1      67.109  54.380  22.913  0.00  0.00    +0.013 A 
BRANCH  18  19
ATOM     19  C   UNL     1      66.227  55.368  26.559  0.00  0.00    +0.119 C 
BRANCH  19  20
ATOM     20  N   UNL     1      64.749  55.577  26.516  0.00  0.00    -0.302 NA
ATOM     21  C   UNL     1      64.382  57.056  26.375  0.00  0.00    +0.066 C 
ATOM     22  C   UNL     1      62.832  57.255  26.309  0.00  0.00    -0.064 C 
ATOM     23  N   UNL     1      62.190  56.654  27.560  0.00  0.00    +0.379 N 
ATOM     24  C   UNL     1      60.739  56.890  27.529  0.00  0.00    -0.096 C 
ATOM     25  H   UNL     1      62.602  57.195  28.444  0.00  0.00    -0.082 HD
ATOM     26  C   UNL     1      62.553  55.183  27.710  0.00  0.00    -0.064 C 
ATOM     27  C   UNL     1      64.095  54.995  27.745  0.00  0.00    +0.066 C 
ENDBRANCH  19  20
ENDBRANCH  18  19
ENDBRANCH  14  15
ENDBRANCH  12  13
TORSDOF 6
ENDMDL
