MODEL 1
REMARK VINA RESULT:      -8.2      0.000      0.000
REMARK  Name = C:\Users\Docking\Desktop\test protocol\1iep_ligandH.pdb
REMARK  8 active torsions:
REMARK  status: ('A' for Active; 'I' for Inactive)
REMARK    1  A    between atoms: _5  and  _11
REMARK    2  A    between atoms: _19  and  _21
REMARK    3  A    between atoms: _22  and  _66
REMARK    4  A    between atoms: _27  and  _30
REMARK    5  A    between atoms: _32  and  _33
REMARK    6  A    between atoms: _38  and  _43
REMARK    7  A    between atoms: _43  and  _46
REMARK    8  A    between atoms: _53  and  _55
REMARK                            x       y       z     vdW  Elec       q    Type
REMARK                         _______ _______ _______ _____ _____    ______ ____
ROOT
ATOM     10  C   UNL     1      68.722  53.933  17.539  0.00  0.00    +0.038 A 
ATOM     11  C   UNL     1      69.312  55.115  17.024  0.00  0.00    +0.047 A 
ATOM     12  C   UNL     1      69.310  56.352  17.789  0.00  0.00    +0.035 A 
ATOM     32  C   UNL     1      68.698  56.349  19.077  0.00  0.00    +0.024 A 
ATOM     33  C   UNL     1      68.092  55.156  19.615  0.00  0.00    +0.007 A 
ATOM     34  C   UNL     1      68.090  53.934  18.863  0.00  0.00    -0.029 A 
ATOM     35  C   UNL     1      67.419  52.687  19.487  0.00  0.00    +0.045 C 
ENDROOT
BRANCH  10   9
ATOM      4  C   UNL     1      67.172  51.253  13.871  0.00  0.00    +0.077 A 
ATOM      5  C   UNL     1      66.199  52.235  13.487  0.00  0.00    +0.048 A 
ATOM      6  C   UNL     1      66.124  53.413  14.264  0.00  0.00    +0.116 A 
ATOM      7  N   UNL     1      66.966  53.585  15.342  0.00  0.00    -0.223 NA
ATOM      8  C   UNL     1      67.892  52.617  15.686  0.00  0.00    +0.220 A 
ATOM      9  N   UNL     1      68.753  52.773  16.761  0.00  0.00    -0.283 N 
ATOM     36  H   UNL     1      69.417  52.033  16.986  0.00  0.00    +0.155 HD
ATOM     37  N   UNL     1      67.981  51.483  14.961  0.00  0.00    -0.214 NA
BRANCH   4   3
ATOM      1  C   UNL     1      68.653  47.836  12.675  0.00  0.00    +0.020 A 
ATOM      2  C   UNL     1      68.505  49.075  13.402  0.00  0.00    +0.013 A 
ATOM      3  C   UNL     1      67.373  49.958  13.147  0.00  0.00    +0.019 A 
ATOM     38  C   UNL     1      66.402  49.553  12.142  0.00  0.00    +0.120 A 
ATOM     39  N   UNL     1      66.571  48.354  11.457  0.00  0.00    -0.263 NA
ATOM     40  C   UNL     1      67.657  47.497  11.693  0.00  0.00    +0.111 A 
ENDBRANCH   4   3
ENDBRANCH  10   9
BRANCH  12  13
ATOM     13  N   UNL     1      69.887  57.586  17.315  0.00  0.00    -0.281 N 
ATOM     14  C   UNL     1      71.172  57.799  16.844  0.00  0.00    +0.248 C 
ATOM     30  O   UNL     1      72.091  57.002  16.959  0.00  0.00    -0.270 OA
ATOM     31  H   UNL     1      69.274  58.401  17.329  0.00  0.00    +0.155 HD
BRANCH  14  15
ATOM     15  C   UNL     1      71.485  59.089  16.159  0.00  0.00    +0.037 A 
ATOM     16  C   UNL     1      72.456  59.152  15.063  0.00  0.00    +0.013 A 
ATOM     17  C   UNL     1      72.752  60.413  14.431  0.00  0.00    +0.005 A 
ATOM     18  C   UNL     1      72.074  61.622  14.891  0.00  0.00    -0.033 A 
ATOM     28  C   UNL     1      71.111  61.530  15.976  0.00  0.00    +0.005 A 
ATOM     29  C   UNL     1      70.819  60.296  16.600  0.00  0.00    +0.013 A 
BRANCH  18  19
ATOM     19  C   UNL     1      72.343  63.014  14.289  0.00  0.00    +0.119 C 
BRANCH  19  20
ATOM     20  N   UNL     1      72.570  63.088  12.814  0.00  0.00    -0.302 NA
ATOM     21  C   UNL     1      73.240  64.402  12.402  0.00  0.00    +0.066 C 
ATOM     22  C   UNL     1      73.490  64.453  10.859  0.00  0.00    -0.064 C 
ATOM     23  N   UNL     1      72.161  64.268  10.124  0.00  0.00    +0.379 N 
ATOM     24  C   UNL     1      72.384  64.374   8.674  0.00  0.00    -0.096 C 
ATOM     25  H   UNL     1      71.489  65.105  10.425  0.00  0.00    -0.082 HD
ATOM     26  C   UNL     1      71.487  62.966  10.530  0.00  0.00    -0.064 C 
ATOM     27  C   UNL     1      71.270  62.913  12.069  0.00  0.00    +0.066 C 
ENDBRANCH  19  20
ENDBRANCH  18  19
ENDBRANCH  14  15
ENDBRANCH  12  13
TORSDOF 6
ENDMDL
MODEL 2
REMARK VINA RESULT:      -8.0      1.462      2.059
REMARK  Name = C:\Users\Docking\Desktop\test protocol\1iep_ligandH.pdb
REMARK  8 active torsions:
REMARK  status: ('A' for Active; 'I' for Inactive)
REMARK    1  A    between atoms: _5  and  _11
REMARK    2  A    between atoms: _19  and  _21
REMARK    3  A    between atoms: _22  and  _66
REMARK    4  A    between atoms: _27  and  _30
REMARK    5  A    between atoms: _32  and  _33
REMARK    6  A    between atoms: _38  and  _43
REMARK    7  A    between atoms: _43  and  _46
REMARK    8  A    between atoms: _53  and  _55
REMARK                            x       y       z     vdW  Elec       q    Type
REMARK                         _______ _______ _______ _____ _____    ______ ____
ROOT
ATOM     10  C   UNL     1      68.511  53.859  17.977  0.00  0.00    +0.038 A 
ATOM     11  C   UNL     1      68.939  55.116  17.477  0.00  0.00    +0.047 A 
ATOM     12  C   UNL     1      68.899  56.309  18.308  0.00  0.00    +0.035 A 
ATOM     32  C   UNL     1      68.418  56.186  19.644  0.00  0.00    +0.024 A 
ATOM     33  C   UNL     1      67.977  54.917  20.168  0.00  0.00    +0.007 A 
ATOM     34  C   UNL     1      68.013  53.737  19.352  0.00  0.00    -0.029 A 
ATOM     35  C   UNL     1      67.522  52.404  19.964  0.00  0.00    +0.045 C 
ENDROOT
BRANCH  10   9
ATOM      4  C   UNL     1      67.201  51.457  14.033  0.00  0.00    +0.077 A 
ATOM      5  C   UNL     1      66.299  52.496  13.628  0.00  0.00    +0.048 A 
ATOM      6  C   UNL     1      66.196  53.629  14.466  0.00  0.00    +0.116 A 
ATOM      7  N   UNL     1      66.944  53.706  15.621  0.00  0.00    -0.223 NA
ATOM      8  C   UNL     1      67.804  52.686  15.983  0.00  0.00    +0.220 A 
ATOM      9  N   UNL     1      68.572  52.746  17.136  0.00  0.00    -0.283 N 
ATOM     36  H   UNL     1      69.188  51.969  17.372  0.00  0.00    +0.155 HD
ATOM     37  N   UNL     1      67.919  51.592  15.201  0.00  0.00    -0.214 NA
BRANCH   4   3
ATOM      1  C   UNL     1      66.749  48.498  11.515  0.00  0.00    +0.020 A 
ATOM      2  C   UNL     1      66.488  49.719  12.242  0.00  0.00    +0.013 A 
ATOM      3  C   UNL     1      67.422  50.199  13.252  0.00  0.00    +0.019 A 
ATOM     38  C   UNL     1      68.621  49.414  13.504  0.00  0.00    +0.120 A 
ATOM     39  N   UNL     1      68.846  48.242  12.789  0.00  0.00    -0.263 NA
ATOM     40  C   UNL     1      67.953  47.769  11.816  0.00  0.00    +0.111 A 
ENDBRANCH   4   3
ENDBRANCH  10   9
BRANCH  12  13
ATOM     13  N   UNL     1      69.313  57.613  17.853  0.00  0.00    -0.281 N 
ATOM     14  C   UNL     1      69.132  58.833  18.484  0.00  0.00    +0.248 C 
ATOM     30  O   UNL     1      68.394  59.013  19.441  0.00  0.00    -0.270 OA
ATOM     31  H   UNL     1      69.798  57.640  16.956  0.00  0.00    +0.155 HD
BRANCH  14  15
ATOM     15  C   UNL     1      69.867  60.028  17.970  0.00  0.00    +0.037 A 
ATOM     16  C   UNL     1      69.805  61.316  18.666  0.00  0.00    +0.013 A 
ATOM     17  C   UNL     1      70.510  62.458  18.139  0.00  0.00    +0.005 A 
ATOM     18  C   UNL     1      71.284  62.316  16.908  0.00  0.00    -0.033 A 
ATOM     28  C   UNL     1      71.332  61.025  16.240  0.00  0.00    +0.005 A 
ATOM     29  C   UNL     1      70.642  59.904  16.754  0.00  0.00    +0.013 A 
BRANCH  18  19
ATOM     19  C   UNL     1      72.049  63.486  16.262  0.00  0.00    +0.119 C 
BRANCH  19  20
ATOM     20  N   UNL     1      72.329  63.394  14.798  0.00  0.00    -0.302 NA
ATOM     21  C   UNL     1      73.665  64.045  14.427  0.00  0.00    +0.066 C 
ATOM     22  C   UNL     1      73.953  63.920  12.895  0.00  0.00    -0.064 C 
ATOM     23  N   UNL     1      72.804  64.556  12.110  0.00  0.00    +0.379 N 
ATOM     24  C   UNL     1      73.099  64.492  10.671  0.00  0.00    -0.096 C 
ATOM     25  H   UNL     1      72.753  65.631  12.397  0.00  0.00    -0.082 HD
ATOM     26  C   UNL     1      71.472  63.916  12.475  0.00  0.00    -0.064 C 
ATOM     27  C   UNL     1      71.209  64.019  14.003  0.00  0.00    +0.066 C 
ENDBRANCH  19  20
ENDBRANCH  18  19
ENDBRANCH  14  15
ENDBRANCH  12  13
TORSDOF 6
ENDMDL
MODEL 3
REMARK VINA RESULT:      -7.9      1.498      2.250
REMARK  Name = C:\Users\Docking\Desktop\test protocol\1iep_ligandH.pdb
REMARK  8 active torsions:
REMARK  status: ('A' for Active; 'I' for Inactive)
REMARK    1  A    between atoms: _5  and  _11
REMARK    2  A    between atoms: _19  and  _21
REMARK    3  A    between atoms: _22  and  _66
REMARK    4  A    between atoms: _27  and  _30
REMARK    5  A    between atoms: _32  and  _33
REMARK    6  A    between atoms: _38  and  _43
REMARK    7  A    between atoms: _43  and  _46
REMARK    8  A    between atoms: _53  and  _55
REMARK                            x       y       z     vdW  Elec       q    Type
REMARK                         _______ _______ _______ _____ _____    ______ ____
ROOT
ATOM     10  C   UNL     1      68.615  53.658  17.450  0.00  0.00    +0.038 A 
ATOM     11  C   UNL     1      69.206  54.827  16.906  0.00  0.00    +0.047 A 
ATOM     12  C   UNL     1      69.214  56.080  17.646  0.00  0.00    +0.035 A 
ATOM     32  C   UNL     1      68.614  56.105  18.939  0.00  0.00    +0.024 A 
ATOM     33  C   UNL     1      68.009  54.926  19.506  0.00  0.00    +0.007 A 
ATOM     34  C   UNL     1      67.995  53.688  18.780  0.00  0.00    -0.029 A 
ATOM     35  C   UNL     1      67.326  52.457  19.435  0.00  0.00    +0.045 C 
ENDROOT
BRANCH  10   9
ATOM      4  C   UNL     1      67.191  50.999  13.717  0.00  0.00    +0.077 A 
ATOM      5  C   UNL     1      66.311  52.028  13.243  0.00  0.00    +0.048 A 
ATOM      6  C   UNL     1      66.249  53.224  13.993  0.00  0.00    +0.116 A 
ATOM      7  N   UNL     1      67.014  53.369  15.130  0.00  0.00    -0.223 NA
ATOM      8  C   UNL     1      67.851  52.355  15.560  0.00  0.00    +0.220 A 
ATOM      9  N   UNL     1      68.636  52.482  16.696  0.00  0.00    -0.283 N 
ATOM     36  H   UNL     1      69.235  51.709  16.984  0.00  0.00    +0.155 HD
ATOM     37  N   UNL     1      67.927  51.203  14.862  0.00  0.00    -0.214 NA
BRANCH   4   3
ATOM      1  C   UNL     1      68.553  47.478  12.691  0.00  0.00    +0.020 A 
ATOM      2  C   UNL     1      68.426  48.740  13.384  0.00  0.00    +0.013 A 
ATOM      3  C   UNL     1      67.369  49.679  13.032  0.00  0.00    +0.019 A 
ATOM     38  C   UNL     1      66.449  49.309  11.966  0.00  0.00    +0.120 A 
ATOM     39  N   UNL     1      66.598  48.088  11.316  0.00  0.00    -0.263 NA
ATOM     40  C   UNL     1      67.612  47.176  11.645  0.00  0.00    +0.111 A 
ENDBRANCH   4   3
ENDBRANCH  10   9
BRANCH  12  13
ATOM     13  N   UNL     1      69.791  57.301  17.142  0.00  0.00    -0.281 N 
ATOM     14  C   UNL     1      71.125  57.568  16.881  0.00  0.00    +0.248 C 
ATOM     30  O   UNL     1      72.055  56.864  17.245  0.00  0.00    -0.270 OA
ATOM     31  H   UNL     1      69.137  58.061  16.955  0.00  0.00    +0.155 HD
BRANCH  14  15
ATOM     15  C   UNL     1      71.478  58.804  16.117  0.00  0.00    +0.037 A 
ATOM     16  C   UNL     1      70.842  60.089  16.415  0.00  0.00    +0.013 A 
ATOM     17  C   UNL     1      71.188  61.262  15.652  0.00  0.00    +0.005 A 
ATOM     18  C   UNL     1      72.178  61.154  14.583  0.00  0.00    -0.033 A 
ATOM     28  C   UNL     1      72.798  59.867  14.312  0.00  0.00    +0.005 A 
ATOM     29  C   UNL     1      72.460  58.716  15.058  0.00  0.00    +0.013 A 
BRANCH  18  19
ATOM     19  C   UNL     1      72.593  62.348  13.704  0.00  0.00    +0.119 C 
BRANCH  19  20
ATOM     20  N   UNL     1      72.917  63.630  14.399  0.00  0.00    -0.302 NA
ATOM     21  C   UNL     1      71.724  64.589  14.421  0.00  0.00    +0.066 C 
ATOM     22  C   UNL     1      72.074  65.915  15.172  0.00  0.00    -0.064 C 
ATOM     23  N   UNL     1      73.285  66.571  14.506  0.00  0.00    +0.379 N 
ATOM     24  C   UNL     1      73.580  67.847  15.173  0.00  0.00    -0.096 C 
ATOM     25  H   UNL     1      73.008  66.798  13.450  0.00  0.00    -0.082 HD
ATOM     26  C   UNL     1      74.475  65.623  14.478  0.00  0.00    -0.064 C 
ATOM     27  C   UNL     1      74.108  64.297  13.755  0.00  0.00    +0.066 C 
ENDBRANCH  19  20
ENDBRANCH  18  19
ENDBRANCH  14  15
ENDBRANCH  12  13
TORSDOF 6
ENDMDL
MODEL 4
REMARK VINA RESULT:      -7.9      6.091     11.024
REMARK  Name = C:\Users\Docking\Desktop\test protocol\1iep_ligandH.pdb
REMARK  8 active torsions:
REMARK  status: ('A' for Active; 'I' for Inactive)
REMARK    1  A    between atoms: _5  and  _11
REMARK    2  A    between atoms: _19  and  _21
REMARK    3  A    between atoms: _22  and  _66
REMARK    4  A    between atoms: _27  and  _30
REMARK    5  A    between atoms: _32  and  _33
REMARK    6  A    between atoms: _38  and  _43
REMARK    7  A    between atoms: _43  and  _46
REMARK    8  A    between atoms: _53  and  _55
REMARK                            x       y       z     vdW  Elec       q    Type
REMARK                         _______ _______ _______ _____ _____    ______ ____
ROOT
ATOM     10  C   UNL     1      69.213  53.764  18.968  0.00  0.00    +0.038 A 
ATOM     11  C   UNL     1      68.394  53.792  20.125  0.00  0.00    +0.047 A 
ATOM     12  C   UNL     1      68.610  54.773  21.177  0.00  0.00    +0.035 A 
ATOM     32  C   UNL     1      69.670  55.713  21.017  0.00  0.00    +0.024 A 
ATOM     33  C   UNL     1      70.513  55.699  19.847  0.00  0.00    +0.007 A 
ATOM     34  C   UNL     1      70.305  54.732  18.807  0.00  0.00    -0.029 A 
ATOM     35  C   UNL     1      71.244  54.758  17.579  0.00  0.00    +0.045 C 
ENDROOT
BRANCH  10   9
ATOM      4  C   UNL     1      67.292  52.372  14.796  0.00  0.00    +0.077 A 
ATOM      5  C   UNL     1      66.721  53.666  14.559  0.00  0.00    +0.048 A 
ATOM      6  C   UNL     1      66.939  54.661  15.539  0.00  0.00    +0.116 A 
ATOM      7  N   UNL     1      67.675  54.371  16.667  0.00  0.00    -0.223 NA
ATOM      8  C   UNL     1      68.210  53.112  16.866  0.00  0.00    +0.220 A 
ATOM      9  N   UNL     1      68.960  52.801  17.989  0.00  0.00    -0.283 N 
ATOM     36  H   UNL     1      69.332  51.858  18.102  0.00  0.00    +0.155 HD
ATOM     37  N   UNL     1      68.015  52.144  15.946  0.00  0.00    -0.214 NA
BRANCH   4   3
ATOM      1  C   UNL     1      65.930  49.932  12.059  0.00  0.00    +0.020 A 
ATOM      2  C   UNL     1      66.016  51.065  12.951  0.00  0.00    +0.013 A 
ATOM      3  C   UNL     1      67.152  51.218  13.852  0.00  0.00    +0.019 A 
ATOM     38  C   UNL     1      68.191  50.200  13.825  0.00  0.00    +0.120 A 
ATOM     39  N   UNL     1      68.080  49.119  12.956  0.00  0.00    -0.263 NA
ATOM     40  C   UNL     1      66.991  48.960  12.085  0.00  0.00    +0.111 A 
ENDBRANCH   4   3
ENDBRANCH  10   9
BRANCH  12  13
ATOM     13  N   UNL     1      67.816  54.845  22.378  0.00  0.00    -0.281 N 
ATOM     14  C   UNL     1      68.145  54.393  23.646  0.00  0.00    +0.248 C 
ATOM     30  O   UNL     1      69.093  53.663  23.894  0.00  0.00    -0.270 OA
ATOM     31  H   UNL     1      66.899  55.282  22.283  0.00  0.00    +0.155 HD
BRANCH  14  15
ATOM     15  C   UNL     1      67.290  54.800  24.802  0.00  0.00    +0.037 A 
ATOM     16  C   UNL     1      66.203  53.944  25.282  0.00  0.00    +0.013 A 
ATOM     17  C   UNL     1      65.382  54.368  26.389  0.00  0.00    +0.005 A 
ATOM     18  C   UNL     1      65.648  55.656  27.025  0.00  0.00    -0.033 A 
ATOM     28  C   UNL     1      66.737  56.483  26.532  0.00  0.00    +0.005 A 
ATOM     29  C   UNL     1      67.542  56.071  25.447  0.00  0.00    +0.013 A 
BRANCH  18  19
ATOM     19  C   UNL     1      64.810  56.198  28.198  0.00  0.00    +0.119 C 
BRANCH  19  20
ATOM     20  N   UNL     1      63.426  56.667  27.890  0.00  0.00    -0.302 NA
ATOM     21  C   UNL     1      62.438  55.503  27.774  0.00  0.00    +0.066 C 
ATOM     22  C   UNL     1      60.991  56.013  27.474  0.00  0.00    -0.064 C 
ATOM     23  N   UNL     1      61.002  56.845  26.190  0.00  0.00    +0.379 N 
ATOM     24  C   UNL     1      59.633  57.277  25.874  0.00  0.00    -0.096 C 
ATOM     25  H   UNL     1      61.347  56.183  25.362  0.00  0.00    -0.082 HD
ATOM     26  C   UNL     1      61.984  58.003  26.296  0.00  0.00    -0.064 C 
ATOM     27  C   UNL     1      63.413  57.487  26.623  0.00  0.00    +0.066 C 
ENDBRANCH  19  20
ENDBRANCH  18  19
ENDBRANCH  14  15
ENDBRANCH  12  13
TORSDOF 6
ENDMDL
MODEL 5
REMARK VINA RESULT:      -7.9      3.217      4.862
REMARK  Name = C:\Users\Docking\Desktop\test protocol\1iep_ligandH.pdb
REMARK  8 active torsions:
REMARK  status: ('A' for Active; 'I' for Inactive)
REMARK    1  A    between atoms: _5  and  _11
REMARK    2  A    between atoms: _19  and  _21
REMARK    3  A    between atoms: _22  and  _66
REMARK    4  A    between atoms: _27  and  _30
REMARK    5  A    between atoms: _32  and  _33
REMARK    6  A    between atoms: _38  and  _43
REMARK    7  A    between atoms: _43  and  _46
REMARK    8  A    between atoms: _53  and  _55
REMARK                            x       y       z     vdW  Elec       q    Type
REMARK                         _______ _______ _______ _____ _____    ______ ____
ROOT
ATOM     10  C   UNL     1      72.235  55.901  14.904  0.00  0.00    +0.038 A 
ATOM     11  C   UNL     1      72.118  57.230  14.421  0.00  0.00    +0.047 A 
ATOM     12  C   UNL     1      72.909  58.310  14.990  0.00  0.00    +0.035 A 
ATOM     32  C   UNL     1      73.812  58.001  16.048  0.00  0.00    +0.024 A 
ATOM     33  C   UNL     1      73.943  56.656  16.552  0.00  0.00    +0.007 A 
ATOM     34  C   UNL     1      73.164  55.587  15.997  0.00  0.00    -0.029 A 
ATOM     35  C   UNL     1      73.341  54.166  16.581  0.00  0.00    +0.045 C 
ENDROOT
BRANCH  10   9
ATOM      4  C   UNL     1      68.156  53.399  14.533  0.00  0.00    +0.077 A 
ATOM      5  C   UNL     1      67.544  54.124  15.609  0.00  0.00    +0.048 A 
ATOM      6  C   UNL     1      68.316  55.128  16.237  0.00  0.00    +0.116 A 
ATOM      7  N   UNL     1      69.602  55.380  15.811  0.00  0.00    -0.223 NA
ATOM      8  C   UNL     1      70.163  54.661  14.771  0.00  0.00    +0.220 A 
ATOM      9  N   UNL     1      71.451  54.903  14.321  0.00  0.00    -0.283 N 
ATOM     36  H   UNL     1      71.831  54.346  13.556  0.00  0.00    +0.155 HD
ATOM     37  N   UNL     1      69.447  53.696  14.157  0.00  0.00    -0.214 NA
BRANCH   4   3
ATOM      1  C   UNL     1      65.404  51.114  12.951  0.00  0.00    +0.020 A 
ATOM      2  C   UNL     1      66.018  52.183  13.703  0.00  0.00    +0.013 A 
ATOM      3  C   UNL     1      67.469  52.310  13.769  0.00  0.00    +0.019 A 
ATOM     38  C   UNL     1      68.275  51.331  13.056  0.00  0.00    +0.120 A 
ATOM     39  N   UNL     1      67.656  50.311  12.341  0.00  0.00    -0.263 NA
ATOM     40  C   UNL     1      66.261  50.178  12.272  0.00  0.00    +0.111 A 
ENDBRANCH   4   3
ENDBRANCH  10   9
BRANCH  12  13
ATOM     13  N   UNL     1      72.826  59.679  14.546  0.00  0.00    -0.281 N 
ATOM     14  C   UNL     1      71.953  60.664  14.979  0.00  0.00    +0.248 C 
ATOM     30  O   UNL     1      70.964  60.457  15.665  0.00  0.00    -0.270 OA
ATOM     31  H   UNL     1      73.492  59.956  13.825  0.00  0.00    +0.155 HD
BRANCH  14  15
ATOM     15  C   UNL     1      72.208  62.081  14.579  0.00  0.00    +0.037 A 
ATOM     16  C   UNL     1      71.314  62.782  13.654  0.00  0.00    +0.013 A 
ATOM     17  C   UNL     1      71.592  64.144  13.272  0.00  0.00    +0.005 A 
ATOM     18  C   UNL     1      72.770  64.814  13.816  0.00  0.00    -0.033 A 
ATOM     28  C   UNL     1      73.637  64.097  14.736  0.00  0.00    +0.005 A 
ATOM     29  C   UNL     1      73.368  62.762  15.112  0.00  0.00    +0.013 A 
BRANCH  18  19
ATOM     19  C   UNL     1      73.156  66.259  13.447  0.00  0.00    +0.119 C 
BRANCH  19  20
ATOM     20  N   UNL     1      74.158  66.943  14.318  0.00  0.00    -0.302 NA
ATOM     21  C   UNL     1      73.610  68.244  14.911  0.00  0.00    +0.066 C 
ATOM     22  C   UNL     1      74.663  68.935  15.837  0.00  0.00    -0.064 C 
ATOM     23  N   UNL     1      75.943  69.199  15.042  0.00  0.00    +0.379 N 
ATOM     24  C   UNL     1      76.914  69.901  15.894  0.00  0.00    -0.096 C 
ATOM     25  H   UNL     1      75.681  69.878  14.197  0.00  0.00    -0.082 HD
ATOM     26  C   UNL     1      76.493  67.911  14.446  0.00  0.00    -0.064 C 
ATOM     27  C   UNL     1      75.428  67.217  13.551  0.00  0.00    +0.066 C 
ENDBRANCH  19  20
ENDBRANCH  18  19
ENDBRANCH  14  15
ENDBRANCH  12  13
TORSDOF 6
ENDMDL
