MODEL 1
REMARK VINA RESULT:      -8.2      0.000      0.000
REMARK  Name = C:\Users\Docking\Desktop\test protocol\1iep_ligandH.pdb
REMARK  8 active torsions:
REMARK  status: ('A' for Active; 'I' for Inactive)
REMARK    1  A    between atoms: _5  and  _11
REMARK    2  A    between atoms: _19  and  _21
REMARK    3  A    between atoms: _22  and  _66
REMARK    4  A    between atoms: _27  and  _30
REMARK    5  A    between atoms: _32  and  _33
REMARK    6  A    between atoms: _38  and  _43
REMARK    7  A    between atoms: _43  and  _46
REMARK    8  A    between atoms: _53  and  _55
REMARK                            x       y       z     vdW  Elec       q    Type
REMARK                         _______ _______ _______ _____ _____    ______ ____
ROOT
ATOM     10  C   UNL     1      68.732  53.855  17.258  0.00  0.00    +0.038 A 
ATOM     11  C   UNL     1      69.270  55.062  16.743  0.00  0.00    +0.047 A 
ATOM     12  C   UNL     1      69.304  56.274  17.546  0.00  0.00    +0.035 A 
ATOM     32  C   UNL     1      68.783  56.222  18.871  0.00  0.00    +0.024 A 
ATOM     33  C   UNL     1      68.231  55.004  19.411  0.00  0.00    +0.007 A 
ATOM     34  C   UNL     1      68.193  53.805  18.623  0.00  0.00    -0.029 A 
ATOM     35  C   UNL     1      67.583  52.530  19.251  0.00  0.00    +0.045 C 
ENDROOT
BRANCH  10   9
ATOM      4  C   UNL     1      67.021  51.304  13.570  0.00  0.00    +0.077 A 
ATOM      5  C   UNL     1      66.041  52.304  13.257  0.00  0.00    +0.048 A 
ATOM      6  C   UNL     1      66.006  53.456  14.073  0.00  0.00    +0.116 A 
ATOM      7  N   UNL     1      66.889  53.589  15.122  0.00  0.00    -0.223 NA
ATOM      8  C   UNL     1      67.821  52.605  15.399  0.00  0.00    +0.220 A 
ATOM      9  N   UNL     1      68.724  52.721  16.444  0.00  0.00    -0.283 N 
ATOM     36  H   UNL     1      69.391  51.970  16.620  0.00  0.00    +0.155 HD
ATOM     37  N   UNL     1      67.874  51.494  14.635  0.00  0.00    -0.214 NA
BRANCH   4   3
ATOM      1  C   UNL     1      66.338  48.235  11.243  0.00  0.00    +0.020 A 
ATOM      2  C   UNL     1      66.128  49.467  11.969  0.00  0.00    +0.013 A 
ATOM      3  C   UNL     1      67.185  50.032  12.798  0.00  0.00    +0.019 A 
ATOM     38  C   UNL     1      68.452  49.321  12.871  0.00  0.00    +0.120 A 
ATOM     39  N   UNL     1      68.625  48.137  12.162  0.00  0.00    -0.263 NA
ATOM     40  C   UNL     1      67.615  47.582  11.363  0.00  0.00    +0.111 A 
ENDBRANCH   4   3
ENDBRANCH  10   9
BRANCH  12  13
ATOM     13  N   UNL     1      69.832  57.530  17.073  0.00  0.00    -0.281 N 
ATOM     14  C   UNL     1      71.110  57.798  16.611  0.00  0.00    +0.248 C 
ATOM     30  O   UNL     1      72.062  57.041  16.735  0.00  0.00    -0.270 OA
ATOM     31  H   UNL     1      69.184  58.318  17.080  0.00  0.00    +0.155 HD
BRANCH  14  15
ATOM     15  C   UNL     1      71.372  59.099  15.925  0.00  0.00    +0.037 A 
ATOM     16  C   UNL     1      72.298  59.188  14.793  0.00  0.00    +0.013 A 
ATOM     17  C   UNL     1      72.546  60.459  14.159  0.00  0.00    +0.005 A 
ATOM     18  C   UNL     1      71.865  61.652  14.657  0.00  0.00    -0.033 A 
ATOM     28  C   UNL     1      70.947  61.534  15.778  0.00  0.00    +0.005 A 
ATOM     29  C   UNL     1      70.703  60.290  16.402  0.00  0.00    +0.013 A 
BRANCH  18  19
ATOM     19  C   UNL     1      72.085  63.053  14.056  0.00  0.00    +0.119 C 
BRANCH  19  20
ATOM     20  N   UNL     1      72.394  63.130  12.597  0.00  0.00    -0.302 NA
ATOM     21  C   UNL     1      73.114  64.431  12.230  0.00  0.00    +0.066 C 
ATOM     22  C   UNL     1      73.450  64.485  10.704  0.00  0.00    -0.064 C 
ATOM     23  N   UNL     1      72.160  64.333   9.895  0.00  0.00    +0.379 N 
ATOM     24  C   UNL     1      72.465  64.441   8.461  0.00  0.00    -0.096 C 
ATOM     25  H   UNL     1      71.491  65.183  10.164  0.00  0.00    -0.082 HD
ATOM     26  C   UNL     1      71.437  63.043  10.256  0.00  0.00    -0.064 C 
ATOM     27  C   UNL     1      71.134  62.987  11.779  0.00  0.00    +0.066 C 
ENDBRANCH  19  20
ENDBRANCH  18  19
ENDBRANCH  14  15
ENDBRANCH  12  13
TORSDOF 6
ENDMDL
MODEL 2
REMARK VINA RESULT:      -7.9      1.463      2.279
REMARK  Name = C:\Users\Docking\Desktop\test protocol\1iep_ligandH.pdb
REMARK  8 active torsions:
REMARK  status: ('A' for Active; 'I' for Inactive)
REMARK    1  A    between atoms: _5  and  _11
REMARK    2  A    between atoms: _19  and  _21
REMARK    3  A    between atoms: _22  and  _66
REMARK    4  A    between atoms: _27  and  _30
REMARK    5  A    between atoms: _32  and  _33
REMARK    6  A    between atoms: _38  and  _43
REMARK    7  A    between atoms: _43  and  _46
REMARK    8  A    between atoms: _53  and  _55
REMARK                            x       y       z     vdW  Elec       q    Type
REMARK                         _______ _______ _______ _____ _____    ______ ____
ROOT
ATOM     10  C   UNL     1      68.556  53.699  17.381  0.00  0.00    +0.038 A 
ATOM     11  C   UNL     1      69.086  54.891  16.825  0.00  0.00    +0.047 A 
ATOM     12  C   UNL     1      69.136  56.124  17.596  0.00  0.00    +0.035 A 
ATOM     32  C   UNL     1      68.640  56.105  18.932  0.00  0.00    +0.024 A 
ATOM     33  C   UNL     1      68.097  54.902  19.513  0.00  0.00    +0.007 A 
ATOM     34  C   UNL     1      68.043  53.684  18.756  0.00  0.00    -0.029 A 
ATOM     35  C   UNL     1      67.444  52.426  19.427  0.00  0.00    +0.045 C 
ENDROOT
BRANCH  10   9
ATOM      4  C   UNL     1      67.048  51.202  13.569  0.00  0.00    +0.077 A 
ATOM      5  C   UNL     1      66.216  52.280  13.118  0.00  0.00    +0.048 A 
ATOM      6  C   UNL     1      66.198  53.457  13.900  0.00  0.00    +0.116 A 
ATOM      7  N   UNL     1      66.961  53.539  15.045  0.00  0.00    -0.223 NA
ATOM      8  C   UNL     1      67.752  52.481  15.452  0.00  0.00    +0.220 A 
ATOM      9  N   UNL     1      68.533  52.544  16.596  0.00  0.00    -0.283 N 
ATOM     36  H   UNL     1      69.097  51.739  16.866  0.00  0.00    +0.155 HD
ATOM     37  N   UNL     1      67.785  51.345  14.724  0.00  0.00    -0.214 NA
BRANCH   4   3
ATOM      1  C   UNL     1      66.282  48.069  11.357  0.00  0.00    +0.020 A 
ATOM      2  C   UNL     1      66.108  49.335  12.031  0.00  0.00    +0.013 A 
ATOM      3  C   UNL     1      67.176  49.896  12.849  0.00  0.00    +0.019 A 
ATOM     38  C   UNL     1      68.417  49.146  12.965  0.00  0.00    +0.120 A 
ATOM     39  N   UNL     1      68.556  47.928  12.305  0.00  0.00    -0.263 NA
ATOM     40  C   UNL     1      67.535  47.378  11.516  0.00  0.00    +0.111 A 
ENDBRANCH   4   3
ENDBRANCH  10   9
BRANCH  12  13
ATOM     13  N   UNL     1      69.656  57.367  17.082  0.00  0.00    -0.281 N 
ATOM     14  C   UNL     1      70.973  57.686  16.798  0.00  0.00    +0.248 C 
ATOM     30  O   UNL     1      71.937  57.020  17.145  0.00  0.00    -0.270 OA
ATOM     31  H   UNL     1      68.968  58.100  16.907  0.00  0.00    +0.155 HD
BRANCH  14  15
ATOM     15  C   UNL     1      71.263  58.934  16.028  0.00  0.00    +0.037 A 
ATOM     16  C   UNL     1      70.550  60.183  16.308  0.00  0.00    +0.013 A 
ATOM     17  C   UNL     1      70.837  61.368  15.540  0.00  0.00    +0.005 A 
ATOM     18  C   UNL     1      71.844  61.310  14.483  0.00  0.00    -0.033 A 
ATOM     28  C   UNL     1      72.541  60.059  14.230  0.00  0.00    +0.005 A 
ATOM     29  C   UNL     1      72.261  58.896  14.981  0.00  0.00    +0.013 A 
BRANCH  18  19
ATOM     19  C   UNL     1      72.200  62.520  13.599  0.00  0.00    +0.119 C 
BRANCH  19  20
ATOM     20  N   UNL     1      72.621  63.773  14.293  0.00  0.00    -0.302 NA
ATOM     21  C   UNL     1      71.442  64.721  14.533  0.00  0.00    +0.066 C 
ATOM     22  C   UNL     1      71.896  66.017  15.280  0.00  0.00    -0.064 C 
ATOM     23  N   UNL     1      72.992  66.711  14.470  0.00  0.00    +0.379 N 
ATOM     24  C   UNL     1      73.381  67.961  15.140  0.00  0.00    -0.096 C 
ATOM     25  H   UNL     1      72.561  66.979  13.477  0.00  0.00    -0.082 HD
ATOM     26  C   UNL     1      74.167  65.775  14.224  0.00  0.00    -0.064 C 
ATOM     27  C   UNL     1      73.700  64.478  13.508  0.00  0.00    +0.066 C 
ENDBRANCH  19  20
ENDBRANCH  18  19
ENDBRANCH  14  15
ENDBRANCH  12  13
TORSDOF 6
ENDMDL
MODEL 3
REMARK VINA RESULT:      -7.8      5.436     10.427
REMARK  Name = C:\Users\Docking\Desktop\test protocol\1iep_ligandH.pdb
REMARK  8 active torsions:
REMARK  status: ('A' for Active; 'I' for Inactive)
REMARK    1  A    between atoms: _5  and  _11
REMARK    2  A    between atoms: _19  and  _21
REMARK    3  A    between atoms: _22  and  _66
REMARK    4  A    between atoms: _27  and  _30
REMARK    5  A    between atoms: _32  and  _33
REMARK    6  A    between atoms: _38  and  _43
REMARK    7  A    between atoms: _43  and  _46
REMARK    8  A    between atoms: _53  and  _55
REMARK                            x       y       z     vdW  Elec       q    Type
REMARK                         _______ _______ _______ _____ _____    ______ ____
ROOT
ATOM     10  C   UNL     1      69.092  53.759  16.505  0.00  0.00    +0.038 A 
ATOM     11  C   UNL     1      68.548  53.729  17.814  0.00  0.00    +0.047 A 
ATOM     12  C   UNL     1      68.574  54.907  18.667  0.00  0.00    +0.035 A 
ATOM     32  C   UNL     1      69.160  56.100  18.153  0.00  0.00    +0.024 A 
ATOM     33  C   UNL     1      69.718  56.148  16.825  0.00  0.00    +0.007 A 
ATOM     34  C   UNL     1      69.698  54.989  15.980  0.00  0.00    -0.029 A 
ATOM     35  C   UNL     1      70.317  55.096  14.567  0.00  0.00    +0.045 C 
ENDROOT
BRANCH  10   9
ATOM      4  C   UNL     1      66.956  50.914  13.283  0.00  0.00    +0.077 A 
ATOM      5  C   UNL     1      65.837  51.801  13.154  0.00  0.00    +0.048 A 
ATOM      6  C   UNL     1      65.845  52.976  13.939  0.00  0.00    +0.116 A 
ATOM      7  N   UNL     1      66.901  53.233  14.787  0.00  0.00    -0.223 NA
ATOM      8  C   UNL     1      67.964  52.356  14.889  0.00  0.00    +0.220 A 
ATOM      9  N   UNL     1      69.040  52.599  15.729  0.00  0.00    -0.283 N 
ATOM     36  H   UNL     1      69.802  51.923  15.781  0.00  0.00    +0.155 HD
ATOM     37  N   UNL     1      67.979  51.227  14.150  0.00  0.00    -0.214 NA
BRANCH   4   3
ATOM      1  C   UNL     1      66.212  47.851  10.967  0.00  0.00    +0.020 A 
ATOM      2  C   UNL     1      66.027  49.090  11.687  0.00  0.00    +0.013 A 
ATOM      3  C   UNL     1      67.094  49.635  12.517  0.00  0.00    +0.019 A 
ATOM     38  C   UNL     1      68.345  48.896  12.597  0.00  0.00    +0.120 A 
ATOM     39  N   UNL     1      68.493  47.705  11.894  0.00  0.00    -0.263 NA
ATOM     40  C   UNL     1      67.473  47.170  11.093  0.00  0.00    +0.111 A 
ENDBRANCH   4   3
ENDBRANCH  10   9
BRANCH  12  13
ATOM     13  N   UNL     1      68.045  54.934  20.008  0.00  0.00    -0.281 N 
ATOM     14  C   UNL     1      68.567  54.333  21.142  0.00  0.00    +0.248 C 
ATOM     30  O   UNL     1      69.460  53.499  21.134  0.00  0.00    -0.270 OA
ATOM     31  H   UNL     1      67.180  55.459  20.137  0.00  0.00    +0.155 HD
BRANCH  14  15
ATOM     15  C   UNL     1      68.007  54.702  22.478  0.00  0.00    +0.037 A 
ATOM     16  C   UNL     1      68.708  55.633  23.365  0.00  0.00    +0.013 A 
ATOM     17  C   UNL     1      68.154  55.959  24.656  0.00  0.00    +0.005 A 
ATOM     18  C   UNL     1      66.889  55.353  25.065  0.00  0.00    -0.033 A 
ATOM     28  C   UNL     1      66.212  54.436  24.163  0.00  0.00    +0.005 A 
ATOM     29  C   UNL     1      66.753  54.114  22.898  0.00  0.00    +0.013 A 
BRANCH  18  19
ATOM     19  C   UNL     1      66.235  55.626  26.433  0.00  0.00    +0.119 C 
BRANCH  19  20
ATOM     20  N   UNL     1      64.749  55.778  26.462  0.00  0.00    -0.302 NA
ATOM     21  C   UNL     1      64.318  57.240  26.314  0.00  0.00    +0.066 C 
ATOM     22  C   UNL     1      62.761  57.378  26.324  0.00  0.00    -0.064 C 
ATOM     23  N   UNL     1      62.207  56.777  27.618  0.00  0.00    +0.379 N 
ATOM     24  C   UNL     1      60.748  56.957  27.656  0.00  0.00    -0.096 C 
ATOM     25  H   UNL     1      62.641  57.350  28.469  0.00  0.00    -0.082 HD
ATOM     26  C   UNL     1      62.633  55.324  27.773  0.00  0.00    -0.064 C 
ATOM     27  C   UNL     1      64.181  55.195  27.732  0.00  0.00    +0.066 C 
ENDBRANCH  19  20
ENDBRANCH  18  19
ENDBRANCH  14  15
ENDBRANCH  12  13
TORSDOF 6
ENDMDL
MODEL 4
REMARK VINA RESULT:      -7.8      5.972     10.902
REMARK  Name = C:\Users\Docking\Desktop\test protocol\1iep_ligandH.pdb
REMARK  8 active torsions:
REMARK  status: ('A' for Active; 'I' for Inactive)
REMARK    1  A    between atoms: _5  and  _11
REMARK    2  A    between atoms: _19  and  _21
REMARK    3  A    between atoms: _22  and  _66
REMARK    4  A    between atoms: _27  and  _30
REMARK    5  A    between atoms: _32  and  _33
REMARK    6  A    between atoms: _38  and  _43
REMARK    7  A    between atoms: _43  and  _46
REMARK    8  A    between atoms: _53  and  _55
REMARK                            x       y       z     vdW  Elec       q    Type
REMARK                         _______ _______ _______ _____ _____    ______ ____
ROOT
ATOM     10  C   UNL     1      69.377  54.076  18.683  0.00  0.00    +0.038 A 
ATOM     11  C   UNL     1      68.566  54.177  19.842  0.00  0.00    +0.047 A 
ATOM     12  C   UNL     1      68.837  55.175  20.866  0.00  0.00    +0.035 A 
ATOM     32  C   UNL     1      69.941  56.056  20.675  0.00  0.00    +0.024 A 
ATOM     33  C   UNL     1      70.776  55.966  19.503  0.00  0.00    +0.007 A 
ATOM     34  C   UNL     1      70.515  54.983  18.491  0.00  0.00    -0.029 A 
ATOM     35  C   UNL     1      71.447  54.928  17.258  0.00  0.00    +0.045 C 
ENDROOT
BRANCH  10   9
ATOM      4  C   UNL     1      67.210  52.623  14.654  0.00  0.00    +0.077 A 
ATOM      5  C   UNL     1      66.616  53.911  14.439  0.00  0.00    +0.048 A 
ATOM      6  C   UNL     1      66.887  54.918  15.392  0.00  0.00    +0.116 A 
ATOM      7  N   UNL     1      67.694  54.647  16.476  0.00  0.00    -0.223 NA
ATOM      8  C   UNL     1      68.250  53.393  16.654  0.00  0.00    +0.220 A 
ATOM      9  N   UNL     1      69.071  53.100  17.732  0.00  0.00    -0.283 N 
ATOM     36  H   UNL     1      69.455  52.161  17.832  0.00  0.00    +0.155 HD
ATOM     37  N   UNL     1      68.005  52.414  15.759  0.00  0.00    -0.214 NA
BRANCH   4   3
ATOM      1  C   UNL     1      65.735  50.181  11.978  0.00  0.00    +0.020 A 
ATOM      2  C   UNL     1      65.870  51.327  12.848  0.00  0.00    +0.013 A 
ATOM      3  C   UNL     1      67.021  51.458  13.733  0.00  0.00    +0.019 A 
ATOM     38  C   UNL     1      68.025  50.405  13.713  0.00  0.00    +0.120 A 
ATOM     39  N   UNL     1      67.868  49.313  12.865  0.00  0.00    -0.263 NA
ATOM     40  C   UNL     1      66.764  49.175  12.010  0.00  0.00    +0.111 A 
ENDBRANCH   4   3
ENDBRANCH  10   9
BRANCH  12  13
ATOM     13  N   UNL     1      68.053  55.319  22.067  0.00  0.00    -0.281 N 
ATOM     14  C   UNL     1      68.261  54.716  23.297  0.00  0.00    +0.248 C 
ATOM     30  O   UNL     1      69.033  53.788  23.490  0.00  0.00    -0.270 OA
ATOM     31  H   UNL     1      67.248  55.942  22.004  0.00  0.00    +0.155 HD
BRANCH  14  15
ATOM     15  C   UNL     1      67.488  55.203  24.480  0.00  0.00    +0.037 A 
ATOM     16  C   UNL     1      67.826  56.466  25.141  0.00  0.00    +0.013 A 
ATOM     17  C   UNL     1      67.075  56.904  26.291  0.00  0.00    +0.005 A 
ATOM     18  C   UNL     1      65.977  56.078  26.786  0.00  0.00    -0.033 A 
ATOM     28  C   UNL     1      65.660  54.832  26.108  0.00  0.00    +0.005 A 
ATOM     29  C   UNL     1      66.394  54.399  24.982  0.00  0.00    +0.013 A 
BRANCH  18  19
ATOM     19  C   UNL     1      65.136  56.458  28.019  0.00  0.00    +0.119 C 
BRANCH  19  20
ATOM     20  N   UNL     1      63.724  56.881  27.780  0.00  0.00    -0.302 NA
ATOM     21  C   UNL     1      62.768  55.686  27.722  0.00  0.00    +0.066 C 
ATOM     22  C   UNL     1      61.292  56.148  27.494  0.00  0.00    -0.064 C 
ATOM     23  N   UNL     1      61.211  56.969  26.206  0.00  0.00    +0.379 N 
ATOM     24  C   UNL     1      59.815  57.357  25.957  0.00  0.00    -0.096 C 
ATOM     25  H   UNL     1      61.535  56.313  25.365  0.00  0.00    -0.082 HD
ATOM     26  C   UNL     1      62.161  58.158  26.254  0.00  0.00    -0.064 C 
ATOM     27  C   UNL     1      63.620  57.690  26.511  0.00  0.00    +0.066 C 
ENDBRANCH  19  20
ENDBRANCH  18  19
ENDBRANCH  14  15
ENDBRANCH  12  13
TORSDOF 6
ENDMDL
MODEL 5
REMARK VINA RESULT:      -7.8      2.769      4.311
REMARK  Name = C:\Users\Docking\Desktop\test protocol\1iep_ligandH.pdb
REMARK  8 active torsions:
REMARK  status: ('A' for Active; 'I' for Inactive)
REMARK    1  A    between atoms: _5  and  _11
REMARK    2  A    between atoms: _19  and  _21
REMARK    3  A    between atoms: _22  and  _66
REMARK    4  A    between atoms: _27  and  _30
REMARK    5  A    between atoms: _32  and  _33
REMARK    6  A    between atoms: _38  and  _43
REMARK    7  A    between atoms: _43  and  _46
REMARK    8  A    between atoms: _53  and  _55
REMARK                            x       y       z     vdW  Elec       q    Type
REMARK                         _______ _______ _______ _____ _____    ______ ____
ROOT
ATOM     10  C   UNL     1      71.552  55.942  14.852  0.00  0.00    +0.038 A 
ATOM     11  C   UNL     1      71.505  57.190  14.181  0.00  0.00    +0.047 A 
ATOM     12  C   UNL     1      72.146  58.370  14.741  0.00  0.00    +0.035 A 
ATOM     32  C   UNL     1      72.828  58.241  15.986  0.00  0.00    +0.024 A 
ATOM     33  C   UNL     1      72.885  56.979  16.682  0.00  0.00    +0.007 A 
ATOM     34  C   UNL     1      72.252  55.813  16.135  0.00  0.00    -0.029 A 
ATOM     35  C   UNL     1      72.339  54.488  16.928  0.00  0.00    +0.045 C 
ENDROOT
BRANCH  10   9
ATOM      4  C   UNL     1      67.680  53.221  14.047  0.00  0.00    +0.077 A 
ATOM      5  C   UNL     1      66.854  54.046  14.881  0.00  0.00    +0.048 A 
ATOM      6  C   UNL     1      67.466  55.156  15.505  0.00  0.00    +0.116 A 
ATOM      7  N   UNL     1      68.804  55.413  15.302  0.00  0.00    -0.223 NA
ATOM      8  C   UNL     1      69.573  54.597  14.492  0.00  0.00    +0.220 A 
ATOM      9  N   UNL     1      70.919  54.842  14.268  0.00  0.00    -0.283 N 
ATOM     36  H   UNL     1      71.453  54.212  13.670  0.00  0.00    +0.155 HD
ATOM     37  N   UNL     1      69.013  53.530  13.887  0.00  0.00    -0.214 NA
BRANCH   4   3
ATOM      1  C   UNL     1      65.332  50.586  12.361  0.00  0.00    +0.020 A 
ATOM      2  C   UNL     1      65.764  51.767  13.072  0.00  0.00    +0.013 A 
ATOM      3  C   UNL     1      67.179  52.014  13.317  0.00  0.00    +0.019 A 
ATOM     38  C   UNL     1      68.140  51.038  12.824  0.00  0.00    +0.120 A 
ATOM     39  N   UNL     1      67.695  49.909  12.145  0.00  0.00    -0.263 NA
ATOM     40  C   UNL     1      66.335  49.660  11.905  0.00  0.00    +0.111 A 
ENDBRANCH   4   3
ENDBRANCH  10   9
BRANCH  12  13
ATOM     13  N   UNL     1      72.126  59.666  14.110  0.00  0.00    -0.281 N 
ATOM     14  C   UNL     1      71.562  60.838  14.588  0.00  0.00    +0.248 C 
ATOM     30  O   UNL     1      70.799  60.899  15.541  0.00  0.00    -0.270 OA
ATOM     31  H   UNL     1      72.582  59.727  13.200  0.00  0.00    +0.155 HD
BRANCH  14  15
ATOM     15  C   UNL     1      71.880  62.125  13.900  0.00  0.00    +0.037 A 
ATOM     16  C   UNL     1      70.826  62.945  13.296  0.00  0.00    +0.013 A 
ATOM     17  C   UNL     1      71.162  64.174  12.623  0.00  0.00    +0.005 A 
ATOM     18  C   UNL     1      72.560  64.593  12.551  0.00  0.00    -0.033 A 
ATOM     28  C   UNL     1      73.585  63.763  13.163  0.00  0.00    +0.005 A 
ATOM     29  C   UNL     1      73.259  62.557  13.823  0.00  0.00    +0.013 A 
BRANCH  18  19
ATOM     19  C   UNL     1      73.012  65.879  11.835  0.00  0.00    +0.119 C 
BRANCH  19  20
ATOM     20  N   UNL     1      73.632  66.947  12.674  0.00  0.00    -0.302 NA
ATOM     21  C   UNL     1      75.125  66.699  12.909  0.00  0.00    +0.066 C 
ATOM     22  C   UNL     1      75.762  67.838  13.770  0.00  0.00    -0.064 C 
ATOM     23  N   UNL     1      75.016  67.947  15.101  0.00  0.00    +0.379 N 
ATOM     24  C   UNL     1      75.649  68.977  15.936  0.00  0.00    -0.096 C 
ATOM     25  H   UNL     1      75.122  66.971  15.628  0.00  0.00    -0.082 HD
ATOM     26  C   UNL     1      73.530  68.191  14.876  0.00  0.00    -0.064 C 
ATOM     27  C   UNL     1      72.913  67.069  13.995  0.00  0.00    +0.066 C 
ENDBRANCH  19  20
ENDBRANCH  18  19
ENDBRANCH  14  15
ENDBRANCH  12  13
TORSDOF 6
ENDMDL
