MODEL 1
REMARK VINA RESULT:      -8.3      0.000      0.000
REMARK  Name = C:\Users\Docking\Desktop\test protocol\1iep_ligandH.pdb
REMARK  8 active torsions:
REMARK  status: ('A' for Active; 'I' for Inactive)
REMARK    1  A    between atoms: _5  and  _11
REMARK    2  A    between atoms: _19  and  _21
REMARK    3  A    between atoms: _22  and  _66
REMARK    4  A    between atoms: _27  and  _30
REMARK    5  A    between atoms: _32  and  _33
REMARK    6  A    between atoms: _38  and  _43
REMARK    7  A    between atoms: _43  and  _46
REMARK    8  A    between atoms: _53  and  _55
REMARK                            x       y       z     vdW  Elec       q    Type
REMARK                         _______ _______ _______ _____ _____    ______ ____
ROOT
ATOM     10  C   UNL     1      69.375 110.480  17.921  0.00  0.00    +0.038 A 
ATOM     11  C   UNL     1      69.943 111.624  17.303  0.00  0.00    +0.047 A 
ATOM     12  C   UNL     1      69.957 112.913  17.975  0.00  0.00    +0.035 A 
ATOM     32  C   UNL     1      69.386 113.002  19.278  0.00  0.00    +0.024 A 
ATOM     33  C   UNL     1      68.803 111.850  19.921  0.00  0.00    +0.007 A 
ATOM     34  C   UNL     1      68.784 110.576  19.261  0.00  0.00    -0.029 A 
ATOM     35  C   UNL     1      68.141 109.377  19.995  0.00  0.00    +0.045 C 
ENDROOT
BRANCH  10   9
ATOM      4  C   UNL     1      67.760 107.552  14.477  0.00  0.00    +0.077 A 
ATOM      5  C   UNL     1      66.789 108.511  14.035  0.00  0.00    +0.048 A 
ATOM      6  C   UNL     1      66.732 109.743  14.725  0.00  0.00    +0.116 A 
ATOM      7  N   UNL     1      67.589 109.987  15.777  0.00  0.00    -0.223 NA
ATOM      8  C   UNL     1      68.512 109.040  16.179  0.00  0.00    +0.220 A 
ATOM      9  N   UNL     1      69.388 109.267  17.229  0.00  0.00    -0.283 N 
ATOM     36  H   UNL     1      70.050 108.540  17.500  0.00  0.00    +0.155 HD
ATOM     37  N   UNL     1      68.585 107.855  15.538  0.00  0.00    -0.214 NA
BRANCH   4   3
ATOM      1  C   UNL     1      67.294 104.393  12.219  0.00  0.00    +0.020 A 
ATOM      2  C   UNL     1      67.073 105.699  12.794  0.00  0.00    +0.013 A 
ATOM      3  C   UNL     1      67.944 106.207  13.847  0.00  0.00    +0.019 A 
ATOM     38  C   UNL     1      69.038 105.360  14.299  0.00  0.00    +0.120 A 
ATOM     39  N   UNL     1      69.226 104.106  13.727  0.00  0.00    -0.263 NA
ATOM     40  C   UNL     1      68.393 103.606  12.714  0.00  0.00    +0.111 A 
ENDBRANCH   4   3
ENDBRANCH  10   9
BRANCH  12  13
ATOM     13  N   UNL     1      70.513 114.111  17.394  0.00  0.00    -0.281 N 
ATOM     14  C   UNL     1      71.847 114.410  17.174  0.00  0.00    +0.248 C 
ATOM     30  O   UNL     1      72.783 113.779  17.640  0.00  0.00    -0.270 OA
ATOM     31  H   UNL     1      69.840 114.824  17.112  0.00  0.00    +0.155 HD
BRANCH  14  15
ATOM     15  C   UNL     1      72.191 115.590  16.323  0.00  0.00    +0.037 A 
ATOM     16  C   UNL     1      72.905 115.429  15.054  0.00  0.00    +0.013 A 
ATOM     17  C   UNL     1      73.240 116.585  14.260  0.00  0.00    +0.005 A 
ATOM     18  C   UNL     1      72.858 117.913  14.734  0.00  0.00    -0.033 A 
ATOM     28  C   UNL     1      72.146 118.044  15.995  0.00  0.00    +0.005 A 
ATOM     29  C   UNL     1      71.817 116.913  16.775  0.00  0.00    +0.013 A 
BRANCH  18  19
ATOM     19  C   UNL     1      73.193 119.204  13.964  0.00  0.00    +0.119 C 
BRANCH  19  20
ATOM     20  N   UNL     1      73.461 119.077  12.500  0.00  0.00    -0.302 NA
ATOM     21  C   UNL     1      74.223 120.285  11.948  0.00  0.00    +0.066 C 
ATOM     22  C   UNL     1      74.515 120.124  10.421  0.00  0.00    -0.064 C 
ATOM     23  N   UNL     1      73.197 119.927   9.670  0.00  0.00    +0.379 N 
ATOM     24  C   UNL     1      73.463 119.834   8.228  0.00  0.00    -0.096 C 
ATOM     25  H   UNL     1      72.572 120.834   9.842  0.00  0.00    -0.082 HD
ATOM     26  C   UNL     1      72.431 118.729  10.215  0.00  0.00    -0.064 C 
ATOM     27  C   UNL     1      72.172 118.885  11.739  0.00  0.00    +0.066 C 
ENDBRANCH  19  20
ENDBRANCH  18  19
ENDBRANCH  14  15
ENDBRANCH  12  13
TORSDOF 6
ENDMDL
MODEL 2
REMARK VINA RESULT:      -8.0      5.412     10.453
REMARK  Name = C:\Users\Docking\Desktop\test protocol\1iep_ligandH.pdb
REMARK  8 active torsions:
REMARK  status: ('A' for Active; 'I' for Inactive)
REMARK    1  A    between atoms: _5  and  _11
REMARK    2  A    between atoms: _19  and  _21
REMARK    3  A    between atoms: _22  and  _66
REMARK    4  A    between atoms: _27  and  _30
REMARK    5  A    between atoms: _32  and  _33
REMARK    6  A    between atoms: _38  and  _43
REMARK    7  A    between atoms: _43  and  _46
REMARK    8  A    between atoms: _53  and  _55
REMARK                            x       y       z     vdW  Elec       q    Type
REMARK                         _______ _______ _______ _____ _____    ______ ____
ROOT
ATOM     10  C   UNL     1      69.481 110.301  17.098  0.00  0.00    +0.038 A 
ATOM     11  C   UNL     1      68.957 110.336  18.416  0.00  0.00    +0.047 A 
ATOM     12  C   UNL     1      68.906 111.577  19.172  0.00  0.00    +0.035 A 
ATOM     32  C   UNL     1      69.394 112.765  18.555  0.00  0.00    +0.024 A 
ATOM     33  C   UNL     1      69.931 112.747  17.216  0.00  0.00    +0.007 A 
ATOM     34  C   UNL     1      69.986 111.525  16.467  0.00  0.00    -0.029 A 
ATOM     35  C   UNL     1      70.578 111.564  15.038  0.00  0.00    +0.045 C 
ENDROOT
BRANCH  10   9
ATOM      4  C   UNL     1      67.586 107.116  14.048  0.00  0.00    +0.077 A 
ATOM      5  C   UNL     1      66.436 107.939  13.809  0.00  0.00    +0.048 A 
ATOM      6  C   UNL     1      66.367 109.172  14.497  0.00  0.00    +0.116 A 
ATOM      7  N   UNL     1      67.378 109.543  15.356  0.00  0.00    -0.223 NA
ATOM      8  C   UNL     1      68.473 108.724  15.565  0.00  0.00    +0.220 A 
ATOM      9  N   UNL     1      69.506 109.081  16.418  0.00  0.00    -0.283 N 
ATOM     36  H   UNL     1      70.293 108.446  16.550  0.00  0.00    +0.155 HD
ATOM     37  N   UNL     1      68.562 107.542  14.921  0.00  0.00    -0.214 NA
BRANCH   4   3
ATOM      1  C   UNL     1      67.122 103.919  11.841  0.00  0.00    +0.020 A 
ATOM      2  C   UNL     1      66.863 105.206  12.446  0.00  0.00    +0.013 A 
ATOM      3  C   UNL     1      67.805 105.787  13.393  0.00  0.00    +0.019 A 
ATOM     38  C   UNL     1      69.011 105.036  13.709  0.00  0.00    +0.120 A 
ATOM     39  N   UNL     1      69.233 103.799  13.113  0.00  0.00    -0.263 NA
ATOM     40  C   UNL     1      68.332 103.228  12.201  0.00  0.00    +0.111 A 
ENDBRANCH   4   3
ENDBRANCH  10   9
BRANCH  12  13
ATOM     13  N   UNL     1      68.393 111.673  20.517  0.00  0.00    -0.281 N 
ATOM     14  C   UNL     1      69.028 111.326  21.697  0.00  0.00    +0.248 C 
ATOM     30  O   UNL     1      70.062 110.677  21.761  0.00  0.00    -0.270 OA
ATOM     31  H   UNL     1      67.446 112.041  20.609  0.00  0.00    +0.155 HD
BRANCH  14  15
ATOM     15  C   UNL     1      68.420 111.748  22.996  0.00  0.00    +0.037 A 
ATOM     16  C   UNL     1      68.972 112.866  23.766  0.00  0.00    +0.013 A 
ATOM     17  C   UNL     1      68.377 113.242  25.023  0.00  0.00    +0.005 A 
ATOM     18  C   UNL     1      67.221 112.499  25.519  0.00  0.00    -0.033 A 
ATOM     28  C   UNL     1      66.690 111.398  24.732  0.00  0.00    +0.005 A 
ATOM     29  C   UNL     1      67.271 111.026  23.499  0.00  0.00    +0.013 A 
BRANCH  18  19
ATOM     19  C   UNL     1      66.534 112.817  26.860  0.00  0.00    +0.119 C 
BRANCH  19  20
ATOM     20  N   UNL     1      65.084 113.170  26.820  0.00  0.00    -0.302 NA
ATOM     21  C   UNL     1      64.862 114.657  26.527  0.00  0.00    +0.066 C 
ATOM     22  C   UNL     1      63.339 115.004  26.466  0.00  0.00    -0.064 C 
ATOM     23  N   UNL     1      62.675 114.607  27.786  0.00  0.00    +0.379 N 
ATOM     24  C   UNL     1      61.255 114.985  27.753  0.00  0.00    -0.096 C 
ATOM     25  H   UNL     1      63.163 115.193  28.599  0.00  0.00    -0.082 HD
ATOM     26  C   UNL     1      62.893 113.131  28.086  0.00  0.00    -0.064 C 
ATOM     27  C   UNL     1      64.409 112.790  28.115  0.00  0.00    +0.066 C 
ENDBRANCH  19  20
ENDBRANCH  18  19
ENDBRANCH  14  15
ENDBRANCH  12  13
TORSDOF 6
ENDMDL
MODEL 3
REMARK VINA RESULT:      -7.9      5.832     12.337
REMARK  Name = C:\Users\Docking\Desktop\test protocol\1iep_ligandH.pdb
REMARK  8 active torsions:
REMARK  status: ('A' for Active; 'I' for Inactive)
REMARK    1  A    between atoms: _5  and  _11
REMARK    2  A    between atoms: _19  and  _21
REMARK    3  A    between atoms: _22  and  _66
REMARK    4  A    between atoms: _27  and  _30
REMARK    5  A    between atoms: _32  and  _33
REMARK    6  A    between atoms: _38  and  _43
REMARK    7  A    between atoms: _43  and  _46
REMARK    8  A    between atoms: _53  and  _55
REMARK                            x       y       z     vdW  Elec       q    Type
REMARK                         _______ _______ _______ _____ _____    ______ ____
ROOT
ATOM     10  C   UNL     1      68.027 111.873  19.168  0.00  0.00    +0.038 A 
ATOM     11  C   UNL     1      67.714 110.700  18.436  0.00  0.00    +0.047 A 
ATOM     12  C   UNL     1      68.332 110.429  17.148  0.00  0.00    +0.035 A 
ATOM     32  C   UNL     1      69.268 111.374  16.636  0.00  0.00    +0.024 A 
ATOM     33  C   UNL     1      69.597 112.573  17.366  0.00  0.00    +0.007 A 
ATOM     34  C   UNL     1      68.988 112.847  18.636  0.00  0.00    -0.029 A 
ATOM     35  C   UNL     1      69.374 114.151  19.372  0.00  0.00    +0.045 C 
ENDROOT
BRANCH  10   9
ATOM      4  C   UNL     1      67.575 111.059  23.876  0.00  0.00    +0.077 A 
ATOM      5  C   UNL     1      68.655 110.115  23.877  0.00  0.00    +0.048 A 
ATOM      6  C   UNL     1      69.296 109.862  22.644  0.00  0.00    +0.116 A 
ATOM      7  N   UNL     1      68.880 110.510  21.501  0.00  0.00    -0.223 NA
ATOM      8  C   UNL     1      67.833 111.414  21.535  0.00  0.00    +0.220 A 
ATOM      9  N   UNL     1      67.403 112.083  20.400  0.00  0.00    -0.283 N 
ATOM     36  H   UNL     1      66.623 112.737  20.465  0.00  0.00    +0.155 HD
ATOM     37  N   UNL     1      67.204 111.671  22.700  0.00  0.00    -0.214 NA
BRANCH   4   3
ATOM      1  C   UNL     1      65.337 110.878  27.080  0.00  0.00    +0.020 A 
ATOM      2  C   UNL     1      66.069 110.463  25.905  0.00  0.00    +0.013 A 
ATOM      3  C   UNL     1      66.800 111.434  25.102  0.00  0.00    +0.019 A 
ATOM     38  C   UNL     1      66.772 112.828  25.518  0.00  0.00    +0.120 A 
ATOM     39  N   UNL     1      66.058 113.199  26.653  0.00  0.00    -0.263 NA
ATOM     40  C   UNL     1      65.349 112.273  27.433  0.00  0.00    +0.111 A 
ENDBRANCH   4   3
ENDBRANCH  10   9
BRANCH  12  13
ATOM     13  N   UNL     1      68.048 109.258  16.356  0.00  0.00    -0.281 N 
ATOM     14  C   UNL     1      67.403 109.194  15.131  0.00  0.00    +0.248 C 
ATOM     30  O   UNL     1      66.782 110.118  14.629  0.00  0.00    -0.270 OA
ATOM     31  H   UNL     1      68.359 108.368  16.745  0.00  0.00    +0.155 HD
BRANCH  14  15
ATOM     15  C   UNL     1      67.444 107.915  14.360  0.00  0.00    +0.037 A 
ATOM     16  C   UNL     1      66.367 107.550  13.436  0.00  0.00    +0.013 A 
ATOM     17  C   UNL     1      66.422 106.302  12.717  0.00  0.00    +0.005 A 
ATOM     18  C   UNL     1      67.561 105.409  12.918  0.00  0.00    -0.033 A 
ATOM     28  C   UNL     1      68.618 105.798  13.837  0.00  0.00    +0.005 A 
ATOM     29  C   UNL     1      68.567 107.020  14.544  0.00  0.00    +0.013 A 
BRANCH  18  19
ATOM     19  C   UNL     1      67.692 104.048  12.209  0.00  0.00    +0.119 C 
BRANCH  19  20
ATOM     20  N   UNL     1      68.584 103.031  12.842  0.00  0.00    -0.302 NA
ATOM     21  C   UNL     1      69.320 102.185  11.800  0.00  0.00    +0.066 C 
ATOM     22  C   UNL     1      70.265 101.141  12.479  0.00  0.00    -0.064 C 
ATOM     23  N   UNL     1      69.448 100.253  13.419  0.00  0.00    +0.379 N 
ATOM     24  C   UNL     1      70.324  99.233  14.015  0.00  0.00    -0.096 C 
ATOM     25  H   UNL     1      68.683  99.724  12.804  0.00  0.00    -0.082 HD
ATOM     26  C   UNL     1      68.711 101.087  14.457  0.00  0.00    -0.064 C 
ATOM     27  C   UNL     1      67.797 102.141  13.772  0.00  0.00    +0.066 C 
ENDBRANCH  19  20
ENDBRANCH  18  19
ENDBRANCH  14  15
ENDBRANCH  12  13
TORSDOF 6
ENDMDL
MODEL 4
REMARK VINA RESULT:      -7.8      5.470     11.473
REMARK  Name = C:\Users\Docking\Desktop\test protocol\1iep_ligandH.pdb
REMARK  8 active torsions:
REMARK  status: ('A' for Active; 'I' for Inactive)
REMARK    1  A    between atoms: _5  and  _11
REMARK    2  A    between atoms: _19  and  _21
REMARK    3  A    between atoms: _22  and  _66
REMARK    4  A    between atoms: _27  and  _30
REMARK    5  A    between atoms: _32  and  _33
REMARK    6  A    between atoms: _38  and  _43
REMARK    7  A    between atoms: _43  and  _46
REMARK    8  A    between atoms: _53  and  _55
REMARK                            x       y       z     vdW  Elec       q    Type
REMARK                         _______ _______ _______ _____ _____    ______ ____
ROOT
ATOM     10  C   UNL     1      69.694 110.170  17.018  0.00  0.00    +0.038 A 
ATOM     11  C   UNL     1      69.375 110.132  18.399  0.00  0.00    +0.047 A 
ATOM     12  C   UNL     1      69.388 111.341  19.208  0.00  0.00    +0.035 A 
ATOM     32  C   UNL     1      69.728 112.572  18.576  0.00  0.00    +0.024 A 
ATOM     33  C   UNL     1      70.055 112.629  17.173  0.00  0.00    +0.007 A 
ATOM     34  C   UNL     1      70.047 111.440  16.371  0.00  0.00    -0.029 A 
ATOM     35  C   UNL     1      70.413 111.559  14.873  0.00  0.00    +0.045 C 
ENDROOT
BRANCH  10   9
ATOM      4  C   UNL     1      67.553 107.088  14.024  0.00  0.00    +0.077 A 
ATOM      5  C   UNL     1      66.380 107.908  13.926  0.00  0.00    +0.048 A 
ATOM      6  C   UNL     1      66.364 109.111  14.666  0.00  0.00    +0.116 A 
ATOM      7  N   UNL     1      67.447 109.459  15.444  0.00  0.00    -0.223 NA
ATOM      8  C   UNL     1      68.563 108.645  15.519  0.00  0.00    +0.220 A 
ATOM      9  N   UNL     1      69.666 108.979  16.289  0.00  0.00    -0.283 N 
ATOM     36  H   UNL     1      70.467 108.348  16.323  0.00  0.00    +0.155 HD
ATOM     37  N   UNL     1      68.601 107.490  14.822  0.00  0.00    -0.214 NA
BRANCH   4   3
ATOM      1  C   UNL     1      66.948 104.016  11.680  0.00  0.00    +0.020 A 
ATOM      2  C   UNL     1      66.737 105.276  12.355  0.00  0.00    +0.013 A 
ATOM      3  C   UNL     1      67.722 105.790  13.299  0.00  0.00    +0.019 A 
ATOM     38  C   UNL     1      68.919 104.998  13.540  0.00  0.00    +0.120 A 
ATOM     39  N   UNL     1      69.094 103.787  12.877  0.00  0.00    -0.263 NA
ATOM     40  C   UNL     1      68.153 103.282  11.967  0.00  0.00    +0.111 A 
ENDBRANCH   4   3
ENDBRANCH  10   9
BRANCH  12  13
ATOM     13  N   UNL     1      69.081 111.362  20.617  0.00  0.00    -0.281 N 
ATOM     14  C   UNL     1      67.846 111.198  21.222  0.00  0.00    +0.248 C 
ATOM     30  O   UNL     1      66.777 111.221  20.629  0.00  0.00    -0.270 OA
ATOM     31  H   UNL     1      69.870 111.517  21.244  0.00  0.00    +0.155 HD
BRANCH  14  15
ATOM     15  C   UNL     1      67.787 110.994  22.701  0.00  0.00    +0.037 A 
ATOM     16  C   UNL     1      66.595 111.355  23.472  0.00  0.00    +0.013 A 
ATOM     17  C   UNL     1      66.571 111.163  24.900  0.00  0.00    +0.005 A 
ATOM     18  C   UNL     1      67.746 110.606  25.567  0.00  0.00    -0.033 A 
ATOM     28  C   UNL     1      68.913 110.252  24.778  0.00  0.00    +0.005 A 
ATOM     29  C   UNL     1      68.940 110.439  23.378  0.00  0.00    +0.013 A 
BRANCH  18  19
ATOM     19  C   UNL     1      67.817 110.387  27.090  0.00  0.00    +0.119 C 
BRANCH  19  20
ATOM     20  N   UNL     1      68.084 108.997  27.569  0.00  0.00    -0.302 NA
ATOM     21  C   UNL     1      66.798 108.274  27.979  0.00  0.00    +0.066 C 
ATOM     22  C   UNL     1      67.092 106.815  28.456  0.00  0.00    -0.064 C 
ATOM     23  N   UNL     1      68.087 106.852  29.618  0.00  0.00    +0.379 N 
ATOM     24  C   UNL     1      68.322 105.486  30.107  0.00  0.00    -0.096 C 
ATOM     25  H   UNL     1      67.617 107.432  30.446  0.00  0.00    -0.082 HD
ATOM     26  C   UNL     1      69.367 107.572  29.220  0.00  0.00    -0.064 C 
ATOM     27  C   UNL     1      69.060 109.011  28.719  0.00  0.00    +0.066 C 
ENDBRANCH  19  20
ENDBRANCH  18  19
ENDBRANCH  14  15
ENDBRANCH  12  13
TORSDOF 6
ENDMDL
MODEL 5
REMARK VINA RESULT:      -7.7      5.650     11.268
REMARK  Name = C:\Users\Docking\Desktop\test protocol\1iep_ligandH.pdb
REMARK  8 active torsions:
REMARK  status: ('A' for Active; 'I' for Inactive)
REMARK    1  A    between atoms: _5  and  _11
REMARK    2  A    between atoms: _19  and  _21
REMARK    3  A    between atoms: _22  and  _66
REMARK    4  A    between atoms: _27  and  _30
REMARK    5  A    between atoms: _32  and  _33
REMARK    6  A    between atoms: _38  and  _43
REMARK    7  A    between atoms: _43  and  _46
REMARK    8  A    between atoms: _53  and  _55
REMARK                            x       y       z     vdW  Elec       q    Type
REMARK                         _______ _______ _______ _____ _____    ______ ____
ROOT
ATOM     10  C   UNL     1      69.423 109.892  16.929  0.00  0.00    +0.038 A 
ATOM     11  C   UNL     1      68.945 109.877  18.264  0.00  0.00    +0.047 A 
ATOM     12  C   UNL     1      68.881 111.097  19.054  0.00  0.00    +0.035 A 
ATOM     32  C   UNL     1      69.310 112.316  18.451  0.00  0.00    +0.024 A 
ATOM     33  C   UNL     1      69.800 112.349  17.095  0.00  0.00    +0.007 A 
ATOM     34  C   UNL     1      69.867 111.148  16.312  0.00  0.00    -0.029 A 
ATOM     35  C   UNL     1      70.407 111.241  14.866  0.00  0.00    +0.045 C 
ENDROOT
BRANCH  10   9
ATOM      4  C   UNL     1      67.541 106.741  13.836  0.00  0.00    +0.077 A 
ATOM      5  C   UNL     1      66.367 107.542  13.643  0.00  0.00    +0.048 A 
ATOM      6  C   UNL     1      66.282 108.754  14.364  0.00  0.00    +0.116 A 
ATOM      7  N   UNL     1      67.303 109.128  15.211  0.00  0.00    -0.223 NA
ATOM      8  C   UNL     1      68.421 108.331  15.376  0.00  0.00    +0.220 A 
ATOM      9  N   UNL     1      69.463 108.691  16.216  0.00  0.00    -0.283 N 
ATOM     36  H   UNL     1      70.267 108.073  16.316  0.00  0.00    +0.155 HD
ATOM     37  N   UNL     1      68.525 107.168  14.700  0.00  0.00    -0.214 NA
BRANCH   4   3
ATOM      1  C   UNL     1      67.129 103.615  11.522  0.00  0.00    +0.020 A 
ATOM      2  C   UNL     1      66.853 104.879  12.163  0.00  0.00    +0.013 A 
ATOM      3  C   UNL     1      67.778 105.435  13.143  0.00  0.00    +0.019 A 
ATOM     38  C   UNL     1      68.983 104.681  13.453  0.00  0.00    +0.120 A 
ATOM     39  N   UNL     1      69.221 103.465  12.820  0.00  0.00    -0.263 NA
ATOM     40  C   UNL     1      68.338 102.919  11.877  0.00  0.00    +0.111 A 
ENDBRANCH   4   3
ENDBRANCH  10   9
BRANCH  12  13
ATOM     13  N   UNL     1      68.413 111.143  20.417  0.00  0.00    -0.281 N 
ATOM     14  C   UNL     1      68.299 110.093  21.313  0.00  0.00    +0.248 C 
ATOM     30  O   UNL     1      68.383 108.912  21.010  0.00  0.00    -0.270 OA
ATOM     31  H   UNL     1      68.131 112.060  20.762  0.00  0.00    +0.155 HD
BRANCH  14  15
ATOM     15  C   UNL     1      68.041 110.398  22.754  0.00  0.00    +0.037 A 
ATOM     16  C   UNL     1      68.939 109.915  23.806  0.00  0.00    +0.013 A 
ATOM     17  C   UNL     1      68.658 110.210  25.188  0.00  0.00    +0.005 A 
ATOM     18  C   UNL     1      67.472 110.994  25.527  0.00  0.00    -0.033 A 
ATOM     28  C   UNL     1      66.601 111.465  24.463  0.00  0.00    +0.005 A 
ATOM     29  C   UNL     1      66.873 111.177  23.106  0.00  0.00    +0.013 A 
BRANCH  18  19
ATOM     19  C   UNL     1      67.083 111.337  26.977  0.00  0.00    +0.119 C 
BRANCH  19  20
ATOM     20  N   UNL     1      65.645 111.192  27.351  0.00  0.00    -0.302 NA
ATOM     21  C   UNL     1      65.295 111.993  28.609  0.00  0.00    +0.066 C 
ATOM     22  C   UNL     1      63.781 111.847  28.973  0.00  0.00    -0.064 C 
ATOM     23  N   UNL     1      63.445 110.367  29.162  0.00  0.00    +0.379 N 
ATOM     24  C   UNL     1      62.036 110.231  29.561  0.00  0.00    -0.096 C 
ATOM     25  H   UNL     1      64.073 109.982  29.999  0.00  0.00    -0.082 HD
ATOM     26  C   UNL     1      63.792 109.563  27.917  0.00  0.00    -0.064 C 
ATOM     27  C   UNL     1      65.291 109.738  27.547  0.00  0.00    +0.066 C 
ENDBRANCH  19  20
ENDBRANCH  18  19
ENDBRANCH  14  15
ENDBRANCH  12  13
TORSDOF 6
ENDMDL
