MODEL 1
REMARK VINA RESULT:      -8.7      0.000      0.000
REMARK  Name = C:\Users\Docking\Desktop\test protocol\1iep_ligandH.pdb
REMARK  8 active torsions:
REMARK  status: ('A' for Active; 'I' for Inactive)
REMARK    1  A    between atoms: _5  and  _11
REMARK    2  A    between atoms: _19  and  _21
REMARK    3  A    between atoms: _22  and  _66
REMARK    4  A    between atoms: _27  and  _30
REMARK    5  A    between atoms: _32  and  _33
REMARK    6  A    between atoms: _38  and  _43
REMARK    7  A    between atoms: _43  and  _46
REMARK    8  A    between atoms: _53  and  _55
REMARK                            x       y       z     vdW  Elec       q    Type
REMARK                         _______ _______ _______ _____ _____    ______ ____
ROOT
ATOM     10  C   UNL     1      18.101  68.925   8.268  0.00  0.00    +0.038 A 
ATOM     11  C   UNL     1      17.978  69.873   9.316  0.00  0.00    +0.047 A 
ATOM     12  C   UNL     1      18.315  71.273   9.107  0.00  0.00    +0.035 A 
ATOM     32  C   UNL     1      18.773  71.672   7.818  0.00  0.00    +0.024 A 
ATOM     33  C   UNL     1      18.905  70.722   6.742  0.00  0.00    +0.007 A 
ATOM     34  C   UNL     1      18.577  69.339   6.943  0.00  0.00    -0.029 A 
ATOM     35  C   UNL     1      18.744  68.363   5.756  0.00  0.00    +0.045 C 
ENDROOT
BRANCH  10   9
ATOM      4  C   UNL     1      15.142  65.567  10.001  0.00  0.00    +0.077 A 
ATOM      5  C   UNL     1      14.201  66.548  10.460  0.00  0.00    +0.048 A 
ATOM      6  C   UNL     1      14.520  67.907  10.237  0.00  0.00    +0.116 A 
ATOM      7  N   UNL     1      15.694  68.246   9.601  0.00  0.00    -0.223 NA
ATOM      8  C   UNL     1      16.580  67.275   9.173  0.00  0.00    +0.220 A 
ATOM      9  N   UNL     1      17.764  67.594   8.524  0.00  0.00    -0.283 N 
ATOM     36  H   UNL     1      18.394  66.848   8.230  0.00  0.00    +0.155 HD
ATOM     37  N   UNL     1      16.300  65.971   9.375  0.00  0.00    -0.214 NA
BRANCH   4   3
ATOM      1  C   UNL     1      15.788  61.762  10.638  0.00  0.00    +0.020 A 
ATOM      2  C   UNL     1      16.031  63.179  10.495  0.00  0.00    +0.013 A 
ATOM      3  C   UNL     1      14.945  64.091  10.160  0.00  0.00    +0.019 A 
ATOM     38  C   UNL     1      13.614  63.533   9.976  0.00  0.00    +0.120 A 
ATOM     39  N   UNL     1      13.410  62.164  10.118  0.00  0.00    -0.263 NA
ATOM     40  C   UNL     1      14.447  61.277  10.439  0.00  0.00    +0.111 A 
ENDBRANCH   4   3
ENDBRANCH  10   9
BRANCH  12  13
ATOM     13  N   UNL     1      18.217  72.279  10.135  0.00  0.00    -0.281 N 
ATOM     14  C   UNL     1      17.069  72.834  10.677  0.00  0.00    +0.248 C 
ATOM     30  O   UNL     1      15.949  72.702  10.207  0.00  0.00    -0.270 OA
ATOM     31  H   UNL     1      19.101  72.625  10.508  0.00  0.00    +0.155 HD
BRANCH  14  15
ATOM     15  C   UNL     1      17.184  73.668  11.912  0.00  0.00    +0.037 A 
ATOM     16  C   UNL     1      17.416  75.113  11.835  0.00  0.00    +0.013 A 
ATOM     17  C   UNL     1      17.540  75.891  13.041  0.00  0.00    +0.005 A 
ATOM     18  C   UNL     1      17.431  75.226  14.337  0.00  0.00    -0.033 A 
ATOM     28  C   UNL     1      17.196  73.792  14.385  0.00  0.00    +0.005 A 
ATOM     29  C   UNL     1      17.075  73.026  13.205  0.00  0.00    +0.013 A 
BRANCH  18  19
ATOM     19  C   UNL     1      17.571  75.974  15.676  0.00  0.00    +0.119 C 
BRANCH  19  20
ATOM     20  N   UNL     1      17.349  75.187  16.926  0.00  0.00    -0.302 NA
ATOM     21  C   UNL     1      15.922  75.345  17.458  0.00  0.00    +0.066 C 
ATOM     22  C   UNL     1      15.701  74.497  18.753  0.00  0.00    -0.064 C 
ATOM     23  N   UNL     1      16.723  74.912  19.813  0.00  0.00    +0.379 N 
ATOM     24  C   UNL     1      16.481  74.158  21.051  0.00  0.00    -0.096 C 
ATOM     25  H   UNL     1      16.559  75.992  20.036  0.00  0.00    -0.082 HD
ATOM     26  C   UNL     1      18.145  74.761  19.290  0.00  0.00    -0.064 C 
ATOM     27  C   UNL     1      18.346  75.584  17.987  0.00  0.00    +0.066 C 
ENDBRANCH  19  20
ENDBRANCH  18  19
ENDBRANCH  14  15
ENDBRANCH  12  13
TORSDOF 6
ENDMDL
MODEL 2
REMARK VINA RESULT:      -8.6      4.161     10.564
REMARK  Name = C:\Users\Docking\Desktop\test protocol\1iep_ligandH.pdb
REMARK  8 active torsions:
REMARK  status: ('A' for Active; 'I' for Inactive)
REMARK    1  A    between atoms: _5  and  _11
REMARK    2  A    between atoms: _19  and  _21
REMARK    3  A    between atoms: _22  and  _66
REMARK    4  A    between atoms: _27  and  _30
REMARK    5  A    between atoms: _32  and  _33
REMARK    6  A    between atoms: _38  and  _43
REMARK    7  A    between atoms: _43  and  _46
REMARK    8  A    between atoms: _53  and  _55
REMARK                            x       y       z     vdW  Elec       q    Type
REMARK                         _______ _______ _______ _____ _____    ______ ____
ROOT
ATOM     10  C   UNL     1      18.805  70.231   7.264  0.00  0.00    +0.038 A 
ATOM     11  C   UNL     1      18.592  69.152   8.160  0.00  0.00    +0.047 A 
ATOM     12  C   UNL     1      18.418  67.793   7.672  0.00  0.00    +0.035 A 
ATOM     32  C   UNL     1      18.470  67.568   6.265  0.00  0.00    +0.024 A 
ATOM     33  C   UNL     1      18.684  68.653   5.341  0.00  0.00    +0.007 A 
ATOM     34  C   UNL     1      18.854  69.997   5.816  0.00  0.00    -0.029 A 
ATOM     35  C   UNL     1      19.075  71.122   4.779  0.00  0.00    +0.045 C 
ENDROOT
BRANCH  10   9
ATOM      4  C   UNL     1      17.044  74.369   8.942  0.00  0.00    +0.077 A 
ATOM      5  C   UNL     1      15.690  73.945   8.734  0.00  0.00    +0.048 A 
ATOM      6  C   UNL     1      15.489  72.658   8.187  0.00  0.00    +0.116 A 
ATOM      7  N   UNL     1      16.570  71.862   7.875  0.00  0.00    -0.223 NA
ATOM      8  C   UNL     1      17.864  72.302   8.086  0.00  0.00    +0.220 A 
ATOM      9  N   UNL     1      18.966  71.516   7.787  0.00  0.00    -0.283 N 
ATOM     36  H   UNL     1      19.904  71.880   7.951  0.00  0.00    +0.155 HD
ATOM     37  N   UNL     1      18.082  73.528   8.607  0.00  0.00    -0.214 NA
BRANCH   4   3
ATOM      1  C   UNL     1      18.072  78.127   9.294  0.00  0.00    +0.020 A 
ATOM      2  C   UNL     1      17.717  76.863   8.690  0.00  0.00    +0.013 A 
ATOM      3  C   UNL     1      17.418  75.700   9.516  0.00  0.00    +0.019 A 
ATOM     38  C   UNL     1      17.489  75.850  10.962  0.00  0.00    +0.120 A 
ATOM     39  N   UNL     1      17.836  77.079  11.515  0.00  0.00    -0.263 NA
ATOM     40  C   UNL     1      18.126  78.205  10.730  0.00  0.00    +0.111 A 
ENDBRANCH   4   3
ENDBRANCH  10   9
BRANCH  12  13
ATOM     13  N   UNL     1      18.191  66.658   8.532  0.00  0.00    -0.281 N 
ATOM     14  C   UNL     1      17.188  66.491   9.473  0.00  0.00    +0.248 C 
ATOM     30  O   UNL     1      16.456  67.385   9.870  0.00  0.00    -0.270 OA
ATOM     31  H   UNL     1      18.849  65.885   8.437  0.00  0.00    +0.155 HD
BRANCH  14  15
ATOM     15  C   UNL     1      16.977  65.137  10.070  0.00  0.00    +0.037 A 
ATOM     16  C   UNL     1      17.741  63.975   9.609  0.00  0.00    +0.013 A 
ATOM     17  C   UNL     1      17.506  62.678  10.191  0.00  0.00    +0.005 A 
ATOM     18  C   UNL     1      16.501  62.535  11.242  0.00  0.00    -0.033 A 
ATOM     28  C   UNL     1      15.761  63.705  11.684  0.00  0.00    +0.005 A 
ATOM     29  C   UNL     1      15.988  64.979  11.116  0.00  0.00    +0.013 A 
BRANCH  18  19
ATOM     19  C   UNL     1      16.169  61.185  11.904  0.00  0.00    +0.119 C 
BRANCH  19  20
ATOM     20  N   UNL     1      16.607  60.991  13.318  0.00  0.00    -0.302 NA
ATOM     21  C   UNL     1      15.934  61.985  14.269  0.00  0.00    +0.066 C 
ATOM     22  C   UNL     1      16.385  61.753  15.748  0.00  0.00    -0.064 C 
ATOM     23  N   UNL     1      17.908  61.865  15.836  0.00  0.00    +0.379 N 
ATOM     24  C   UNL     1      18.331  61.705  17.235  0.00  0.00    -0.096 C 
ATOM     25  H   UNL     1      18.191  62.894  15.513  0.00  0.00    -0.082 HD
ATOM     26  C   UNL     1      18.585  60.882  14.892  0.00  0.00    -0.064 C 
ATOM     27  C   UNL     1      18.107  61.101  13.429  0.00  0.00    +0.066 C 
ENDBRANCH  19  20
ENDBRANCH  18  19
ENDBRANCH  14  15
ENDBRANCH  12  13
TORSDOF 6
ENDMDL
MODEL 3
REMARK VINA RESULT:      -8.6     20.836     22.899
REMARK  Name = C:\Users\Docking\Desktop\test protocol\1iep_ligandH.pdb
REMARK  8 active torsions:
REMARK  status: ('A' for Active; 'I' for Inactive)
REMARK    1  A    between atoms: _5  and  _11
REMARK    2  A    between atoms: _19  and  _21
REMARK    3  A    between atoms: _22  and  _66
REMARK    4  A    between atoms: _27  and  _30
REMARK    5  A    between atoms: _32  and  _33
REMARK    6  A    between atoms: _38  and  _43
REMARK    7  A    between atoms: _43  and  _46
REMARK    8  A    between atoms: _53  and  _55
REMARK                            x       y       z     vdW  Elec       q    Type
REMARK                         _______ _______ _______ _____ _____    ______ ____
ROOT
ATOM     10  C   UNL     1      23.700  56.850  -1.961  0.00  0.00    +0.038 A 
ATOM     11  C   UNL     1      22.287  56.734  -2.001  0.00  0.00    +0.047 A 
ATOM     12  C   UNL     1      21.506  57.399  -3.032  0.00  0.00    +0.035 A 
ATOM     32  C   UNL     1      22.198  58.173  -4.010  0.00  0.00    +0.024 A 
ATOM     33  C   UNL     1      23.634  58.302  -3.984  0.00  0.00    +0.007 A 
ATOM     34  C   UNL     1      24.409  57.650  -2.967  0.00  0.00    -0.029 A 
ATOM     35  C   UNL     1      25.945  57.829  -2.984  0.00  0.00    +0.045 C 
ENDROOT
BRANCH  10   9
ATOM      4  C   UNL     1      26.247  53.133  -0.306  0.00  0.00    +0.077 A 
ATOM      5  C   UNL     1      26.152  52.435  -1.556  0.00  0.00    +0.048 A 
ATOM      6  C   UNL     1      25.433  53.064  -2.597  0.00  0.00    +0.116 A 
ATOM      7  N   UNL     1      24.856  54.299  -2.393  0.00  0.00    -0.223 NA
ATOM      8  C   UNL     1      24.965  54.944  -1.174  0.00  0.00    +0.220 A 
ATOM      9  N   UNL     1      24.400  56.190  -0.949  0.00  0.00    -0.283 N 
ATOM     36  H   UNL     1      24.497  56.629  -0.034  0.00  0.00    +0.155 HD
ATOM     37  N   UNL     1      25.645  54.364  -0.164  0.00  0.00    -0.214 NA
BRANCH   4   3
ATOM      1  C   UNL     1      27.631  52.673   3.323  0.00  0.00    +0.020 A 
ATOM      2  C   UNL     1      26.908  53.227   2.202  0.00  0.00    +0.013 A 
ATOM      3  C   UNL     1      26.976  52.600   0.888  0.00  0.00    +0.019 A 
ATOM     38  C   UNL     1      27.789  51.403   0.741  0.00  0.00    +0.120 A 
ATOM     39  N   UNL     1      28.476  50.892   1.839  0.00  0.00    -0.263 NA
ATOM     40  C   UNL     1      28.420  51.488   3.107  0.00  0.00    +0.111 A 
ENDBRANCH   4   3
ENDBRANCH  10   9
BRANCH  12  13
ATOM     13  N   UNL     1      20.069  57.324  -3.118  0.00  0.00    -0.281 N 
ATOM     14  C   UNL     1      19.281  56.192  -3.243  0.00  0.00    +0.248 C 
ATOM     30  O   UNL     1      19.708  55.080  -3.516  0.00  0.00    -0.270 OA
ATOM     31  H   UNL     1      19.572  58.214  -3.083  0.00  0.00    +0.155 HD
BRANCH  14  15
ATOM     15  C   UNL     1      17.804  56.315  -3.052  0.00  0.00    +0.037 A 
ATOM     16  C   UNL     1      17.038  55.276  -2.358  0.00  0.00    +0.013 A 
ATOM     17  C   UNL     1      15.612  55.412  -2.202  0.00  0.00    +0.005 A 
ATOM     18  C   UNL     1      14.942  56.593  -2.740  0.00  0.00    -0.033 A 
ATOM     28  C   UNL     1      15.726  57.611  -3.418  0.00  0.00    +0.005 A 
ATOM     29  C   UNL     1      17.124  57.481  -3.574  0.00  0.00    +0.013 A 
BRANCH  18  19
ATOM     19  C   UNL     1      13.420  56.811  -2.637  0.00  0.00    +0.119 C 
BRANCH  19  20
ATOM     20  N   UNL     1      12.593  56.421  -3.818  0.00  0.00    -0.302 NA
ATOM     21  C   UNL     1      13.234  55.284  -4.618  0.00  0.00    +0.066 C 
ATOM     22  C   UNL     1      12.344  54.873  -5.836  0.00  0.00    -0.064 C 
ATOM     23  N   UNL     1      12.107  56.094  -6.726  0.00  0.00    +0.379 N 
ATOM     24  C   UNL     1      11.319  55.699  -7.902  0.00  0.00    -0.096 C 
ATOM     25  H   UNL     1      13.101  56.447  -7.087  0.00  0.00    -0.082 HD
ATOM     26  C   UNL     1      11.472  57.231  -5.937  0.00  0.00    -0.064 C 
ATOM     27  C   UNL     1      12.350  57.611  -4.712  0.00  0.00    +0.066 C 
ENDBRANCH  19  20
ENDBRANCH  18  19
ENDBRANCH  14  15
ENDBRANCH  12  13
TORSDOF 6
ENDMDL
MODEL 4
REMARK VINA RESULT:      -8.5      6.262     10.803
REMARK  Name = C:\Users\Docking\Desktop\test protocol\1iep_ligandH.pdb
REMARK  8 active torsions:
REMARK  status: ('A' for Active; 'I' for Inactive)
REMARK    1  A    between atoms: _5  and  _11
REMARK    2  A    between atoms: _19  and  _21
REMARK    3  A    between atoms: _22  and  _66
REMARK    4  A    between atoms: _27  and  _30
REMARK    5  A    between atoms: _32  and  _33
REMARK    6  A    between atoms: _38  and  _43
REMARK    7  A    between atoms: _43  and  _46
REMARK    8  A    between atoms: _53  and  _55
REMARK                            x       y       z     vdW  Elec       q    Type
REMARK                         _______ _______ _______ _____ _____    ______ ____
ROOT
ATOM     10  C   UNL     1      17.645  70.748   6.582  0.00  0.00    +0.038 A 
ATOM     11  C   UNL     1      17.218  69.798   7.544  0.00  0.00    +0.047 A 
ATOM     12  C   UNL     1      17.573  68.392   7.424  0.00  0.00    +0.035 A 
ATOM     32  C   UNL     1      18.367  67.990   6.311  0.00  0.00    +0.024 A 
ATOM     33  C   UNL     1      18.809  68.942   5.322  0.00  0.00    +0.007 A 
ATOM     34  C   UNL     1      18.460  70.329   5.435  0.00  0.00    -0.029 A 
ATOM     35  C   UNL     1      18.956  71.305   4.342  0.00  0.00    +0.045 C 
ENDROOT
BRANCH  10   9
ATOM      4  C   UNL     1      14.894  74.539   5.534  0.00  0.00    +0.077 A 
ATOM      5  C   UNL     1      14.149  73.802   4.554  0.00  0.00    +0.048 A 
ATOM      6  C   UNL     1      14.509  72.452   4.345  0.00  0.00    +0.116 A 
ATOM      7  N   UNL     1      15.540  71.891   5.068  0.00  0.00    -0.223 NA
ATOM      8  C   UNL     1      16.240  72.630   6.004  0.00  0.00    +0.220 A 
ATOM      9  N   UNL     1      17.275  72.085   6.747  0.00  0.00    -0.283 N 
ATOM     36  H   UNL     1      17.771  72.665   7.423  0.00  0.00    +0.155 HD
ATOM     37  N   UNL     1      15.916  73.922   6.221  0.00  0.00    -0.214 NA
BRANCH   4   3
ATOM      1  C   UNL     1      13.771  78.279   5.313  0.00  0.00    +0.020 A 
ATOM      2  C   UNL     1      14.004  76.904   4.939  0.00  0.00    +0.013 A 
ATOM      3  C   UNL     1      14.630  75.974   5.870  0.00  0.00    +0.019 A 
ATOM     38  C   UNL     1      15.011  76.472   7.183  0.00  0.00    +0.120 A 
ATOM     39  N   UNL     1      14.776  77.802   7.516  0.00  0.00    -0.263 NA
ATOM     40  C   UNL     1      14.175  78.706   6.627  0.00  0.00    +0.111 A 
ENDBRANCH   4   3
ENDBRANCH  10   9
BRANCH  12  13
ATOM     13  N   UNL     1      17.161  67.381   8.365  0.00  0.00    -0.281 N 
ATOM     14  C   UNL     1      15.891  66.865   8.560  0.00  0.00    +0.248 C 
ATOM     30  O   UNL     1      14.869  67.351   8.097  0.00  0.00    -0.270 OA
ATOM     31  H   UNL     1      17.896  66.999   8.961  0.00  0.00    +0.155 HD
BRANCH  14  15
ATOM     15  C   UNL     1      15.730  65.641   9.402  0.00  0.00    +0.037 A 
ATOM     16  C   UNL     1      14.415  65.026   9.606  0.00  0.00    +0.013 A 
ATOM     17  C   UNL     1      14.285  63.855  10.437  0.00  0.00    +0.005 A 
ATOM     18  C   UNL     1      15.475  63.290  11.069  0.00  0.00    -0.033 A 
ATOM     28  C   UNL     1      16.767  63.917  10.845  0.00  0.00    +0.005 A 
ATOM     29  C   UNL     1      16.898  65.065  10.032  0.00  0.00    +0.013 A 
BRANCH  18  19
ATOM     19  C   UNL     1      15.427  62.056  11.988  0.00  0.00    +0.119 C 
BRANCH  19  20
ATOM     20  N   UNL     1      16.246  62.100  13.236  0.00  0.00    -0.302 NA
ATOM     21  C   UNL     1      17.335  61.023  13.247  0.00  0.00    +0.066 C 
ATOM     22  C   UNL     1      18.196  61.098  14.550  0.00  0.00    -0.064 C 
ATOM     23  N   UNL     1      17.285  60.960  15.770  0.00  0.00    +0.379 N 
ATOM     24  C   UNL     1      18.098  60.972  16.994  0.00  0.00    -0.096 C 
ATOM     25  H   UNL     1      16.784  59.966  15.706  0.00  0.00    -0.082 HD
ATOM     26  C   UNL     1      16.198  62.025  15.765  0.00  0.00    -0.064 C 
ATOM     27  C   UNL     1      15.366  61.961  14.454  0.00  0.00    +0.066 C 
ENDBRANCH  19  20
ENDBRANCH  18  19
ENDBRANCH  14  15
ENDBRANCH  12  13
TORSDOF 6
ENDMDL
MODEL 5
REMARK VINA RESULT:      -8.2     20.387     22.708
REMARK  Name = C:\Users\Docking\Desktop\test protocol\1iep_ligandH.pdb
REMARK  8 active torsions:
REMARK  status: ('A' for Active; 'I' for Inactive)
REMARK    1  A    between atoms: _5  and  _11
REMARK    2  A    between atoms: _19  and  _21
REMARK    3  A    between atoms: _22  and  _66
REMARK    4  A    between atoms: _27  and  _30
REMARK    5  A    between atoms: _32  and  _33
REMARK    6  A    between atoms: _38  and  _43
REMARK    7  A    between atoms: _43  and  _46
REMARK    8  A    between atoms: _53  and  _55
REMARK                            x       y       z     vdW  Elec       q    Type
REMARK                         _______ _______ _______ _____ _____    ______ ____
ROOT
ATOM     10  C   UNL     1      21.410  57.809  -3.409  0.00  0.00    +0.038 A 
ATOM     11  C   UNL     1      22.171  56.870  -2.666  0.00  0.00    +0.047 A 
ATOM     12  C   UNL     1      23.607  56.745  -2.857  0.00  0.00    +0.035 A 
ATOM     32  C   UNL     1      24.238  57.595  -3.812  0.00  0.00    +0.024 A 
ATOM     33  C   UNL     1      23.480  58.555  -4.576  0.00  0.00    +0.007 A 
ATOM     34  C   UNL     1      22.062  58.680  -4.394  0.00  0.00    -0.029 A 
ATOM     35  C   UNL     1      21.299  59.721  -5.245  0.00  0.00    +0.045 C 
ENDROOT
BRANCH  10   9
ATOM      4  C   UNL     1      16.933  56.170  -3.964  0.00  0.00    +0.077 A 
ATOM      5  C   UNL     1      17.370  55.084  -4.793  0.00  0.00    +0.048 A 
ATOM      6  C   UNL     1      18.754  54.987  -5.058  0.00  0.00    +0.116 A 
ATOM      7  N   UNL     1      19.628  55.912  -4.529  0.00  0.00    -0.223 NA
ATOM      8  C   UNL     1      19.173  56.949  -3.734  0.00  0.00    +0.220 A 
ATOM      9  N   UNL     1      20.034  57.886  -3.184  0.00  0.00    -0.283 N 
ATOM     36  H   UNL     1      19.658  58.640  -2.610  0.00  0.00    +0.155 HD
ATOM     37  N   UNL     1      17.855  57.064  -3.467  0.00  0.00    -0.214 NA
BRANCH   4   3
ATOM      1  C   UNL     1      13.704  57.160  -1.990  0.00  0.00    +0.020 A 
ATOM      2  C   UNL     1      15.100  56.952  -2.301  0.00  0.00    +0.013 A 
ATOM      3  C   UNL     1      15.502  56.405  -3.590  0.00  0.00    +0.019 A 
ATOM     38  C   UNL     1      14.460  56.078  -4.551  0.00  0.00    +0.120 A 
ATOM     39  N   UNL     1      13.124  56.287  -4.224  0.00  0.00    -0.263 NA
ATOM     40  C   UNL     1      12.725  56.812  -2.985  0.00  0.00    +0.111 A 
ENDBRANCH   4   3
ENDBRANCH  10   9
BRANCH  12  13
ATOM     13  N   UNL     1      24.430  55.805  -2.138  0.00  0.00    -0.281 N 
ATOM     14  C   UNL     1      24.783  55.832  -0.799  0.00  0.00    +0.248 C 
ATOM     30  O   UNL     1      24.618  56.791  -0.060  0.00  0.00    -0.270 OA
ATOM     31  H   UNL     1      24.798  55.024  -2.682  0.00  0.00    +0.155 HD
BRANCH  14  15
ATOM     15  C   UNL     1      25.425  54.624  -0.196  0.00  0.00    +0.037 A 
ATOM     16  C   UNL     1      25.458  54.425   1.255  0.00  0.00    +0.013 A 
ATOM     17  C   UNL     1      26.099  53.260   1.811  0.00  0.00    +0.005 A 
ATOM     18  C   UNL     1      26.711  52.282   0.913  0.00  0.00    -0.033 A 
ATOM     28  C   UNL     1      26.658  52.502  -0.523  0.00  0.00    +0.005 A 
ATOM     29  C   UNL     1      26.032  53.644  -1.071  0.00  0.00    +0.013 A 
BRANCH  18  19
ATOM     19  C   UNL     1      27.434  51.020   1.419  0.00  0.00    +0.119 C 
BRANCH  19  20
ATOM     20  N   UNL     1      26.832  50.309   2.586  0.00  0.00    -0.302 NA
ATOM     21  C   UNL     1      27.897  49.657   3.473  0.00  0.00    +0.066 C 
ATOM     22  C   UNL     1      27.252  48.936   4.701  0.00  0.00    -0.064 C 
ATOM     23  N   UNL     1      26.246  47.895   4.207  0.00  0.00    +0.379 N 
ATOM     24  C   UNL     1      25.680  47.175   5.358  0.00  0.00    -0.096 C 
ATOM     25  H   UNL     1      26.804  47.155   3.586  0.00  0.00    -0.082 HD
ATOM     26  C   UNL     1      25.186  48.534   3.323  0.00  0.00    -0.064 C 
ATOM     27  C   UNL     1      25.839  49.272   2.121  0.00  0.00    +0.066 C 
ENDBRANCH  19  20
ENDBRANCH  18  19
ENDBRANCH  14  15
ENDBRANCH  12  13
TORSDOF 6
ENDMDL
