MODEL 1
REMARK VINA RESULT:      -8.8      0.000      0.000
REMARK  Name = C:\Users\Docking\Desktop\test protocol\1iep_ligandH.pdb
REMARK  8 active torsions:
REMARK  status: ('A' for Active; 'I' for Inactive)
REMARK    1  A    between atoms: _5  and  _11
REMARK    2  A    between atoms: _19  and  _21
REMARK    3  A    between atoms: _22  and  _66
REMARK    4  A    between atoms: _27  and  _30
REMARK    5  A    between atoms: _32  and  _33
REMARK    6  A    between atoms: _38  and  _43
REMARK    7  A    between atoms: _43  and  _46
REMARK    8  A    between atoms: _53  and  _55
REMARK                            x       y       z     vdW  Elec       q    Type
REMARK                         _______ _______ _______ _____ _____    ______ ____
ROOT
ATOM     10  C   UNL     1       8.886  17.790  60.829  0.00  0.00    +0.038 A 
ATOM     11  C   UNL     1       7.533  17.364  60.837  0.00  0.00    +0.047 A 
ATOM     12  C   UNL     1       7.190  15.952  60.892  0.00  0.00    +0.035 A 
ATOM     32  C   UNL     1       8.250  15.000  60.943  0.00  0.00    +0.024 A 
ATOM     33  C   UNL     1       9.630  15.416  60.935  0.00  0.00    +0.007 A 
ATOM     34  C   UNL     1       9.975  16.807  60.877  0.00  0.00    -0.029 A 
ATOM     35  C   UNL     1      11.472  17.195  60.865  0.00  0.00    +0.045 C 
ENDROOT
BRANCH  10   9
ATOM      4  C   UNL     1      10.174  21.758  58.456  0.00  0.00    +0.077 A 
ATOM      5  C   UNL     1      10.344  21.039  57.226  0.00  0.00    +0.048 A 
ATOM      6  C   UNL     1      10.097  19.648  57.249  0.00  0.00    +0.116 A 
ATOM      7  N   UNL     1       9.709  19.033  58.419  0.00  0.00    -0.223 NA
ATOM      8  C   UNL     1       9.556  19.756  59.588  0.00  0.00    +0.220 A 
ATOM      9  N   UNL     1       9.159  19.159  60.775  0.00  0.00    -0.283 N 
ATOM     36  H   UNL     1       9.065  19.726  61.617  0.00  0.00    +0.155 HD
ATOM     37  N   UNL     1       9.787  21.085  59.593  0.00  0.00    -0.214 NA
BRANCH   4   3
ATOM      1  C   UNL     1       9.662  25.635  58.350  0.00  0.00    +0.020 A 
ATOM      2  C   UNL     1       9.399  24.222  58.198  0.00  0.00    +0.013 A 
ATOM      3  C   UNL     1      10.394  23.233  58.592  0.00  0.00    +0.019 A 
ATOM     38  C   UNL     1      11.654  23.710  59.141  0.00  0.00    +0.120 A 
ATOM     39  N   UNL     1      11.880  25.076  59.275  0.00  0.00    -0.263 NA
ATOM     40  C   UNL     1      10.930  26.038  58.898  0.00  0.00    +0.111 A 
ENDBRANCH   4   3
ENDBRANCH  10   9
BRANCH  12  13
ATOM     13  N   UNL     1       5.835  15.459  60.894  0.00  0.00    -0.281 N 
ATOM     14  C   UNL     1       4.889  15.572  61.900  0.00  0.00    +0.248 C 
ATOM     30  O   UNL     1       5.135  15.929  63.043  0.00  0.00    -0.270 OA
ATOM     31  H   UNL     1       5.536  14.968  60.052  0.00  0.00    +0.155 HD
BRANCH  14  15
ATOM     15  C   UNL     1       3.467  15.223  61.598  0.00  0.00    +0.037 A 
ATOM     16  C   UNL     1       3.094  13.881  61.144  0.00  0.00    +0.013 A 
ATOM     17  C   UNL     1       1.718  13.576  60.842  0.00  0.00    +0.005 A 
ATOM     18  C   UNL     1       0.704  14.616  60.995  0.00  0.00    -0.033 A 
ATOM     28  C   UNL     1       1.101  15.938  61.452  0.00  0.00    +0.005 A 
ATOM     29  C   UNL     1       2.449  16.241  61.747  0.00  0.00    +0.013 A 
BRANCH  18  19
ATOM     19  C   UNL     1      -0.785  14.386  60.676  0.00  0.00    +0.119 C 
BRANCH  19  20
ATOM     20  N   UNL     1      -1.131  13.986  59.279  0.00  0.00    -0.302 NA
ATOM     21  C   UNL     1      -1.937  15.068  58.555  0.00  0.00    +0.066 C 
ATOM     22  C   UNL     1      -2.271  14.643  57.088  0.00  0.00    -0.064 C 
ATOM     23  N   UNL     1      -3.036  13.318  57.106  0.00  0.00    +0.379 N 
ATOM     24  C   UNL     1      -3.402  12.945  55.731  0.00  0.00    -0.096 C 
ATOM     25  H   UNL     1      -3.980  13.481  57.675  0.00  0.00    -0.082 HD
ATOM     26  C   UNL     1      -2.243  12.237  57.826  0.00  0.00    -0.064 C 
ATOM     27  C   UNL     1      -1.891  12.682  59.273  0.00  0.00    +0.066 C 
ENDBRANCH  19  20
ENDBRANCH  18  19
ENDBRANCH  14  15
ENDBRANCH  12  13
TORSDOF 6
ENDMDL
MODEL 2
REMARK VINA RESULT:      -8.7      7.433     13.328
REMARK  Name = C:\Users\Docking\Desktop\test protocol\1iep_ligandH.pdb
REMARK  8 active torsions:
REMARK  status: ('A' for Active; 'I' for Inactive)
REMARK    1  A    between atoms: _5  and  _11
REMARK    2  A    between atoms: _19  and  _21
REMARK    3  A    between atoms: _22  and  _66
REMARK    4  A    between atoms: _27  and  _30
REMARK    5  A    between atoms: _32  and  _33
REMARK    6  A    between atoms: _38  and  _43
REMARK    7  A    between atoms: _43  and  _46
REMARK    8  A    between atoms: _53  and  _55
REMARK                            x       y       z     vdW  Elec       q    Type
REMARK                         _______ _______ _______ _____ _____    ______ ____
ROOT
ATOM     10  C   UNL     1       9.458  21.860  59.960  0.00  0.00    +0.038 A 
ATOM     11  C   UNL     1      10.734  21.912  60.577  0.00  0.00    +0.047 A 
ATOM     12  C   UNL     1      11.525  20.707  60.772  0.00  0.00    +0.035 A 
ATOM     32  C   UNL     1      10.987  19.466  60.323  0.00  0.00    +0.024 A 
ATOM     33  C   UNL     1       9.691  19.395  59.694  0.00  0.00    +0.007 A 
ATOM     34  C   UNL     1       8.905  20.580  59.502  0.00  0.00    -0.029 A 
ATOM     35  C   UNL     1       7.520  20.444  58.828  0.00  0.00    +0.045 C 
ENDROOT
BRANCH  10   9
ATOM      4  C   UNL     1       8.330  25.822  57.496  0.00  0.00    +0.077 A 
ATOM      5  C   UNL     1       9.268  25.512  56.455  0.00  0.00    +0.048 A 
ATOM      6  C   UNL     1      10.026  24.328  56.595  0.00  0.00    +0.116 A 
ATOM      7  N   UNL     1       9.851  23.521  57.698  0.00  0.00    -0.223 NA
ATOM      8  C   UNL     1       8.939  23.849  58.685  0.00  0.00    +0.220 A 
ATOM      9  N   UNL     1       8.741  23.048  59.799  0.00  0.00    -0.283 N 
ATOM     36  H   UNL     1       8.065  23.329  60.508  0.00  0.00    +0.155 HD
ATOM     37  N   UNL     1       8.204  24.976  58.575  0.00  0.00    -0.214 NA
BRANCH   4   3
ATOM      1  C   UNL     1       5.226  28.183  57.205  0.00  0.00    +0.020 A 
ATOM      2  C   UNL     1       6.027  26.981  57.197  0.00  0.00    +0.013 A 
ATOM      3  C   UNL     1       7.454  27.036  57.489  0.00  0.00    +0.019 A 
ATOM     38  C   UNL     1       8.044  28.332  57.787  0.00  0.00    +0.120 A 
ATOM     39  N   UNL     1       7.248  29.473  57.786  0.00  0.00    -0.263 NA
ATOM     40  C   UNL     1       5.874  29.433  57.505  0.00  0.00    +0.111 A 
ENDBRANCH   4   3
ENDBRANCH  10   9
BRANCH  12  13
ATOM     13  N   UNL     1      12.823  20.697  61.400  0.00  0.00    -0.281 N 
ATOM     14  C   UNL     1      13.115  20.589  62.749  0.00  0.00    +0.248 C 
ATOM     30  O   UNL     1      12.292  20.700  63.646  0.00  0.00    -0.270 OA
ATOM     31  H   UNL     1      13.624  20.779  60.773  0.00  0.00    +0.155 HD
BRANCH  14  15
ATOM     15  C   UNL     1      14.529  20.335  63.164  0.00  0.00    +0.037 A 
ATOM     16  C   UNL     1      14.864  19.987  64.547  0.00  0.00    +0.013 A 
ATOM     17  C   UNL     1      16.238  19.765  64.924  0.00  0.00    +0.005 A 
ATOM     18  C   UNL     1      17.287  19.888  63.914  0.00  0.00    -0.033 A 
ATOM     28  C   UNL     1      16.925  20.229  62.548  0.00  0.00    +0.005 A 
ATOM     29  C   UNL     1      15.580  20.449  62.175  0.00  0.00    +0.013 A 
BRANCH  18  19
ATOM     19  C   UNL     1      18.780  19.688  64.232  0.00  0.00    +0.119 C 
BRANCH  19  20
ATOM     20  N   UNL     1      19.142  18.557  65.137  0.00  0.00    -0.302 NA
ATOM     21  C   UNL     1      20.648  18.499  65.410  0.00  0.00    +0.066 C 
ATOM     22  C   UNL     1      21.006  17.324  66.377  0.00  0.00    -0.064 C 
ATOM     23  N   UNL     1      20.512  16.006  65.778  0.00  0.00    +0.379 N 
ATOM     24  C   UNL     1      20.898  14.892  66.657  0.00  0.00    -0.096 C 
ATOM     25  H   UNL     1      21.032  15.863  64.802  0.00  0.00    -0.082 HD
ATOM     26  C   UNL     1      19.017  16.056  65.501  0.00  0.00    -0.064 C 
ATOM     27  C   UNL     1      18.668  17.245  64.562  0.00  0.00    +0.066 C 
ENDBRANCH  19  20
ENDBRANCH  18  19
ENDBRANCH  14  15
ENDBRANCH  12  13
TORSDOF 6
ENDMDL
MODEL 3
REMARK VINA RESULT:      -8.5      6.223     10.899
REMARK  Name = C:\Users\Docking\Desktop\test protocol\1iep_ligandH.pdb
REMARK  8 active torsions:
REMARK  status: ('A' for Active; 'I' for Inactive)
REMARK    1  A    between atoms: _5  and  _11
REMARK    2  A    between atoms: _19  and  _21
REMARK    3  A    between atoms: _22  and  _66
REMARK    4  A    between atoms: _27  and  _30
REMARK    5  A    between atoms: _32  and  _33
REMARK    6  A    between atoms: _38  and  _43
REMARK    7  A    between atoms: _43  and  _46
REMARK    8  A    between atoms: _53  and  _55
REMARK                            x       y       z     vdW  Elec       q    Type
REMARK                         _______ _______ _______ _____ _____    ______ ____
ROOT
ATOM     10  C   UNL     1       6.790  27.027  57.573  0.00  0.00    +0.038 A 
ATOM     11  C   UNL     1       6.850  25.626  57.787  0.00  0.00    +0.047 A 
ATOM     12  C   UNL     1       8.082  24.983  58.219  0.00  0.00    +0.035 A 
ATOM     32  C   UNL     1       9.232  25.798  58.426  0.00  0.00    +0.024 A 
ATOM     33  C   UNL     1       9.189  27.224  58.212  0.00  0.00    +0.007 A 
ATOM     34  C   UNL     1       7.978  27.863  57.783  0.00  0.00    -0.029 A 
ATOM     35  C   UNL     1       7.991  29.394  57.563  0.00  0.00    +0.045 C 
ENDROOT
BRANCH  10   9
ATOM      4  C   UNL     1       3.585  28.149  54.181  0.00  0.00    +0.077 A 
ATOM      5  C   UNL     1       4.399  27.586  53.142  0.00  0.00    +0.048 A 
ATOM      6  C   UNL     1       5.639  27.024  53.522  0.00  0.00    +0.116 A 
ATOM      7  N   UNL     1       6.025  27.030  54.845  0.00  0.00    -0.223 NA
ATOM      8  C   UNL     1       5.216  27.582  55.821  0.00  0.00    +0.220 A 
ATOM      9  N   UNL     1       5.581  27.591  57.159  0.00  0.00    -0.283 N 
ATOM     36  H   UNL     1       4.960  28.015  57.848  0.00  0.00    +0.155 HD
ATOM     37  N   UNL     1       4.029  28.126  55.484  0.00  0.00    -0.214 NA
BRANCH   4   3
ATOM      1  C   UNL     1       0.704  30.343  52.703  0.00  0.00    +0.020 A 
ATOM      2  C   UNL     1       2.015  29.768  52.896  0.00  0.00    +0.013 A 
ATOM      3  C   UNL     1       2.247  28.776  53.938  0.00  0.00    +0.019 A 
ATOM     38  C   UNL     1       1.123  28.384  54.774  0.00  0.00    +0.120 A 
ATOM     39  N   UNL     1      -0.129  28.956  54.566  0.00  0.00    -0.263 NA
ATOM     40  C   UNL     1      -0.364  29.913  53.567  0.00  0.00    +0.111 A 
ENDBRANCH   4   3
ENDBRANCH  10   9
BRANCH  12  13
ATOM     13  N   UNL     1       8.205  23.565  58.444  0.00  0.00    -0.281 N 
ATOM     14  C   UNL     1       9.047  22.671  57.804  0.00  0.00    +0.248 C 
ATOM     30  O   UNL     1       9.674  22.920  56.785  0.00  0.00    -0.270 OA
ATOM     31  H   UNL     1       7.598  23.172  59.164  0.00  0.00    +0.155 HD
BRANCH  14  15
ATOM     15  C   UNL     1       9.205  21.296  58.368  0.00  0.00    +0.037 A 
ATOM     16  C   UNL     1      10.422  20.514  58.136  0.00  0.00    +0.013 A 
ATOM     17  C   UNL     1      10.541  19.183  58.678  0.00  0.00    +0.005 A 
ATOM     18  C   UNL     1       9.439  18.627  59.459  0.00  0.00    -0.033 A 
ATOM     28  C   UNL     1       8.245  19.426  59.678  0.00  0.00    +0.005 A 
ATOM     29  C   UNL     1       8.124  20.730  59.148  0.00  0.00    +0.013 A 
BRANCH  18  19
ATOM     19  C   UNL     1       9.471  17.208  60.057  0.00  0.00    +0.119 C 
BRANCH  19  20
ATOM     20  N   UNL     1       8.792  17.004  61.372  0.00  0.00    -0.302 NA
ATOM     21  C   UNL     1       9.714  17.329  62.550  0.00  0.00    +0.066 C 
ATOM     22  C   UNL     1       8.981  17.132  63.917  0.00  0.00    -0.064 C 
ATOM     23  N   UNL     1       8.464  15.696  64.013  0.00  0.00    +0.379 N 
ATOM     24  C   UNL     1       7.825  15.491  65.322  0.00  0.00    -0.096 C 
ATOM     25  H   UNL     1       9.345  15.015  63.957  0.00  0.00    -0.082 HD
ATOM     26  C   UNL     1       7.548  15.364  62.844  0.00  0.00    -0.064 C 
ATOM     27  C   UNL     1       8.277  15.591  61.490  0.00  0.00    +0.066 C 
ENDBRANCH  19  20
ENDBRANCH  18  19
ENDBRANCH  14  15
ENDBRANCH  12  13
TORSDOF 6
ENDMDL
MODEL 4
REMARK VINA RESULT:      -8.4      5.434      9.090
REMARK  Name = C:\Users\Docking\Desktop\test protocol\1iep_ligandH.pdb
REMARK  8 active torsions:
REMARK  status: ('A' for Active; 'I' for Inactive)
REMARK    1  A    between atoms: _5  and  _11
REMARK    2  A    between atoms: _19  and  _21
REMARK    3  A    between atoms: _22  and  _66
REMARK    4  A    between atoms: _27  and  _30
REMARK    5  A    between atoms: _32  and  _33
REMARK    6  A    between atoms: _38  and  _43
REMARK    7  A    between atoms: _43  and  _46
REMARK    8  A    between atoms: _53  and  _55
REMARK                            x       y       z     vdW  Elec       q    Type
REMARK                         _______ _______ _______ _____ _____    ______ ____
ROOT
ATOM     10  C   UNL     1      10.068  25.368  58.234  0.00  0.00    +0.038 A 
ATOM     11  C   UNL     1       9.919  24.024  58.662  0.00  0.00    +0.047 A 
ATOM     12  C   UNL     1       9.855  22.932  57.704  0.00  0.00    +0.035 A 
ATOM     32  C   UNL     1       9.949  23.243  56.316  0.00  0.00    +0.024 A 
ATOM     33  C   UNL     1      10.100  24.604  55.863  0.00  0.00    +0.007 A 
ATOM     34  C   UNL     1      10.161  25.686  56.803  0.00  0.00    -0.029 A 
ATOM     35  C   UNL     1      10.318  27.125  56.261  0.00  0.00    +0.045 C 
ENDROOT
BRANCH  10   9
ATOM      4  C   UNL     1      12.486  28.202  61.260  0.00  0.00    +0.077 A 
ATOM      5  C   UNL     1      13.742  27.601  60.913  0.00  0.00    +0.048 A 
ATOM      6  C   UNL     1      13.721  26.561  59.957  0.00  0.00    +0.116 A 
ATOM      7  N   UNL     1      12.528  26.160  59.396  0.00  0.00    -0.223 NA
ATOM      8  C   UNL     1      11.335  26.760  59.754  0.00  0.00    +0.220 A 
ATOM      9  N   UNL     1      10.124  26.378  59.197  0.00  0.00    -0.283 N 
ATOM     36  H   UNL     1       9.264  26.840  59.493  0.00  0.00    +0.155 HD
ATOM     37  N   UNL     1      11.327  27.754  60.666  0.00  0.00    -0.214 NA
BRANCH   4   3
ATOM      1  C   UNL     1      10.988  30.759  63.813  0.00  0.00    +0.020 A 
ATOM      2  C   UNL     1      11.070  29.677  62.860  0.00  0.00    +0.013 A 
ATOM      3  C   UNL     1      12.345  29.314  62.252  0.00  0.00    +0.019 A 
ATOM     38  C   UNL     1      13.527  30.072  62.635  0.00  0.00    +0.120 A 
ATOM     39  N   UNL     1      13.417  31.110  63.554  0.00  0.00    -0.263 NA
ATOM     40  C   UNL     1      12.195  31.470  64.144  0.00  0.00    +0.111 A 
ENDBRANCH   4   3
ENDBRANCH  10   9
BRANCH  12  13
ATOM     13  N   UNL     1       9.696  21.549  58.080  0.00  0.00    -0.281 N 
ATOM     14  C   UNL     1      10.610  20.730  58.722  0.00  0.00    +0.248 C 
ATOM     30  O   UNL     1      11.790  21.004  58.882  0.00  0.00    -0.270 OA
ATOM     31  H   UNL     1       8.800  21.121  57.843  0.00  0.00    +0.155 HD
BRANCH  14  15
ATOM     15  C   UNL     1      10.150  19.410  59.252  0.00  0.00    +0.037 A 
ATOM     16  C   UNL     1       8.730  19.140  59.490  0.00  0.00    +0.013 A 
ATOM     17  C   UNL     1       8.315  17.864  60.018  0.00  0.00    +0.005 A 
ATOM     18  C   UNL     1       9.323  16.847  60.308  0.00  0.00    -0.033 A 
ATOM     28  C   UNL     1      10.724  17.140  60.057  0.00  0.00    +0.005 A 
ATOM     29  C   UNL     1      11.135  18.389  59.541  0.00  0.00    +0.013 A 
BRANCH  18  19
ATOM     19  C   UNL     1       8.973  15.466  60.892  0.00  0.00    +0.119 C 
BRANCH  19  20
ATOM     20  N   UNL     1       8.189  15.439  62.163  0.00  0.00    -0.302 NA
ATOM     21  C   UNL     1       6.699  15.701  61.925  0.00  0.00    +0.066 C 
ATOM     22  C   UNL     1       5.891  15.647  63.262  0.00  0.00    -0.064 C 
ATOM     23  N   UNL     1       6.469  16.666  64.245  0.00  0.00    +0.379 N 
ATOM     24  C   UNL     1       5.675  16.659  65.483  0.00  0.00    -0.096 C 
ATOM     25  H   UNL     1       6.368  17.676  63.784  0.00  0.00    -0.082 HD
ATOM     26  C   UNL     1       7.951  16.415  64.486  0.00  0.00    -0.064 C 
ATOM     27  C   UNL     1       8.740  16.441  63.147  0.00  0.00    +0.066 C 
ENDBRANCH  19  20
ENDBRANCH  18  19
ENDBRANCH  14  15
ENDBRANCH  12  13
TORSDOF 6
ENDMDL
MODEL 5
REMARK VINA RESULT:      -8.3      7.669     11.990
REMARK  Name = C:\Users\Docking\Desktop\test protocol\1iep_ligandH.pdb
REMARK  8 active torsions:
REMARK  status: ('A' for Active; 'I' for Inactive)
REMARK    1  A    between atoms: _5  and  _11
REMARK    2  A    between atoms: _19  and  _21
REMARK    3  A    between atoms: _22  and  _66
REMARK    4  A    between atoms: _27  and  _30
REMARK    5  A    between atoms: _32  and  _33
REMARK    6  A    between atoms: _38  and  _43
REMARK    7  A    between atoms: _43  and  _46
REMARK    8  A    between atoms: _53  and  _55
REMARK                            x       y       z     vdW  Elec       q    Type
REMARK                         _______ _______ _______ _____ _____    ______ ____
ROOT
ATOM     10  C   UNL     1      11.006  19.462  60.798  0.00  0.00    +0.038 A 
ATOM     11  C   UNL     1      10.528  20.762  60.492  0.00  0.00    +0.047 A 
ATOM     12  C   UNL     1       9.702  21.003  59.319  0.00  0.00    +0.035 A 
ATOM     32  C   UNL     1       9.379  19.896  58.481  0.00  0.00    +0.024 A 
ATOM     33  C   UNL     1       9.857  18.568  58.777  0.00  0.00    +0.007 A 
ATOM     34  C   UNL     1      10.674  18.325  59.932  0.00  0.00    -0.029 A 
ATOM     35  C   UNL     1      11.163  16.882  60.197  0.00  0.00    +0.045 C 
ENDROOT
BRANCH  10   9
ATOM      4  C   UNL     1      11.543  18.481  65.466  0.00  0.00    +0.077 A 
ATOM      5  C   UNL     1      10.130  18.330  65.658  0.00  0.00    +0.048 A 
ATOM      6  C   UNL     1       9.298  18.520  64.531  0.00  0.00    +0.116 A 
ATOM      7  N   UNL     1       9.850  18.837  63.309  0.00  0.00    -0.223 NA
ATOM      8  C   UNL     1      11.217  18.977  63.159  0.00  0.00    +0.220 A 
ATOM      9  N   UNL     1      11.795  19.287  61.937  0.00  0.00    -0.283 N 
ATOM     36  H   UNL     1      12.807  19.390  61.870  0.00  0.00    +0.155 HD
ATOM     37  N   UNL     1      12.033  18.802  64.220  0.00  0.00    -0.214 NA
BRANCH   4   3
ATOM      1  C   UNL     1      13.195  17.931  68.969  0.00  0.00    +0.020 A 
ATOM      2  C   UNL     1      12.181  18.091  67.952  0.00  0.00    +0.013 A 
ATOM      3  C   UNL     1      12.552  18.309  66.559  0.00  0.00    +0.019 A 
ATOM     38  C   UNL     1      13.967  18.359  66.226  0.00  0.00    +0.120 A 
ATOM     39  N   UNL     1      14.921  18.202  67.227  0.00  0.00    -0.263 NA
ATOM     40  C   UNL     1      14.576  17.994  68.571  0.00  0.00    +0.111 A 
ENDBRANCH   4   3
ENDBRANCH  10   9
BRANCH  12  13
ATOM     13  N   UNL     1       9.196  22.302  58.952  0.00  0.00    -0.281 N 
ATOM     14  C   UNL     1       9.913  23.404  58.516  0.00  0.00    +0.248 C 
ATOM     30  O   UNL     1      11.129  23.506  58.579  0.00  0.00    -0.270 OA
ATOM     31  H   UNL     1       8.185  22.424  59.023  0.00  0.00    +0.155 HD
BRANCH  14  15
ATOM     15  C   UNL     1       9.171  24.566  57.940  0.00  0.00    +0.037 A 
ATOM     16  C   UNL     1       7.828  24.918  58.408  0.00  0.00    +0.013 A 
ATOM     17  C   UNL     1       7.128  26.034  57.823  0.00  0.00    +0.005 A 
ATOM     18  C   UNL     1       7.771  26.808  56.764  0.00  0.00    -0.033 A 
ATOM     28  C   UNL     1       9.107  26.440  56.322  0.00  0.00    +0.005 A 
ATOM     29  C   UNL     1       9.796  25.346  56.893  0.00  0.00    +0.013 A 
BRANCH  18  19
ATOM     19  C   UNL     1       7.090  28.001  56.068  0.00  0.00    +0.119 C 
BRANCH  19  20
ATOM     20  N   UNL     1       6.863  29.230  56.886  0.00  0.00    -0.302 NA
ATOM     21  C   UNL     1       7.875  29.356  58.028  0.00  0.00    +0.066 C 
ATOM     22  C   UNL     1       7.636  30.659  58.859  0.00  0.00    -0.064 C 
ATOM     23  N   UNL     1       6.206  30.660  59.400  0.00  0.00    +0.379 N 
ATOM     24  C   UNL     1       5.996  31.856  60.230  0.00  0.00    -0.096 C 
ATOM     25  H   UNL     1       6.092  29.767  60.058  0.00  0.00    -0.082 HD
ATOM     26  C   UNL     1       5.193  30.533  58.271  0.00  0.00    -0.064 C 
ATOM     27  C   UNL     1       5.457  29.250  57.434  0.00  0.00    +0.066 C 
ENDBRANCH  19  20
ENDBRANCH  18  19
ENDBRANCH  14  15
ENDBRANCH  12  13
TORSDOF 6
ENDMDL
