MODEL 1
REMARK VINA RESULT:     -10.2      0.000      0.000
REMARK  Name = C:\Users\Docking\Desktop\test protocol\1iep_ligandH.pdb
REMARK  8 active torsions:
REMARK  status: ('A' for Active; 'I' for Inactive)
REMARK    1  A    between atoms: _5  and  _11
REMARK    2  A    between atoms: _19  and  _21
REMARK    3  A    between atoms: _22  and  _66
REMARK    4  A    between atoms: _27  and  _30
REMARK    5  A    between atoms: _32  and  _33
REMARK    6  A    between atoms: _38  and  _43
REMARK    7  A    between atoms: _43  and  _46
REMARK    8  A    between atoms: _53  and  _55
REMARK                            x       y       z     vdW  Elec       q    Type
REMARK                         _______ _______ _______ _____ _____    ______ ____
ROOT
ATOM     10  C   UNL     1     -38.341  20.830   1.100  0.00  0.00    +0.038 A 
ATOM     11  C   UNL     1     -38.766  19.480   1.006  0.00  0.00    +0.047 A 
ATOM     12  C   UNL     1     -38.233  18.592  -0.015  0.00  0.00    +0.035 A 
ATOM     32  C   UNL     1     -37.265  19.112  -0.924  0.00  0.00    +0.024 A 
ATOM     33  C   UNL     1     -36.823  20.482  -0.844  0.00  0.00    +0.007 A 
ATOM     34  C   UNL     1     -37.348  21.363   0.160  0.00  0.00    -0.029 A 
ATOM     35  C   UNL     1     -36.842  22.824   0.195  0.00  0.00    +0.045 C 
ENDROOT
BRANCH  10   9
ATOM      4  C   UNL     1     -41.669  23.879   2.733  0.00  0.00    +0.077 A 
ATOM      5  C   UNL     1     -42.365  23.884   1.478  0.00  0.00    +0.048 A 
ATOM      6  C   UNL     1     -41.830  23.094   0.436  0.00  0.00    +0.116 A 
ATOM      7  N   UNL     1     -40.684  22.358   0.644  0.00  0.00    -0.223 NA
ATOM      8  C   UNL     1     -40.036  22.377   1.866  0.00  0.00    +0.220 A 
ATOM      9  N   UNL     1     -38.887  21.638   2.100  0.00  0.00    -0.283 N 
ATOM     36  H   UNL     1     -38.434  21.685   3.013  0.00  0.00    +0.155 HD
ATOM     37  N   UNL     1     -40.526  23.125   2.877  0.00  0.00    -0.214 NA
BRANCH   4   3
ATOM      1  C   UNL     1     -42.038  25.216   6.390  0.00  0.00    +0.020 A 
ATOM      2  C   UNL     1     -41.576  24.434   5.267  0.00  0.00    +0.013 A 
ATOM      3  C   UNL     1     -42.112  24.661   3.930  0.00  0.00    +0.019 A 
ATOM     38  C   UNL     1     -43.121  25.696   3.763  0.00  0.00    +0.120 A 
ATOM     39  N   UNL     1     -43.548  26.433   4.864  0.00  0.00    -0.263 NA
ATOM     40  C   UNL     1     -43.041  26.222   6.155  0.00  0.00    +0.111 A 
ENDBRANCH   4   3
ENDBRANCH  10   9
BRANCH  12  13
ATOM     13  N   UNL     1     -38.632  17.215  -0.164  0.00  0.00    -0.281 N 
ATOM     14  C   UNL     1     -39.894  16.720  -0.450  0.00  0.00    +0.248 C 
ATOM     30  O   UNL     1     -40.921  17.382  -0.411  0.00  0.00    -0.270 OA
ATOM     31  H   UNL     1     -37.895  16.520  -0.044  0.00  0.00    +0.155 HD
BRANCH  14  15
ATOM     15  C   UNL     1     -40.038  15.279  -0.820  0.00  0.00    +0.037 A 
ATOM     16  C   UNL     1     -40.954  14.855  -1.881  0.00  0.00    +0.013 A 
ATOM     17  C   UNL     1     -41.087  13.457  -2.206  0.00  0.00    +0.005 A 
ATOM     18  C   UNL     1     -40.299  12.472  -1.468  0.00  0.00    -0.033 A 
ATOM     28  C   UNL     1     -39.394  12.921  -0.423  0.00  0.00    +0.005 A 
ATOM     29  C   UNL     1     -39.262  14.291  -0.101  0.00  0.00    +0.013 A 
BRANCH  18  19
ATOM     19  C   UNL     1     -40.392  10.958  -1.733  0.00  0.00    +0.119 C 
BRANCH  19  20
ATOM     20  N   UNL     1     -39.196  10.293  -2.330  0.00  0.00    -0.302 NA
ATOM     21  C   UNL     1     -39.485   9.735  -3.726  0.00  0.00    +0.066 C 
ATOM     22  C   UNL     1     -38.216   9.063  -4.345  0.00  0.00    -0.064 C 
ATOM     23  N   UNL     1     -37.722   7.957  -3.411  0.00  0.00    +0.379 N 
ATOM     24  C   UNL     1     -36.564   7.284  -4.017  0.00  0.00    -0.096 C 
ATOM     25  H   UNL     1     -38.539   7.204  -3.316  0.00  0.00    -0.082 HD
ATOM     26  C   UNL     1     -37.434   8.503  -2.019  0.00  0.00    -0.064 C 
ATOM     27  C   UNL     1     -38.693   9.194  -1.426  0.00  0.00    +0.066 C 
ENDBRANCH  19  20
ENDBRANCH  18  19
ENDBRANCH  14  15
ENDBRANCH  12  13
TORSDOF 6
ENDMDL
MODEL 2
REMARK VINA RESULT:      -9.8      1.822      2.144
REMARK  Name = C:\Users\Docking\Desktop\test protocol\1iep_ligandH.pdb
REMARK  8 active torsions:
REMARK  status: ('A' for Active; 'I' for Inactive)
REMARK    1  A    between atoms: _5  and  _11
REMARK    2  A    between atoms: _19  and  _21
REMARK    3  A    between atoms: _22  and  _66
REMARK    4  A    between atoms: _27  and  _30
REMARK    5  A    between atoms: _32  and  _33
REMARK    6  A    between atoms: _38  and  _43
REMARK    7  A    between atoms: _43  and  _46
REMARK    8  A    between atoms: _53  and  _55
REMARK                            x       y       z     vdW  Elec       q    Type
REMARK                         _______ _______ _______ _____ _____    ______ ____
ROOT
ATOM     10  C   UNL     1     -36.584  21.932   0.195  0.00  0.00    +0.038 A 
ATOM     11  C   UNL     1     -37.276  20.703   0.344  0.00  0.00    +0.047 A 
ATOM     12  C   UNL     1     -36.826  19.499  -0.338  0.00  0.00    +0.035 A 
ATOM     32  C   UNL     1     -35.666  19.583  -1.161  0.00  0.00    +0.024 A 
ATOM     33  C   UNL     1     -34.951  20.824  -1.324  0.00  0.00    +0.007 A 
ATOM     34  C   UNL     1     -35.391  22.015  -0.656  0.00  0.00    -0.029 A 
ATOM     35  C   UNL     1     -34.590  23.320  -0.872  0.00  0.00    +0.045 C 
ENDROOT
BRANCH  10   9
ATOM      4  C   UNL     1     -40.154  24.709   1.803  0.00  0.00    +0.077 A 
ATOM      5  C   UNL     1     -41.154  23.861   1.222  0.00  0.00    +0.048 A 
ATOM      6  C   UNL     1     -40.709  22.725   0.510  0.00  0.00    +0.116 A 
ATOM      7  N   UNL     1     -39.360  22.465   0.396  0.00  0.00    -0.223 NA
ATOM      8  C   UNL     1     -38.421  23.303   0.968  0.00  0.00    +0.220 A 
ATOM      9  N   UNL     1     -37.060  23.057   0.873  0.00  0.00    -0.283 N 
ATOM     36  H   UNL     1     -36.399  23.704   1.302  0.00  0.00    +0.155 HD
ATOM     37  N   UNL     1     -38.821  24.396   1.651  0.00  0.00    -0.214 NA
BRANCH   4   3
ATOM      1  C   UNL     1     -40.284  28.423   3.023  0.00  0.00    +0.020 A 
ATOM      2  C   UNL     1     -39.951  27.261   2.232  0.00  0.00    +0.013 A 
ATOM      3  C   UNL     1     -40.467  25.945   2.588  0.00  0.00    +0.019 A 
ATOM     38  C   UNL     1     -41.326  25.839   3.758  0.00  0.00    +0.120 A 
ATOM     39  N   UNL     1     -41.629  26.975   4.501  0.00  0.00    -0.263 NA
ATOM     40  C   UNL     1     -41.136  28.246   4.170  0.00  0.00    +0.111 A 
ENDBRANCH   4   3
ENDBRANCH  10   9
BRANCH  12  13
ATOM     13  N   UNL     1     -37.493  18.225  -0.232  0.00  0.00    -0.281 N 
ATOM     14  C   UNL     1     -38.838  17.949  -0.419  0.00  0.00    +0.248 C 
ATOM     30  O   UNL     1     -39.713  18.798  -0.497  0.00  0.00    -0.270 OA
ATOM     31  H   UNL     1     -36.902  17.430   0.011  0.00  0.00    +0.155 HD
BRANCH  14  15
ATOM     15  C   UNL     1     -39.275  16.524  -0.519  0.00  0.00    +0.037 A 
ATOM     16  C   UNL     1     -40.632  16.173  -0.948  0.00  0.00    +0.013 A 
ATOM     17  C   UNL     1     -41.033  14.791  -1.019  0.00  0.00    +0.005 A 
ATOM     18  C   UNL     1     -40.075  13.747  -0.662  0.00  0.00    -0.033 A 
ATOM     28  C   UNL     1     -38.735  14.123  -0.244  0.00  0.00    +0.005 A 
ATOM     29  C   UNL     1     -38.338  15.477  -0.172  0.00  0.00    +0.013 A 
BRANCH  18  19
ATOM     19  C   UNL     1     -40.424  12.247  -0.688  0.00  0.00    +0.119 C 
BRANCH  19  20
ATOM     20  N   UNL     1     -39.339  11.300  -1.084  0.00  0.00    -0.302 NA
ATOM     21  C   UNL     1     -39.157  11.236  -2.603  0.00  0.00    +0.066 C 
ATOM     22  C   UNL     1     -38.003  10.258  -2.998  0.00  0.00    -0.064 C 
ATOM     23  N   UNL     1     -38.299   8.869  -2.428  0.00  0.00    +0.379 N 
ATOM     24  C   UNL     1     -37.245   7.933  -2.847  0.00  0.00    -0.096 C 
ATOM     25  H   UNL     1     -39.259   8.519  -2.874  0.00  0.00    -0.082 HD
ATOM     26  C   UNL     1     -38.483   8.924  -0.919  0.00  0.00    -0.064 C 
ATOM     27  C   UNL     1     -39.612   9.921  -0.535  0.00  0.00    +0.066 C 
ENDBRANCH  19  20
ENDBRANCH  18  19
ENDBRANCH  14  15
ENDBRANCH  12  13
TORSDOF 6
ENDMDL
MODEL 3
REMARK VINA RESULT:      -8.9     17.423     20.290
REMARK  Name = C:\Users\Docking\Desktop\test protocol\1iep_ligandH.pdb
REMARK  8 active torsions:
REMARK  status: ('A' for Active; 'I' for Inactive)
REMARK    1  A    between atoms: _5  and  _11
REMARK    2  A    between atoms: _19  and  _21
REMARK    3  A    between atoms: _22  and  _66
REMARK    4  A    between atoms: _27  and  _30
REMARK    5  A    between atoms: _32  and  _33
REMARK    6  A    between atoms: _38  and  _43
REMARK    7  A    between atoms: _43  and  _46
REMARK    8  A    between atoms: _53  and  _55
REMARK                            x       y       z     vdW  Elec       q    Type
REMARK                         _______ _______ _______ _____ _____    ______ ____
ROOT
ATOM     10  C   UNL     1     -31.594  20.573 -15.717  0.00  0.00    +0.038 A 
ATOM     11  C   UNL     1     -31.592  19.206 -16.099  0.00  0.00    +0.047 A 
ATOM     12  C   UNL     1     -31.771  18.150 -15.114  0.00  0.00    +0.035 A 
ATOM     32  C   UNL     1     -31.953  18.522 -13.750  0.00  0.00    +0.024 A 
ATOM     33  C   UNL     1     -31.958  19.906 -13.345  0.00  0.00    +0.007 A 
ATOM     34  C   UNL     1     -31.779  20.951 -14.311  0.00  0.00    -0.029 A 
ATOM     35  C   UNL     1     -31.786  22.418 -13.819  0.00  0.00    +0.045 C 
ENDROOT
BRANCH  10   9
ATOM      4  C   UNL     1     -28.817  23.384 -18.440  0.00  0.00    +0.077 A 
ATOM      5  C   UNL     1     -27.616  22.893 -17.827  0.00  0.00    +0.048 A 
ATOM      6  C   UNL     1     -27.758  21.923 -16.810  0.00  0.00    +0.116 A 
ATOM      7  N   UNL     1     -29.011  21.483 -16.442  0.00  0.00    -0.223 NA
ATOM      8  C   UNL     1     -30.148  21.979 -17.053  0.00  0.00    +0.220 A 
ATOM      9  N   UNL     1     -31.418  21.545 -16.704  0.00  0.00    -0.283 N 
ATOM     36  H   UNL     1     -32.232  21.941 -17.173  0.00  0.00    +0.155 HD
ATOM     37  N   UNL     1     -30.040  22.907 -18.026  0.00  0.00    -0.214 NA
BRANCH   4   3
ATOM      1  C   UNL     1     -29.106  25.106 -21.941  0.00  0.00    +0.020 A 
ATOM      2  C   UNL     1     -29.104  24.079 -20.925  0.00  0.00    +0.013 A 
ATOM      3  C   UNL     1     -28.831  24.409 -19.532  0.00  0.00    +0.019 A 
ATOM     38  C   UNL     1     -28.564  25.800 -19.197  0.00  0.00    +0.120 A 
ATOM     39  N   UNL     1     -28.572  26.768 -20.197  0.00  0.00    -0.263 NA
ATOM     40  C   UNL     1     -28.831  26.461 -21.541  0.00  0.00    +0.111 A 
ENDBRANCH   4   3
ENDBRANCH  10   9
BRANCH  12  13
ATOM     13  N   UNL     1     -31.769  16.746 -15.441  0.00  0.00    -0.281 N 
ATOM     14  C   UNL     1     -30.680  15.894 -15.531  0.00  0.00    +0.248 C 
ATOM     30  O   UNL     1     -29.515  16.261 -15.553  0.00  0.00    -0.270 OA
ATOM     31  H   UNL     1     -32.681  16.329 -15.629  0.00  0.00    +0.155 HD
BRANCH  14  15
ATOM     15  C   UNL     1     -30.921  14.422 -15.624  0.00  0.00    +0.037 A 
ATOM     16  C   UNL     1     -32.270  13.883 -15.814  0.00  0.00    +0.013 A 
ATOM     17  C   UNL     1     -32.477  12.458 -15.884  0.00  0.00    +0.005 A 
ATOM     18  C   UNL     1     -31.330  11.562 -15.765  0.00  0.00    -0.033 A 
ATOM     28  C   UNL     1     -30.002  12.123 -15.582  0.00  0.00    +0.005 A 
ATOM     29  C   UNL     1     -29.796  13.519 -15.512  0.00  0.00    +0.013 A 
BRANCH  18  19
ATOM     19  C   UNL     1     -31.460  10.027 -15.806  0.00  0.00    +0.119 C 
BRANCH  19  20
ATOM     20  N   UNL     1     -32.084   9.427 -17.023  0.00  0.00    -0.302 NA
ATOM     21  C   UNL     1     -33.524   8.972 -16.765  0.00  0.00    +0.066 C 
ATOM     22  C   UNL     1     -34.169   8.367 -18.053  0.00  0.00    -0.064 C 
ATOM     23  N   UNL     1     -33.313   7.200 -18.550  0.00  0.00    +0.379 N 
ATOM     24  C   UNL     1     -33.948   6.592 -19.728  0.00  0.00    -0.096 C 
ATOM     25  H   UNL     1     -33.290   6.431 -17.743  0.00  0.00    -0.082 HD
ATOM     26  C   UNL     1     -31.880   7.643 -18.806  0.00  0.00    -0.064 C 
ATOM     27  C   UNL     1     -31.258   8.270 -17.528  0.00  0.00    +0.066 C 
ENDBRANCH  19  20
ENDBRANCH  18  19
ENDBRANCH  14  15
ENDBRANCH  12  13
TORSDOF 6
ENDMDL
MODEL 4
REMARK VINA RESULT:      -8.9      7.769     16.225
REMARK  Name = C:\Users\Docking\Desktop\test protocol\1iep_ligandH.pdb
REMARK  8 active torsions:
REMARK  status: ('A' for Active; 'I' for Inactive)
REMARK    1  A    between atoms: _5  and  _11
REMARK    2  A    between atoms: _19  and  _21
REMARK    3  A    between atoms: _22  and  _66
REMARK    4  A    between atoms: _27  and  _30
REMARK    5  A    between atoms: _32  and  _33
REMARK    6  A    between atoms: _38  and  _43
REMARK    7  A    between atoms: _43  and  _46
REMARK    8  A    between atoms: _53  and  _55
REMARK                            x       y       z     vdW  Elec       q    Type
REMARK                         _______ _______ _______ _____ _____    ______ ____
ROOT
ATOM     10  C   UNL     1     -36.046   8.996 -10.557  0.00  0.00    +0.038 A 
ATOM     11  C   UNL     1     -36.571   9.735  -9.466  0.00  0.00    +0.047 A 
ATOM     12  C   UNL     1     -36.310   9.336  -8.092  0.00  0.00    +0.035 A 
ATOM     32  C   UNL     1     -35.508   8.180  -7.865  0.00  0.00    +0.024 A 
ATOM     33  C   UNL     1     -34.967   7.417  -8.962  0.00  0.00    +0.007 A 
ATOM     34  C   UNL     1     -35.223   7.804 -10.320  0.00  0.00    -0.029 A 
ATOM     35  C   UNL     1     -34.623   6.945 -11.456  0.00  0.00    +0.045 C 
ENDROOT
BRANCH  10   9
ATOM      4  C   UNL     1     -35.109  11.677 -14.427  0.00  0.00    +0.077 A 
ATOM      5  C   UNL     1     -33.979  12.297 -13.797  0.00  0.00    +0.048 A 
ATOM      6  C   UNL     1     -33.676  11.903 -12.474  0.00  0.00    +0.116 A 
ATOM      7  N   UNL     1     -34.453  10.959 -11.838  0.00  0.00    -0.223 NA
ATOM      8  C   UNL     1     -35.537  10.382 -12.474  0.00  0.00    +0.220 A 
ATOM      9  N   UNL     1     -36.327   9.425 -11.856  0.00  0.00    -0.283 N 
ATOM     36  H   UNL     1     -37.123   9.029 -12.356  0.00  0.00    +0.155 HD
ATOM     37  N   UNL     1     -35.848  10.742 -13.737  0.00  0.00    -0.214 NA
BRANCH   4   3
ATOM      1  C   UNL     1     -35.105  12.615 -18.224  0.00  0.00    +0.020 A 
ATOM      2  C   UNL     1     -34.624  12.326 -16.893  0.00  0.00    +0.013 A 
ATOM      3  C   UNL     1     -35.553  11.986 -15.823  0.00  0.00    +0.019 A 
ATOM     38  C   UNL     1     -36.974  11.946 -16.135  0.00  0.00    +0.120 A 
ATOM     39  N   UNL     1     -37.408  12.230 -17.426  0.00  0.00    -0.263 NA
ATOM     40  C   UNL     1     -36.523  12.561 -18.464  0.00  0.00    +0.111 A 
ENDBRANCH   4   3
ENDBRANCH  10   9
BRANCH  12  13
ATOM     13  N   UNL     1     -36.824  10.043  -6.945  0.00  0.00    -0.281 N 
ATOM     14  C   UNL     1     -37.664   9.561  -5.954  0.00  0.00    +0.248 C 
ATOM     30  O   UNL     1     -38.276   8.506  -6.020  0.00  0.00    -0.270 OA
ATOM     31  H   UNL     1     -36.532  11.016  -6.851  0.00  0.00    +0.155 HD
BRANCH  14  15
ATOM     15  C   UNL     1     -37.864  10.377  -4.718  0.00  0.00    +0.037 A 
ATOM     16  C   UNL     1     -36.727  10.809  -3.900  0.00  0.00    +0.013 A 
ATOM     17  C   UNL     1     -36.949  11.580  -2.703  0.00  0.00    +0.005 A 
ATOM     18  C   UNL     1     -38.315  11.926  -2.317  0.00  0.00    -0.033 A 
ATOM     28  C   UNL     1     -39.424  11.489  -3.149  0.00  0.00    +0.005 A 
ATOM     29  C   UNL     1     -39.210  10.732  -4.323  0.00  0.00    +0.013 A 
BRANCH  18  19
ATOM     19  C   UNL     1     -38.647  12.728  -1.044  0.00  0.00    +0.119 C 
BRANCH  19  20
ATOM     20  N   UNL     1     -38.561  14.217  -1.132  0.00  0.00    -0.302 NA
ATOM     21  C   UNL     1     -37.391  14.774  -0.315  0.00  0.00    +0.066 C 
ATOM     22  C   UNL     1     -37.303  16.330  -0.437  0.00  0.00    -0.064 C 
ATOM     23  N   UNL     1     -38.625  16.950   0.017  0.00  0.00    +0.379 N 
ATOM     24  C   UNL     1     -38.524  18.416  -0.040  0.00  0.00    -0.096 C 
ATOM     25  H   UNL     1     -38.784  16.664   1.083  0.00  0.00    -0.082 HD
ATOM     26  C   UNL     1     -39.793  16.400  -0.788  0.00  0.00    -0.064 C 
ATOM     27  C   UNL     1     -39.855  14.850  -0.684  0.00  0.00    +0.066 C 
ENDBRANCH  19  20
ENDBRANCH  18  19
ENDBRANCH  14  15
ENDBRANCH  12  13
TORSDOF 6
ENDMDL
MODEL 5
REMARK VINA RESULT:      -8.8      5.198      7.705
REMARK  Name = C:\Users\Docking\Desktop\test protocol\1iep_ligandH.pdb
REMARK  8 active torsions:
REMARK  status: ('A' for Active; 'I' for Inactive)
REMARK    1  A    between atoms: _5  and  _11
REMARK    2  A    between atoms: _19  and  _21
REMARK    3  A    between atoms: _22  and  _66
REMARK    4  A    between atoms: _27  and  _30
REMARK    5  A    between atoms: _32  and  _33
REMARK    6  A    between atoms: _38  and  _43
REMARK    7  A    between atoms: _43  and  _46
REMARK    8  A    between atoms: _53  and  _55
REMARK                            x       y       z     vdW  Elec       q    Type
REMARK                         _______ _______ _______ _____ _____    ______ ____
ROOT
ATOM     10  C   UNL     1     -40.318  26.314   2.855  0.00  0.00    +0.038 A 
ATOM     11  C   UNL     1     -39.957  25.067   2.284  0.00  0.00    +0.047 A 
ATOM     12  C   UNL     1     -40.524  23.822   2.777  0.00  0.00    +0.035 A 
ATOM     32  C   UNL     1     -41.458  23.883   3.852  0.00  0.00    +0.024 A 
ATOM     33  C   UNL     1     -41.835  25.142   4.445  0.00  0.00    +0.007 A 
ATOM     34  C   UNL     1     -41.277  26.374   3.964  0.00  0.00    -0.029 A 
ATOM     35  C   UNL     1     -41.713  27.694   4.642  0.00  0.00    +0.045 C 
ENDROOT
BRANCH  10   9
ATOM      4  C   UNL     1     -36.862  29.644   2.765  0.00  0.00    +0.077 A 
ATOM      5  C   UNL     1     -36.156  29.025   3.849  0.00  0.00    +0.048 A 
ATOM      6  C   UNL     1     -36.719  27.855   4.407  0.00  0.00    +0.116 A 
ATOM      7  N   UNL     1     -37.901  27.351   3.909  0.00  0.00    -0.223 NA
ATOM      8  C   UNL     1     -38.558  27.973   2.863  0.00  0.00    +0.220 A 
ATOM      9  N   UNL     1     -39.743  27.479   2.342  0.00  0.00    -0.283 N 
ATOM     36  H   UNL     1     -40.200  27.972   1.575  0.00  0.00    +0.155 HD
ATOM     37  N   UNL     1     -38.041  29.092   2.314  0.00  0.00    -0.214 NA
BRANCH   4   3
ATOM      1  C   UNL     1     -35.850  32.214  -0.005  0.00  0.00    +0.020 A 
ATOM      2  C   UNL     1     -36.310  30.994   0.618  0.00  0.00    +0.013 A 
ATOM      3  C   UNL     1     -36.392  30.883   2.068  0.00  0.00    +0.019 A 
ATOM     38  C   UNL     1     -35.999  32.034   2.867  0.00  0.00    +0.120 A 
ATOM     39  N   UNL     1     -35.558  33.195   2.240  0.00  0.00    -0.263 NA
ATOM     40  C   UNL     1     -35.474  33.313   0.844  0.00  0.00    +0.111 A 
ENDBRANCH   4   3
ENDBRANCH  10   9
BRANCH  12  13
ATOM     13  N   UNL     1     -40.190  22.525   2.242  0.00  0.00    -0.281 N 
ATOM     14  C   UNL     1     -40.141  22.139   0.913  0.00  0.00    +0.248 C 
ATOM     30  O   UNL     1     -40.587  22.797  -0.015  0.00  0.00    -0.270 OA
ATOM     31  H   UNL     1     -39.961  21.804   2.927  0.00  0.00    +0.155 HD
BRANCH  14  15
ATOM     15  C   UNL     1     -39.519  20.825   0.565  0.00  0.00    +0.037 A 
ATOM     16  C   UNL     1     -38.064  20.652   0.556  0.00  0.00    +0.013 A 
ATOM     17  C   UNL     1     -37.489  19.379   0.200  0.00  0.00    +0.005 A 
ATOM     18  C   UNL     1     -38.371  18.268  -0.149  0.00  0.00    -0.033 A 
ATOM     28  C   UNL     1     -39.811  18.466  -0.128  0.00  0.00    +0.005 A 
ATOM     29  C   UNL     1     -40.378  19.713   0.220  0.00  0.00    +0.013 A 
BRANCH  18  19
ATOM     19  C   UNL     1     -37.845  16.880  -0.562  0.00  0.00    +0.119 C 
BRANCH  19  20
ATOM     20  N   UNL     1     -36.377  16.641  -0.437  0.00  0.00    -0.302 NA
ATOM     21  C   UNL     1     -35.638  16.901  -1.753  0.00  0.00    +0.066 C 
ATOM     22  C   UNL     1     -34.100  16.668  -1.599  0.00  0.00    -0.064 C 
ATOM     23  N   UNL     1     -33.850  15.240  -1.111  0.00  0.00    +0.379 N 
ATOM     24  C   UNL     1     -32.403  14.999  -1.020  0.00  0.00    -0.096 C 
ATOM     25  H   UNL     1     -34.262  14.544  -1.879  0.00  0.00    -0.082 HD
ATOM     26  C   UNL     1     -34.583  14.971   0.196  0.00  0.00    -0.064 C 
ATOM     27  C   UNL     1     -36.107  15.235   0.039  0.00  0.00    +0.066 C 
ENDBRANCH  19  20
ENDBRANCH  18  19
ENDBRANCH  14  15
ENDBRANCH  12  13
TORSDOF 6
ENDMDL
