MODEL 1
REMARK VINA RESULT:      -9.3      0.000      0.000
REMARK  Name = C:\Users\Docking\Desktop\test protocol\1iep_ligandH.pdb
REMARK  8 active torsions:
REMARK  status: ('A' for Active; 'I' for Inactive)
REMARK    1  A    between atoms: _5  and  _11
REMARK    2  A    between atoms: _19  and  _21
REMARK    3  A    between atoms: _22  and  _66
REMARK    4  A    between atoms: _27  and  _30
REMARK    5  A    between atoms: _32  and  _33
REMARK    6  A    between atoms: _38  and  _43
REMARK    7  A    between atoms: _43  and  _46
REMARK    8  A    between atoms: _53  and  _55
REMARK                            x       y       z     vdW  Elec       q    Type
REMARK                         _______ _______ _______ _____ _____    ______ ____
ROOT
ATOM     10  C   UNL     1      12.100  20.416  61.026  0.00  0.00    +0.038 A 
ATOM     11  C   UNL     1      13.306  20.085  61.695  0.00  0.00    +0.047 A 
ATOM     12  C   UNL     1      14.593  20.548  61.201  0.00  0.00    +0.035 A 
ATOM     32  C   UNL     1      14.615  21.350  60.022  0.00  0.00    +0.024 A 
ATOM     33  C   UNL     1      13.399  21.695  59.328  0.00  0.00    +0.007 A 
ATOM     34  C   UNL     1      12.127  21.238  59.810  0.00  0.00    -0.029 A 
ATOM     35  C   UNL     1      10.856  21.634  59.022  0.00  0.00    +0.045 C 
ENDROOT
BRANCH  10   9
ATOM      4  C   UNL     1       8.784  16.991  61.585  0.00  0.00    +0.077 A 
ATOM      5  C   UNL     1       9.506  16.073  60.752  0.00  0.00    +0.048 A 
ATOM      6  C   UNL     1      10.723  16.524  60.193  0.00  0.00    +0.116 A 
ATOM      7  N   UNL     1      11.174  17.799  60.455  0.00  0.00    -0.223 NA
ATOM      8  C   UNL     1      10.453  18.660  61.261  0.00  0.00    +0.220 A 
ATOM      9  N   UNL     1      10.892  19.944  61.544  0.00  0.00    -0.283 N 
ATOM     36  H   UNL     1      10.327  20.551  62.138  0.00  0.00    +0.155 HD
ATOM     37  N   UNL     1       9.287  18.254  61.806  0.00  0.00    -0.214 NA
BRANCH   4   3
ATOM      1  C   UNL     1       4.996  16.245  62.216  0.00  0.00    +0.020 A 
ATOM      2  C   UNL     1       6.224  16.567  61.525  0.00  0.00    +0.013 A 
ATOM      3  C   UNL     1       7.484  16.661  62.251  0.00  0.00    +0.019 A 
ATOM     38  C   UNL     1       7.468  16.421  63.686  0.00  0.00    +0.120 A 
ATOM     39  N   UNL     1       6.271  16.114  64.325  0.00  0.00    -0.263 NA
ATOM     40  C   UNL     1       5.051  16.022  63.637  0.00  0.00    +0.111 A 
ENDBRANCH   4   3
ENDBRANCH  10   9
BRANCH  12  13
ATOM     13  N   UNL     1      15.850  20.237  61.834  0.00  0.00    -0.281 N 
ATOM     14  C   UNL     1      16.555  21.001  62.750  0.00  0.00    +0.248 C 
ATOM     30  O   UNL     1      16.313  22.171  63.004  0.00  0.00    -0.270 OA
ATOM     31  H   UNL     1      16.273  19.345  61.575  0.00  0.00    +0.155 HD
BRANCH  14  15
ATOM     15  C   UNL     1      17.702  20.379  63.479  0.00  0.00    +0.037 A 
ATOM     16  C   UNL     1      19.078  20.830  63.256  0.00  0.00    +0.013 A 
ATOM     17  C   UNL     1      20.168  20.201  63.959  0.00  0.00    +0.005 A 
ATOM     18  C   UNL     1      19.885  19.114  64.893  0.00  0.00    -0.033 A 
ATOM     28  C   UNL     1      18.510  18.690  65.099  0.00  0.00    +0.005 A 
ATOM     29  C   UNL     1      17.440  19.303  64.411  0.00  0.00    +0.013 A 
BRANCH  18  19
ATOM     19  C   UNL     1      20.988  18.372  65.671  0.00  0.00    +0.119 C 
BRANCH  19  20
ATOM     20  N   UNL     1      20.557  17.283  66.597  0.00  0.00    -0.302 NA
ATOM     21  C   UNL     1      21.583  17.031  67.706  0.00  0.00    +0.066 C 
ATOM     22  C   UNL     1      21.105  15.904  68.678  0.00  0.00    -0.064 C 
ATOM     23  N   UNL     1      20.843  14.624  67.882  0.00  0.00    +0.379 N 
ATOM     24  C   UNL     1      20.450  13.547  68.801  0.00  0.00    -0.096 C 
ATOM     25  H   UNL     1      21.803  14.325  67.400  0.00  0.00    -0.082 HD
ATOM     26  C   UNL     1      19.826  14.866  66.776  0.00  0.00    -0.064 C 
ATOM     27  C   UNL     1      20.297  16.008  65.832  0.00  0.00    +0.066 C 
ENDBRANCH  19  20
ENDBRANCH  18  19
ENDBRANCH  14  15
ENDBRANCH  12  13
TORSDOF 6
ENDMDL
MODEL 2
REMARK VINA RESULT:      -9.2      7.355     11.546
REMARK  Name = C:\Users\Docking\Desktop\test protocol\1iep_ligandH.pdb
REMARK  8 active torsions:
REMARK  status: ('A' for Active; 'I' for Inactive)
REMARK    1  A    between atoms: _5  and  _11
REMARK    2  A    between atoms: _19  and  _21
REMARK    3  A    between atoms: _22  and  _66
REMARK    4  A    between atoms: _27  and  _30
REMARK    5  A    between atoms: _32  and  _33
REMARK    6  A    between atoms: _38  and  _43
REMARK    7  A    between atoms: _43  and  _46
REMARK    8  A    between atoms: _53  and  _55
REMARK                            x       y       z     vdW  Elec       q    Type
REMARK                         _______ _______ _______ _____ _____    ______ ____
ROOT
ATOM     10  C   UNL     1      10.149  25.585  58.791  0.00  0.00    +0.038 A 
ATOM     11  C   UNL     1      10.035  24.257  59.276  0.00  0.00    +0.047 A 
ATOM     12  C   UNL     1       9.939  23.129  58.363  0.00  0.00    +0.035 A 
ATOM     32  C   UNL     1       9.966  23.389  56.962  0.00  0.00    +0.024 A 
ATOM     33  C   UNL     1      10.080  24.733  56.452  0.00  0.00    +0.007 A 
ATOM     34  C   UNL     1      10.173  25.850  57.348  0.00  0.00    -0.029 A 
ATOM     35  C   UNL     1      10.287  27.270  56.745  0.00  0.00    +0.045 C 
ENDROOT
BRANCH  10   9
ATOM      4  C   UNL     1      12.595  28.253  61.944  0.00  0.00    +0.077 A 
ATOM      5  C   UNL     1      13.790  27.481  61.759  0.00  0.00    +0.048 A 
ATOM      6  C   UNL     1      13.732  26.402  60.849  0.00  0.00    +0.116 A 
ATOM      7  N   UNL     1      12.560  26.124  60.179  0.00  0.00    -0.223 NA
ATOM      8  C   UNL     1      11.425  26.888  60.382  0.00  0.00    +0.220 A 
ATOM      9  N   UNL     1      10.238  26.631  59.713  0.00  0.00    -0.283 N 
ATOM     36  H   UNL     1       9.420  27.213  59.895  0.00  0.00    +0.155 HD
ATOM     37  N   UNL     1      11.455  27.923  61.246  0.00  0.00    -0.214 NA
BRANCH   4   3
ATOM      1  C   UNL     1      13.433  30.955  64.646  0.00  0.00    +0.020 A 
ATOM      2  C   UNL     1      13.576  29.812  63.773  0.00  0.00    +0.013 A 
ATOM      3  C   UNL     1      12.500  29.427  62.868  0.00  0.00    +0.019 A 
ATOM     38  C   UNL     1      11.284  30.226  62.870  0.00  0.00    +0.120 A 
ATOM     39  N   UNL     1      11.175  31.320  63.723  0.00  0.00    -0.263 NA
ATOM     40  C   UNL     1      12.203  31.699  64.599  0.00  0.00    +0.111 A 
ENDBRANCH   4   3
ENDBRANCH  10   9
BRANCH  12  13
ATOM     13  N   UNL     1       9.813  21.760  58.796  0.00  0.00    -0.281 N 
ATOM     14  C   UNL     1      10.799  20.937  59.317  0.00  0.00    +0.248 C 
ATOM     30  O   UNL     1      11.994  21.188  59.289  0.00  0.00    -0.270 OA
ATOM     31  H   UNL     1       8.884  21.347  58.709  0.00  0.00    +0.155 HD
BRANCH  14  15
ATOM     15  C   UNL     1      10.400  19.641  59.945  0.00  0.00    +0.037 A 
ATOM     16  C   UNL     1      10.121  18.455  59.131  0.00  0.00    +0.013 A 
ATOM     17  C   UNL     1       9.722  17.222  59.762  0.00  0.00    +0.005 A 
ATOM     18  C   UNL     1       9.600  17.169  61.217  0.00  0.00    -0.033 A 
ATOM     28  C   UNL     1       9.887  18.359  62.001  0.00  0.00    +0.005 A 
ATOM     29  C   UNL     1      10.278  19.569  61.386  0.00  0.00    +0.013 A 
BRANCH  18  19
ATOM     19  C   UNL     1       9.159  15.902  61.973  0.00  0.00    +0.119 C 
BRANCH  19  20
ATOM     20  N   UNL     1       7.750  15.855  62.466  0.00  0.00    -0.302 NA
ATOM     21  C   UNL     1       6.784  16.564  61.513  0.00  0.00    +0.066 C 
ATOM     22  C   UNL     1       5.312  16.486  62.033  0.00  0.00    -0.064 C 
ATOM     23  N   UNL     1       5.235  17.095  63.434  0.00  0.00    +0.379 N 
ATOM     24  C   UNL     1       3.842  17.076  63.902  0.00  0.00    -0.096 C 
ATOM     25  H   UNL     1       5.552  18.161  63.356  0.00  0.00    -0.082 HD
ATOM     26  C   UNL     1       6.195  16.398  64.388  0.00  0.00    -0.064 C 
ATOM     27  C   UNL     1       7.651  16.456  63.847  0.00  0.00    +0.066 C 
ENDBRANCH  19  20
ENDBRANCH  18  19
ENDBRANCH  14  15
ENDBRANCH  12  13
TORSDOF 6
ENDMDL
MODEL 3
REMARK VINA RESULT:      -9.2      1.378      2.105
REMARK  Name = C:\Users\Docking\Desktop\test protocol\1iep_ligandH.pdb
REMARK  8 active torsions:
REMARK  status: ('A' for Active; 'I' for Inactive)
REMARK    1  A    between atoms: _5  and  _11
REMARK    2  A    between atoms: _19  and  _21
REMARK    3  A    between atoms: _22  and  _66
REMARK    4  A    between atoms: _27  and  _30
REMARK    5  A    between atoms: _32  and  _33
REMARK    6  A    between atoms: _38  and  _43
REMARK    7  A    between atoms: _43  and  _46
REMARK    8  A    between atoms: _53  and  _55
REMARK                            x       y       z     vdW  Elec       q    Type
REMARK                         _______ _______ _______ _____ _____    ______ ____
ROOT
ATOM     10  C   UNL     1      12.304  20.400  61.216  0.00  0.00    +0.038 A 
ATOM     11  C   UNL     1      13.528  20.058  61.846  0.00  0.00    +0.047 A 
ATOM     12  C   UNL     1      14.801  20.528  61.321  0.00  0.00    +0.035 A 
ATOM     32  C   UNL     1      14.790  21.347  60.155  0.00  0.00    +0.024 A 
ATOM     33  C   UNL     1      13.555  21.704  59.502  0.00  0.00    +0.007 A 
ATOM     34  C   UNL     1      12.296  21.242  60.014  0.00  0.00    -0.029 A 
ATOM     35  C   UNL     1      11.004  21.650  59.269  0.00  0.00    +0.045 C 
ENDROOT
BRANCH  10   9
ATOM      4  C   UNL     1       8.917  17.033  61.691  0.00  0.00    +0.077 A 
ATOM      5  C   UNL     1       9.565  16.165  60.751  0.00  0.00    +0.048 A 
ATOM      6  C   UNL     1      10.764  16.625  60.162  0.00  0.00    +0.116 A 
ATOM      7  N   UNL     1      11.268  17.863  60.496  0.00  0.00    -0.223 NA
ATOM      8  C   UNL     1      10.617  18.676  61.406  0.00  0.00    +0.220 A 
ATOM      9  N   UNL     1      11.111  19.922  61.763  0.00  0.00    -0.283 N 
ATOM     36  H   UNL     1      10.597  20.495  62.432  0.00  0.00    +0.155 HD
ATOM     37  N   UNL     1       9.470  18.260  61.981  0.00  0.00    -0.214 NA
BRANCH   4   3
ATOM      1  C   UNL     1       5.158  16.263  62.452  0.00  0.00    +0.020 A 
ATOM      2  C   UNL     1       6.357  16.602  61.721  0.00  0.00    +0.013 A 
ATOM      3  C   UNL     1       7.644  16.686  62.400  0.00  0.00    +0.019 A 
ATOM     38  C   UNL     1       7.684  16.419  63.830  0.00  0.00    +0.120 A 
ATOM     39  N   UNL     1       6.512  16.097  64.507  0.00  0.00    -0.263 NA
ATOM     40  C   UNL     1       5.268  16.014  63.865  0.00  0.00    +0.111 A 
ENDBRANCH   4   3
ENDBRANCH  10   9
BRANCH  12  13
ATOM     13  N   UNL     1      16.076  20.206  61.912  0.00  0.00    -0.281 N 
ATOM     14  C   UNL     1      16.607  20.678  63.101  0.00  0.00    +0.248 C 
ATOM     30  O   UNL     1      16.153  21.620  63.735  0.00  0.00    -0.270 OA
ATOM     31  H   UNL     1      16.658  19.550  61.391  0.00  0.00    +0.155 HD
BRANCH  14  15
ATOM     15  C   UNL     1      17.826  20.019  63.660  0.00  0.00    +0.037 A 
ATOM     16  C   UNL     1      17.739  18.746  64.381  0.00  0.00    +0.013 A 
ATOM     17  C   UNL     1      18.929  18.140  64.925  0.00  0.00    +0.005 A 
ATOM     18  C   UNL     1      20.217  18.807  64.748  0.00  0.00    -0.033 A 
ATOM     28  C   UNL     1      20.275  20.066  64.024  0.00  0.00    +0.005 A 
ATOM     29  C   UNL     1      19.111  20.663  63.491  0.00  0.00    +0.013 A 
BRANCH  18  19
ATOM     19  C   UNL     1      21.535  18.244  65.312  0.00  0.00    +0.119 C 
BRANCH  19  20
ATOM     20  N   UNL     1      21.856  18.553  66.738  0.00  0.00    -0.302 NA
ATOM     21  C   UNL     1      22.891  19.674  66.863  0.00  0.00    +0.066 C 
ATOM     22  C   UNL     1      23.199  20.001  68.360  0.00  0.00    -0.064 C 
ATOM     23  N   UNL     1      23.684  18.734  69.067  0.00  0.00    +0.379 N 
ATOM     24  C   UNL     1      24.029  19.051  70.460  0.00  0.00    -0.096 C 
ATOM     25  H   UNL     1      24.616  18.398  68.555  0.00  0.00    -0.082 HD
ATOM     26  C   UNL     1      22.661  17.613  68.945  0.00  0.00    -0.064 C 
ATOM     27  C   UNL     1      22.341  17.317  67.453  0.00  0.00    +0.066 C 
ENDBRANCH  19  20
ENDBRANCH  18  19
ENDBRANCH  14  15
ENDBRANCH  12  13
TORSDOF 6
ENDMDL
MODEL 4
REMARK VINA RESULT:      -9.1      5.520     10.484
REMARK  Name = C:\Users\Docking\Desktop\test protocol\1iep_ligandH.pdb
REMARK  8 active torsions:
REMARK  status: ('A' for Active; 'I' for Inactive)
REMARK    1  A    between atoms: _5  and  _11
REMARK    2  A    between atoms: _19  and  _21
REMARK    3  A    between atoms: _22  and  _66
REMARK    4  A    between atoms: _27  and  _30
REMARK    5  A    between atoms: _32  and  _33
REMARK    6  A    between atoms: _38  and  _43
REMARK    7  A    between atoms: _43  and  _46
REMARK    8  A    between atoms: _53  and  _55
REMARK                            x       y       z     vdW  Elec       q    Type
REMARK                         _______ _______ _______ _____ _____    ______ ____
ROOT
ATOM     10  C   UNL     1      18.856  16.853  66.533  0.00  0.00    +0.038 A 
ATOM     11  C   UNL     1      19.433  15.621  66.133  0.00  0.00    +0.047 A 
ATOM     12  C   UNL     1      20.492  14.998  66.911  0.00  0.00    +0.035 A 
ATOM     32  C   UNL     1      20.938  15.657  68.094  0.00  0.00    +0.024 A 
ATOM     33  C   UNL     1      20.363  16.910  68.515  0.00  0.00    +0.007 A 
ATOM     34  C   UNL     1      19.320  17.531  67.750  0.00  0.00    -0.029 A 
ATOM     35  C   UNL     1      18.745  18.878  68.246  0.00  0.00    +0.045 C 
ENDROOT
BRANCH  10   9
ATOM      4  C   UNL     1      17.248  20.045  63.329  0.00  0.00    +0.077 A 
ATOM      5  C   UNL     1      18.530  20.681  63.231  0.00  0.00    +0.048 A 
ATOM      6  C   UNL     1      19.575  20.160  64.027  0.00  0.00    +0.116 A 
ATOM      7  N   UNL     1      19.344  19.084  64.855  0.00  0.00    -0.223 NA
ATOM      8  C   UNL     1      18.095  18.495  64.928  0.00  0.00    +0.220 A 
ATOM      9  N   UNL     1      17.842  17.407  65.748  0.00  0.00    -0.283 N 
ATOM     36  H   UNL     1      16.905  17.006  65.779  0.00  0.00    +0.155 HD
ATOM     37  N   UNL     1      17.080  18.974  64.179  0.00  0.00    -0.214 NA
BRANCH   4   3
ATOM      1  C   UNL     1      14.886  21.126  60.405  0.00  0.00    +0.020 A 
ATOM      2  C   UNL     1      16.076  20.710  61.111  0.00  0.00    +0.013 A 
ATOM      3  C   UNL     1      16.045  20.477  62.549  0.00  0.00    +0.019 A 
ATOM     38  C   UNL     1      14.785  20.676  63.249  0.00  0.00    +0.120 A 
ATOM     39  N   UNL     1      13.656  21.079  62.543  0.00  0.00    -0.263 NA
ATOM     40  C   UNL     1      13.673  21.307  61.159  0.00  0.00    +0.111 A 
ENDBRANCH   4   3
ENDBRANCH  10   9
BRANCH  12  13
ATOM     13  N   UNL     1      21.121  13.752  66.550  0.00  0.00    -0.281 N 
ATOM     14  C   UNL     1      21.115  12.559  67.254  0.00  0.00    +0.248 C 
ATOM     30  O   UNL     1      20.744  12.443  68.413  0.00  0.00    -0.270 OA
ATOM     31  H   UNL     1      21.633  13.749  65.667  0.00  0.00    +0.155 HD
BRANCH  14  15
ATOM     15  C   UNL     1      21.606  11.319  66.578  0.00  0.00    +0.037 A 
ATOM     16  C   UNL     1      20.672  10.308  66.076  0.00  0.00    +0.013 A 
ATOM     17  C   UNL     1      21.172   9.113  65.444  0.00  0.00    +0.005 A 
ATOM     18  C   UNL     1      22.615   8.924  65.309  0.00  0.00    -0.033 A 
ATOM     28  C   UNL     1      23.518   9.946  65.811  0.00  0.00    +0.005 A 
ATOM     29  C   UNL     1      23.031  11.118  66.433  0.00  0.00    +0.013 A 
BRANCH  18  19
ATOM     19  C   UNL     1      23.238   7.670  64.667  0.00  0.00    +0.119 C 
BRANCH  19  20
ATOM     20  N   UNL     1      23.288   6.430  65.497  0.00  0.00    -0.302 NA
ATOM     21  C   UNL     1      24.328   6.531  66.617  0.00  0.00    +0.066 C 
ATOM     22  C   UNL     1      24.351   5.234  67.490  0.00  0.00    -0.064 C 
ATOM     23  N   UNL     1      24.634   4.026  66.595  0.00  0.00    +0.379 N 
ATOM     24  C   UNL     1      24.715   2.812  67.421  0.00  0.00    -0.096 C 
ATOM     25  H   UNL     1      25.632   4.181  66.123  0.00  0.00    -0.082 HD
ATOM     26  C   UNL     1      23.607   3.920  65.477  0.00  0.00    -0.064 C 
ATOM     27  C   UNL     1      23.571   5.225  64.634  0.00  0.00    +0.066 C 
ENDBRANCH  19  20
ENDBRANCH  18  19
ENDBRANCH  14  15
ENDBRANCH  12  13
TORSDOF 6
ENDMDL
MODEL 5
REMARK VINA RESULT:      -9.1      2.400     11.954
REMARK  Name = C:\Users\Docking\Desktop\test protocol\1iep_ligandH.pdb
REMARK  8 active torsions:
REMARK  status: ('A' for Active; 'I' for Inactive)
REMARK    1  A    between atoms: _5  and  _11
REMARK    2  A    between atoms: _19  and  _21
REMARK    3  A    between atoms: _22  and  _66
REMARK    4  A    between atoms: _27  and  _30
REMARK    5  A    between atoms: _32  and  _33
REMARK    6  A    between atoms: _38  and  _43
REMARK    7  A    between atoms: _43  and  _46
REMARK    8  A    between atoms: _53  and  _55
REMARK                            x       y       z     vdW  Elec       q    Type
REMARK                         _______ _______ _______ _____ _____    ______ ____
ROOT
ATOM     10  C   UNL     1      14.891  20.620  61.567  0.00  0.00    +0.038 A 
ATOM     11  C   UNL     1      13.742  19.838  61.848  0.00  0.00    +0.047 A 
ATOM     12  C   UNL     1      12.426  20.235  61.372  0.00  0.00    +0.035 A 
ATOM     32  C   UNL     1      12.317  21.434  60.610  0.00  0.00    +0.024 A 
ATOM     33  C   UNL     1      13.475  22.242  60.316  0.00  0.00    +0.007 A 
ATOM     34  C   UNL     1      14.775  21.857  60.785  0.00  0.00    -0.029 A 
ATOM     35  C   UNL     1      15.980  22.765  60.445  0.00  0.00    +0.045 C 
ENDROOT
BRANCH  10   9
ATOM      4  C   UNL     1      18.185  20.250  65.039  0.00  0.00    +0.077 A 
ATOM      5  C   UNL     1      17.381  20.997  65.963  0.00  0.00    +0.048 A 
ATOM      6  C   UNL     1      16.129  21.465  65.503  0.00  0.00    +0.116 A 
ATOM      7  N   UNL     1      15.722  21.199  64.214  0.00  0.00    -0.223 NA
ATOM      8  C   UNL     1      16.523  20.477  63.347  0.00  0.00    +0.220 A 
ATOM      9  N   UNL     1      16.130  20.192  62.049  0.00  0.00    -0.283 N 
ATOM     36  H   UNL     1      16.753  19.662  61.439  0.00  0.00    +0.155 HD
ATOM     37  N   UNL     1      17.723  20.021  63.762  0.00  0.00    -0.214 NA
BRANCH   4   3
ATOM      1  C   UNL     1      21.775  18.726  64.744  0.00  0.00    +0.020 A 
ATOM      2  C   UNL     1      20.489  19.263  64.364  0.00  0.00    +0.013 A 
ATOM      3  C   UNL     1      19.530  19.686  65.377  0.00  0.00    +0.019 A 
ATOM     38  C   UNL     1      19.906  19.552  66.776  0.00  0.00    +0.120 A 
ATOM     39  N   UNL     1      21.151  19.029  67.112  0.00  0.00    -0.263 NA
ATOM     40  C   UNL     1      22.082  18.617  66.146  0.00  0.00    +0.111 A 
ENDBRANCH   4   3
ENDBRANCH  10   9
BRANCH  12  13
ATOM     13  N   UNL     1      11.223  19.485  61.634  0.00  0.00    -0.281 N 
ATOM     14  C   UNL     1      10.533  18.653  60.767  0.00  0.00    +0.248 C 
ATOM     30  O   UNL     1      10.730  18.593  59.563  0.00  0.00    -0.270 OA
ATOM     31  H   UNL     1      10.832  19.580  62.571  0.00  0.00    +0.155 HD
BRANCH  14  15
ATOM     15  C   UNL     1       9.460  17.768  61.316  0.00  0.00    +0.037 A 
ATOM     16  C   UNL     1       8.324  17.351  60.491  0.00  0.00    +0.013 A 
ATOM     17  C   UNL     1       7.294  16.512  61.051  0.00  0.00    +0.005 A 
ATOM     18  C   UNL     1       7.397  16.083  62.444  0.00  0.00    -0.033 A 
ATOM     28  C   UNL     1       8.538  16.508  63.238  0.00  0.00    +0.005 A 
ATOM     29  C   UNL     1       9.549  17.331  62.693  0.00  0.00    +0.013 A 
BRANCH  18  19
ATOM     19  C   UNL     1       6.334  15.205  63.129  0.00  0.00    +0.119 C 
BRANCH  19  20
ATOM     20  N   UNL     1       4.981  15.802  63.333  0.00  0.00    -0.302 NA
ATOM     21  C   UNL     1       4.328  16.209  62.009  0.00  0.00    +0.066 C 
ATOM     22  C   UNL     1       2.903  16.811  62.238  0.00  0.00    -0.064 C 
ATOM     23  N   UNL     1       3.006  18.010  63.182  0.00  0.00    +0.379 N 
ATOM     24  C   UNL     1       1.677  18.615  63.354  0.00  0.00    -0.096 C 
ATOM     25  H   UNL     1       3.662  18.769  62.695  0.00  0.00    -0.082 HD
ATOM     26  C   UNL     1       3.657  17.616  64.500  0.00  0.00    -0.064 C 
ATOM     27  C   UNL     1       5.060  16.991  64.259  0.00  0.00    +0.066 C 
ENDBRANCH  19  20
ENDBRANCH  18  19
ENDBRANCH  14  15
ENDBRANCH  12  13
TORSDOF 6
ENDMDL
