MODEL 1
REMARK VINA RESULT:      -9.1      0.000      0.000
REMARK  Name = C:\Users\Docking\Desktop\test protocol\1iep_ligandH.pdb
REMARK  8 active torsions:
REMARK  status: ('A' for Active; 'I' for Inactive)
REMARK    1  A    between atoms: _5  and  _11
REMARK    2  A    between atoms: _19  and  _21
REMARK    3  A    between atoms: _22  and  _66
REMARK    4  A    between atoms: _27  and  _30
REMARK    5  A    between atoms: _32  and  _33
REMARK    6  A    between atoms: _38  and  _43
REMARK    7  A    between atoms: _43  and  _46
REMARK    8  A    between atoms: _53  and  _55
REMARK                            x       y       z     vdW  Elec       q    Type
REMARK                         _______ _______ _______ _____ _____    ______ ____
ROOT
ATOM     10  C   UNL     1      14.661  21.491  16.246  0.00  0.00    +0.038 A 
ATOM     11  C   UNL     1      13.582  21.540  15.328  0.00  0.00    +0.047 A 
ATOM     12  C   UNL     1      12.685  20.407  15.159  0.00  0.00    +0.035 A 
ATOM     32  C   UNL     1      12.916  19.240  15.944  0.00  0.00    +0.024 A 
ATOM     33  C   UNL     1      14.010  19.173  16.882  0.00  0.00    +0.007 A 
ATOM     34  C   UNL     1      14.899  20.286  17.050  0.00  0.00    -0.029 A 
ATOM     35  C   UNL     1      16.058  20.156  18.065  0.00  0.00    +0.045 C 
ENDROOT
BRANCH  10   9
ATOM      4  C   UNL     1      18.423  24.139  14.875  0.00  0.00    +0.077 A 
ATOM      5  C   UNL     1      18.781  23.205  13.847  0.00  0.00    +0.048 A 
ATOM      6  C   UNL     1      17.976  22.052  13.709  0.00  0.00    +0.116 A 
ATOM      7  N   UNL     1      16.895  21.859  14.542  0.00  0.00    -0.223 NA
ATOM      8  C   UNL     1      16.578  22.779  15.524  0.00  0.00    +0.220 A 
ATOM      9  N   UNL     1      15.491  22.608  16.368  0.00  0.00    -0.283 N 
ATOM     36  H   UNL     1      15.295  23.306  17.085  0.00  0.00    +0.155 HD
ATOM     37  N   UNL     1      17.332  23.887  15.678  0.00  0.00    -0.214 NA
BRANCH   4   3
ATOM      1  C   UNL     1      20.233  27.576  14.411  0.00  0.00    +0.020 A 
ATOM      2  C   UNL     1      19.506  26.367  14.099  0.00  0.00    +0.013 A 
ATOM      3  C   UNL     1      19.174  25.406  15.144  0.00  0.00    +0.019 A 
ATOM     38  C   UNL     1      19.595  25.701  16.505  0.00  0.00    +0.120 A 
ATOM     39  N   UNL     1      20.295  26.873  16.776  0.00  0.00    -0.263 NA
ATOM     40  C   UNL     1      20.622  27.804  15.778  0.00  0.00    +0.111 A 
ENDBRANCH   4   3
ENDBRANCH  10   9
BRANCH  12  13
ATOM     13  N   UNL     1      11.577  20.396  14.237  0.00  0.00    -0.281 N 
ATOM     14  C   UNL     1      10.224  20.427  14.531  0.00  0.00    +0.248 C 
ATOM     30  O   UNL     1       9.755  20.253  15.645  0.00  0.00    -0.270 OA
ATOM     31  H   UNL     1      11.820  20.362  13.246  0.00  0.00    +0.155 HD
BRANCH  14  15
ATOM     15  C   UNL     1       9.250  20.673  13.424  0.00  0.00    +0.037 A 
ATOM     16  C   UNL     1       8.942  19.634  12.438  0.00  0.00    +0.013 A 
ATOM     17  C   UNL     1       8.011  19.904  11.370  0.00  0.00    +0.005 A 
ATOM     18  C   UNL     1       7.380  21.219  11.285  0.00  0.00    -0.033 A 
ATOM     28  C   UNL     1       7.700  22.229  12.279  0.00  0.00    +0.005 A 
ATOM     29  C   UNL     1       8.613  21.969  13.326  0.00  0.00    +0.013 A 
BRANCH  18  19
ATOM     19  C   UNL     1       6.392  21.601  10.167  0.00  0.00    +0.119 C 
BRANCH  19  20
ATOM     20  N   UNL     1       6.969  21.981   8.844  0.00  0.00    -0.302 NA
ATOM     21  C   UNL     1       8.154  21.091   8.457  0.00  0.00    +0.066 C 
ATOM     22  C   UNL     1       8.732  21.488   7.060  0.00  0.00    -0.064 C 
ATOM     23  N   UNL     1       9.145  22.961   7.081  0.00  0.00    +0.379 N 
ATOM     24  C   UNL     1       9.742  23.322   5.787  0.00  0.00    -0.096 C 
ATOM     25  H   UNL     1       9.932  23.080   7.862  0.00  0.00    -0.082 HD
ATOM     26  C   UNL     1       7.973  23.852   7.467  0.00  0.00    -0.064 C 
ATOM     27  C   UNL     1       7.388  23.430   8.844  0.00  0.00    +0.066 C 
ENDBRANCH  19  20
ENDBRANCH  18  19
ENDBRANCH  14  15
ENDBRANCH  12  13
TORSDOF 6
ENDMDL
MODEL 2
REMARK VINA RESULT:      -9.0      7.412     12.706
REMARK  Name = C:\Users\Docking\Desktop\test protocol\1iep_ligandH.pdb
REMARK  8 active torsions:
REMARK  status: ('A' for Active; 'I' for Inactive)
REMARK    1  A    between atoms: _5  and  _11
REMARK    2  A    between atoms: _19  and  _21
REMARK    3  A    between atoms: _22  and  _66
REMARK    4  A    between atoms: _27  and  _30
REMARK    5  A    between atoms: _32  and  _33
REMARK    6  A    between atoms: _38  and  _43
REMARK    7  A    between atoms: _43  and  _46
REMARK    8  A    between atoms: _53  and  _55
REMARK                            x       y       z     vdW  Elec       q    Type
REMARK                         _______ _______ _______ _____ _____    ______ ____
ROOT
ATOM     10  C   UNL     1      18.317  18.524  12.508  0.00  0.00    +0.038 A 
ATOM     11  C   UNL     1      18.822  19.812  12.819  0.00  0.00    +0.047 A 
ATOM     12  C   UNL     1      18.519  20.452  14.090  0.00  0.00    +0.035 A 
ATOM     32  C   UNL     1      17.698  19.751  15.021  0.00  0.00    +0.024 A 
ATOM     33  C   UNL     1      17.175  18.441  14.720  0.00  0.00    +0.007 A 
ATOM     34  C   UNL     1      17.469  17.806  13.467  0.00  0.00    -0.029 A 
ATOM     35  C   UNL     1      16.876  16.404  13.195  0.00  0.00    +0.045 C 
ENDROOT
BRANCH  10   9
ATOM      4  C   UNL     1      21.374  16.328   9.529  0.00  0.00    +0.077 A 
ATOM      5  C   UNL     1      22.424  16.337  10.506  0.00  0.00    +0.048 A 
ATOM      6  C   UNL     1      22.139  16.922  11.760  0.00  0.00    +0.116 A 
ATOM      7  N   UNL     1      20.893  17.456  12.008  0.00  0.00    -0.223 NA
ATOM      8  C   UNL     1      19.903  17.433  11.043  0.00  0.00    +0.220 A 
ATOM      9  N   UNL     1      18.640  17.956  11.273  0.00  0.00    -0.283 N 
ATOM     36  H   UNL     1      17.939  17.926  10.533  0.00  0.00    +0.155 HD
ATOM     37  N   UNL     1      20.150  16.881   9.837  0.00  0.00    -0.214 NA
BRANCH   4   3
ATOM      1  C   UNL     1      21.456  15.900   5.642  0.00  0.00    +0.020 A 
ATOM      2  C   UNL     1      21.302  16.513   6.941  0.00  0.00    +0.013 A 
ATOM      3  C   UNL     1      21.520  15.743   8.159  0.00  0.00    +0.019 A 
ATOM     38  C   UNL     1      21.897  14.344   8.026  0.00  0.00    +0.120 A 
ATOM     39  N   UNL     1      22.037  13.780   6.762  0.00  0.00    -0.263 NA
ATOM     40  C   UNL     1      21.828  14.511   5.583  0.00  0.00    +0.111 A 
ENDBRANCH   4   3
ENDBRANCH  10   9
BRANCH  12  13
ATOM     13  N   UNL     1      18.997  21.761  14.458  0.00  0.00    -0.281 N 
ATOM     14  C   UNL     1      18.249  22.885  14.770  0.00  0.00    +0.248 C 
ATOM     30  O   UNL     1      17.048  22.993  14.569  0.00  0.00    -0.270 OA
ATOM     31  H   UNL     1      20.010  21.873  14.494  0.00  0.00    +0.155 HD
BRANCH  14  15
ATOM     15  C   UNL     1      18.937  24.064  15.378  0.00  0.00    +0.037 A 
ATOM     16  C   UNL     1      19.040  25.338  14.660  0.00  0.00    +0.013 A 
ATOM     17  C   UNL     1      19.723  26.454  15.263  0.00  0.00    +0.005 A 
ATOM     18  C   UNL     1      20.308  26.303  16.593  0.00  0.00    -0.033 A 
ATOM     28  C   UNL     1      20.187  25.030  17.285  0.00  0.00    +0.005 A 
ATOM     29  C   UNL     1      19.518  23.933  16.697  0.00  0.00    +0.013 A 
BRANCH  18  19
ATOM     19  C   UNL     1      21.074  27.435  17.304  0.00  0.00    +0.119 C 
BRANCH  19  20
ATOM     20  N   UNL     1      22.565  27.384  17.260  0.00  0.00    -0.302 NA
ATOM     21  C   UNL     1      23.086  26.995  15.873  0.00  0.00    +0.066 C 
ATOM     22  C   UNL     1      24.649  26.969  15.839  0.00  0.00    -0.064 C 
ATOM     23  N   UNL     1      25.163  25.997  16.903  0.00  0.00    +0.379 N 
ATOM     24  C   UNL     1      26.630  25.927  16.834  0.00  0.00    -0.096 C 
ATOM     25  H   UNL     1      24.764  24.986  16.658  0.00  0.00    -0.082 HD
ATOM     26  C   UNL     1      24.648  26.375  18.284  0.00  0.00    -0.064 C 
ATOM     27  C   UNL     1      23.095  26.427  18.300  0.00  0.00    +0.066 C 
ENDBRANCH  19  20
ENDBRANCH  18  19
ENDBRANCH  14  15
ENDBRANCH  12  13
TORSDOF 6
ENDMDL
MODEL 3
REMARK VINA RESULT:      -8.9      5.878      9.685
REMARK  Name = C:\Users\Docking\Desktop\test protocol\1iep_ligandH.pdb
REMARK  8 active torsions:
REMARK  status: ('A' for Active; 'I' for Inactive)
REMARK    1  A    between atoms: _5  and  _11
REMARK    2  A    between atoms: _19  and  _21
REMARK    3  A    between atoms: _22  and  _66
REMARK    4  A    between atoms: _27  and  _30
REMARK    5  A    between atoms: _32  and  _33
REMARK    6  A    between atoms: _38  and  _43
REMARK    7  A    between atoms: _43  and  _46
REMARK    8  A    between atoms: _53  and  _55
REMARK                            x       y       z     vdW  Elec       q    Type
REMARK                         _______ _______ _______ _____ _____    ______ ____
ROOT
ATOM     10  C   UNL     1      19.905  20.343  13.573  0.00  0.00    +0.038 A 
ATOM     11  C   UNL     1      18.656  20.612  14.188  0.00  0.00    +0.047 A 
ATOM     12  C   UNL     1      18.116  21.962  14.237  0.00  0.00    +0.035 A 
ATOM     32  C   UNL     1      18.875  23.015  13.647  0.00  0.00    +0.024 A 
ATOM     33  C   UNL     1      20.147  22.760  13.019  0.00  0.00    +0.007 A 
ATOM     34  C   UNL     1      20.686  21.430  12.970  0.00  0.00    -0.029 A 
ATOM     35  C   UNL     1      22.058  21.216  12.289  0.00  0.00    +0.045 C 
ENDROOT
BRANCH  10   9
ATOM      4  C   UNL     1      20.478  16.083  11.438  0.00  0.00    +0.077 A 
ATOM      5  C   UNL     1      19.756  16.503  10.272  0.00  0.00    +0.048 A 
ATOM      6  C   UNL     1      19.247  17.822  10.265  0.00  0.00    +0.116 A 
ATOM      7  N   UNL     1      19.452  18.649  11.348  0.00  0.00    -0.223 NA
ATOM      8  C   UNL     1      20.151  18.211  12.457  0.00  0.00    +0.220 A 
ATOM      9  N   UNL     1      20.376  19.028  13.554  0.00  0.00    -0.283 N 
ATOM     36  H   UNL     1      20.891  18.666  14.356  0.00  0.00    +0.155 HD
ATOM     37  N   UNL     1      20.646  16.956  12.489  0.00  0.00    -0.214 NA
BRANCH   4   3
ATOM      1  C   UNL     1      21.110  12.386  12.550  0.00  0.00    +0.020 A 
ATOM      2  C   UNL     1      20.489  13.686  12.434  0.00  0.00    +0.013 A 
ATOM      3  C   UNL     1      21.080  14.721  11.595  0.00  0.00    +0.019 A 
ATOM     38  C   UNL     1      22.308  14.406  10.881  0.00  0.00    +0.120 A 
ATOM     39  N   UNL     1      22.884  13.147  11.014  0.00  0.00    -0.263 NA
ATOM     40  C   UNL     1      22.326  12.143  11.819  0.00  0.00    +0.111 A 
ENDBRANCH   4   3
ENDBRANCH  10   9
BRANCH  12  13
ATOM     13  N   UNL     1      16.857  22.296  14.855  0.00  0.00    -0.281 N 
ATOM     14  C   UNL     1      15.583  21.954  14.432  0.00  0.00    +0.248 C 
ATOM     30  O   UNL     1      15.322  21.485  13.334  0.00  0.00    -0.270 OA
ATOM     31  H   UNL     1      16.912  22.853  15.708  0.00  0.00    +0.155 HD
BRANCH  14  15
ATOM     15  C   UNL     1      14.431  22.177  15.357  0.00  0.00    +0.037 A 
ATOM     16  C   UNL     1      13.095  21.664  15.045  0.00  0.00    +0.013 A 
ATOM     17  C   UNL     1      11.997  21.908  15.946  0.00  0.00    +0.005 A 
ATOM     18  C   UNL     1      12.231  22.670  17.170  0.00  0.00    -0.033 A 
ATOM     28  C   UNL     1      13.568  23.163  17.458  0.00  0.00    +0.005 A 
ATOM     29  C   UNL     1      14.646  22.926  16.577  0.00  0.00    +0.013 A 
BRANCH  18  19
ATOM     19  C   UNL     1      11.114  22.996  18.179  0.00  0.00    +0.119 C 
BRANCH  19  20
ATOM     20  N   UNL     1      10.941  24.428  18.568  0.00  0.00    -0.302 NA
ATOM     21  C   UNL     1      11.211  24.655  20.058  0.00  0.00    +0.066 C 
ATOM     22  C   UNL     1      11.048  26.161  20.443  0.00  0.00    -0.064 C 
ATOM     23  N   UNL     1       9.640  26.630  20.070  0.00  0.00    +0.379 N 
ATOM     24  C   UNL     1       9.464  28.030  20.484  0.00  0.00    -0.096 C 
ATOM     25  H   UNL     1       8.914  26.013  20.648  0.00  0.00    -0.082 HD
ATOM     26  C   UNL     1       9.363  26.406  18.590  0.00  0.00    -0.064 C 
ATOM     27  C   UNL     1       9.557  24.911  18.212  0.00  0.00    +0.066 C 
ENDBRANCH  19  20
ENDBRANCH  18  19
ENDBRANCH  14  15
ENDBRANCH  12  13
TORSDOF 6
ENDMDL
MODEL 4
REMARK VINA RESULT:      -8.8      7.237     12.547
REMARK  Name = C:\Users\Docking\Desktop\test protocol\1iep_ligandH.pdb
REMARK  8 active torsions:
REMARK  status: ('A' for Active; 'I' for Inactive)
REMARK    1  A    between atoms: _5  and  _11
REMARK    2  A    between atoms: _19  and  _21
REMARK    3  A    between atoms: _22  and  _66
REMARK    4  A    between atoms: _27  and  _30
REMARK    5  A    between atoms: _32  and  _33
REMARK    6  A    between atoms: _38  and  _43
REMARK    7  A    between atoms: _43  and  _46
REMARK    8  A    between atoms: _53  and  _55
REMARK                            x       y       z     vdW  Elec       q    Type
REMARK                         _______ _______ _______ _____ _____    ______ ____
ROOT
ATOM     10  C   UNL     1      19.269  17.457  12.266  0.00  0.00    +0.038 A 
ATOM     11  C   UNL     1      19.336  18.752  12.840  0.00  0.00    +0.047 A 
ATOM     12  C   UNL     1      19.450  19.940  12.008  0.00  0.00    +0.035 A 
ATOM     32  C   UNL     1      19.489  19.772  10.593  0.00  0.00    +0.024 A 
ATOM     33  C   UNL     1      19.423  18.463   9.992  0.00  0.00    +0.007 A 
ATOM     34  C   UNL     1      19.314  17.287  10.809  0.00  0.00    -0.029 A 
ATOM     35  C   UNL     1      19.253  15.909  10.111  0.00  0.00    +0.045 C 
ENDROOT
BRANCH  10   9
ATOM      4  C   UNL     1      16.704  14.429  14.965  0.00  0.00    +0.077 A 
ATOM      5  C   UNL     1      15.480  15.123  14.686  0.00  0.00    +0.048 A 
ATOM      6  C   UNL     1      15.555  16.260  13.849  0.00  0.00    +0.116 A 
ATOM      7  N   UNL     1      16.768  16.662  13.335  0.00  0.00    -0.223 NA
ATOM      8  C   UNL     1      17.930  15.970  13.625  0.00  0.00    +0.220 A 
ATOM      9  N   UNL     1      19.160  16.352  13.113  0.00  0.00    -0.283 N 
ATOM     36  H   UNL     1      19.995  15.820  13.357  0.00  0.00    +0.155 HD
ATOM     37  N   UNL     1      17.885  14.883  14.423  0.00  0.00    -0.214 NA
BRANCH   4   3
ATOM      1  C   UNL     1      18.058  11.316  16.909  0.00  0.00    +0.020 A 
ATOM      2  C   UNL     1      18.032  12.489  16.065  0.00  0.00    +0.013 A 
ATOM      3  C   UNL     1      16.787  13.209  15.829  0.00  0.00    +0.019 A 
ATOM     38  C   UNL     1      15.577  12.714  16.468  0.00  0.00    +0.120 A 
ATOM     39  N   UNL     1      15.632  11.581  17.274  0.00  0.00    -0.263 NA
ATOM     40  C   UNL     1      16.824  10.878  17.507  0.00  0.00    +0.111 A 
ENDBRANCH   4   3
ENDBRANCH  10   9
BRANCH  12  13
ATOM     13  N   UNL     1      19.530  21.280  12.534  0.00  0.00    -0.281 N 
ATOM     14  C   UNL     1      18.498  22.070  13.013  0.00  0.00    +0.248 C 
ATOM     30  O   UNL     1      17.311  21.822  12.862  0.00  0.00    -0.270 OA
ATOM     31  H   UNL     1      20.461  21.696  12.557  0.00  0.00    +0.155 HD
BRANCH  14  15
ATOM     15  C   UNL     1      18.832  23.324  13.754  0.00  0.00    +0.037 A 
ATOM     16  C   UNL     1      18.890  24.618  13.070  0.00  0.00    +0.013 A 
ATOM     17  C   UNL     1      19.232  25.810  13.805  0.00  0.00    +0.005 A 
ATOM     18  C   UNL     1      19.518  25.713  15.235  0.00  0.00    -0.033 A 
ATOM     28  C   UNL     1      19.448  24.417  15.889  0.00  0.00    +0.005 A 
ATOM     29  C   UNL     1      19.114  23.246  15.172  0.00  0.00    +0.013 A 
BRANCH  18  19
ATOM     19  C   UNL     1      19.912  26.929  16.094  0.00  0.00    +0.119 C 
BRANCH  19  20
ATOM     20  N   UNL     1      21.364  27.120  16.383  0.00  0.00    -0.302 NA
ATOM     21  C   UNL     1      22.240  26.787  15.172  0.00  0.00    +0.066 C 
ATOM     22  C   UNL     1      23.755  27.014  15.485  0.00  0.00    -0.064 C 
ATOM     23  N   UNL     1      24.156  26.166  16.693  0.00  0.00    +0.379 N 
ATOM     24  C   UNL     1      25.593  26.333  16.954  0.00  0.00    -0.096 C 
ATOM     25  H   UNL     1      23.982  25.097  16.428  0.00  0.00    -0.082 HD
ATOM     26  C   UNL     1      23.288  26.489  17.901  0.00  0.00    -0.064 C 
ATOM     27  C   UNL     1      21.783  26.289  17.570  0.00  0.00    +0.066 C 
ENDBRANCH  19  20
ENDBRANCH  18  19
ENDBRANCH  14  15
ENDBRANCH  12  13
TORSDOF 6
ENDMDL
MODEL 5
REMARK VINA RESULT:      -8.7      7.302      9.381
REMARK  Name = C:\Users\Docking\Desktop\test protocol\1iep_ligandH.pdb
REMARK  8 active torsions:
REMARK  status: ('A' for Active; 'I' for Inactive)
REMARK    1  A    between atoms: _5  and  _11
REMARK    2  A    between atoms: _19  and  _21
REMARK    3  A    between atoms: _22  and  _66
REMARK    4  A    between atoms: _27  and  _30
REMARK    5  A    between atoms: _32  and  _33
REMARK    6  A    between atoms: _38  and  _43
REMARK    7  A    between atoms: _43  and  _46
REMARK    8  A    between atoms: _53  and  _55
REMARK                            x       y       z     vdW  Elec       q    Type
REMARK                         _______ _______ _______ _____ _____    ______ ____
ROOT
ATOM     10  C   UNL     1      20.986  24.635  19.464  0.00  0.00    +0.038 A 
ATOM     11  C   UNL     1      20.370  23.574  18.753  0.00  0.00    +0.047 A 
ATOM     12  C   UNL     1      19.140  22.962  19.231  0.00  0.00    +0.035 A 
ATOM     32  C   UNL     1      18.564  23.457  20.437  0.00  0.00    +0.024 A 
ATOM     33  C   UNL     1      19.177  24.535  21.173  0.00  0.00    +0.007 A 
ATOM     34  C   UNL     1      20.392  25.141  20.707  0.00  0.00    -0.029 A 
ATOM     35  C   UNL     1      21.009  26.288  21.540  0.00  0.00    +0.045 C 
ENDROOT
BRANCH  10   9
ATOM      4  C   UNL     1      23.356  27.570  16.495  0.00  0.00    +0.077 A 
ATOM      5  C   UNL     1      22.142  28.024  15.880  0.00  0.00    +0.048 A 
ATOM      6  C   UNL     1      20.930  27.472  16.351  0.00  0.00    +0.116 A 
ATOM      7  N   UNL     1      20.942  26.537  17.364  0.00  0.00    -0.223 NA
ATOM      8  C   UNL     1      22.131  26.120  17.934  0.00  0.00    +0.220 A 
ATOM      9  N   UNL     1      22.166  25.186  18.958  0.00  0.00    -0.283 N 
ATOM     36  H   UNL     1      23.064  24.899  19.348  0.00  0.00    +0.155 HD
ATOM     37  N   UNL     1      23.302  26.630  17.500  0.00  0.00    -0.214 NA
BRANCH   4   3
ATOM      1  C   UNL     1      27.004  27.742  15.093  0.00  0.00    +0.020 A 
ATOM      2  C   UNL     1      25.704  27.219  15.446  0.00  0.00    +0.013 A 
ATOM      3  C   UNL     1      24.716  28.061  16.108  0.00  0.00    +0.019 A 
ATOM     38  C   UNL     1      25.077  29.440  16.401  0.00  0.00    +0.120 A 
ATOM     39  N   UNL     1      26.337  29.916  16.051  0.00  0.00    -0.263 NA
ATOM     40  C   UNL     1      27.296  29.114  15.415  0.00  0.00    +0.111 A 
ENDBRANCH   4   3
ENDBRANCH  10   9
BRANCH  12  13
ATOM     13  N   UNL     1      18.474  21.876  18.556  0.00  0.00    -0.281 N 
ATOM     14  C   UNL     1      17.553  21.952  17.524  0.00  0.00    +0.248 C 
ATOM     30  O   UNL     1      16.999  22.981  17.167  0.00  0.00    -0.270 OA
ATOM     31  H   UNL     1      18.709  20.937  18.878  0.00  0.00    +0.155 HD
BRANCH  14  15
ATOM     15  C   UNL     1      17.182  20.702  16.793  0.00  0.00    +0.037 A 
ATOM     16  C   UNL     1      16.153  19.796  17.310  0.00  0.00    +0.013 A 
ATOM     17  C   UNL     1      15.827  18.588  16.594  0.00  0.00    +0.005 A 
ATOM     18  C   UNL     1      16.531  18.280  15.351  0.00  0.00    -0.033 A 
ATOM     28  C   UNL     1      17.544  19.199  14.859  0.00  0.00    +0.005 A 
ATOM     29  C   UNL     1      17.867  20.383  15.559  0.00  0.00    +0.013 A 
BRANCH  18  19
ATOM     19  C   UNL     1      16.263  17.004  14.532  0.00  0.00    +0.119 C 
BRANCH  19  20
ATOM     20  N   UNL     1      17.428  16.382  13.835  0.00  0.00    -0.302 NA
ATOM     21  C   UNL     1      17.219  16.311  12.319  0.00  0.00    +0.066 C 
ATOM     22  C   UNL     1      18.457  15.679  11.603  0.00  0.00    -0.064 C 
ATOM     23  N   UNL     1      18.719  14.286  12.179  0.00  0.00    +0.379 N 
ATOM     24  C   UNL     1      19.846  13.665  11.468  0.00  0.00    -0.096 C 
ATOM     25  H   UNL     1      17.813  13.665  11.986  0.00  0.00    -0.082 HD
ATOM     26  C   UNL     1      18.925  14.346  13.686  0.00  0.00    -0.064 C 
ATOM     27  C   UNL     1      17.702  15.003  14.385  0.00  0.00    +0.066 C 
ENDBRANCH  19  20
ENDBRANCH  18  19
ENDBRANCH  14  15
ENDBRANCH  12  13
TORSDOF 6
ENDMDL
