MODEL 1
REMARK VINA RESULT:      -9.6      0.000      0.000
REMARK  Name = C:\Users\Docking\Desktop\test protocol\1iep_ligandH.pdb
REMARK  8 active torsions:
REMARK  status: ('A' for Active; 'I' for Inactive)
REMARK    1  A    between atoms: _5  and  _11
REMARK    2  A    between atoms: _19  and  _21
REMARK    3  A    between atoms: _22  and  _66
REMARK    4  A    between atoms: _27  and  _30
REMARK    5  A    between atoms: _32  and  _33
REMARK    6  A    between atoms: _38  and  _43
REMARK    7  A    between atoms: _43  and  _46
REMARK    8  A    between atoms: _53  and  _55
REMARK                            x       y       z     vdW  Elec       q    Type
REMARK                         _______ _______ _______ _____ _____    ______ ____
ROOT
ATOM     10  C   UNL     1       9.275  23.032  13.219  0.00  0.00    +0.038 A 
ATOM     11  C   UNL     1      10.583  22.867  13.742  0.00  0.00    +0.047 A 
ATOM     12  C   UNL     1      11.180  21.547  13.874  0.00  0.00    +0.035 A 
ATOM     32  C   UNL     1      10.417  20.417  13.460  0.00  0.00    +0.024 A 
ATOM     33  C   UNL     1       9.086  20.566  12.928  0.00  0.00    +0.007 A 
ATOM     34  C   UNL     1       8.491  21.865  12.797  0.00  0.00    -0.029 A 
ATOM     35  C   UNL     1       7.057  21.965  12.226  0.00  0.00    +0.045 C 
ENDROOT
BRANCH  10   9
ATOM      4  C   UNL     1       8.551  27.125  10.818  0.00  0.00    +0.077 A 
ATOM      5  C   UNL     1       9.304  26.663   9.687  0.00  0.00    +0.048 A 
ATOM      6  C   UNL     1       9.867  25.370   9.766  0.00  0.00    +0.116 A 
ATOM      7  N   UNL     1       9.684  24.603  10.896  0.00  0.00    -0.223 NA
ATOM      8  C   UNL     1       8.954  25.079  11.970  0.00  0.00    +0.220 A 
ATOM      9  N   UNL     1       8.751  24.322  13.114  0.00  0.00    -0.283 N 
ATOM     36  H   UNL     1       8.213  24.712  13.887  0.00  0.00    +0.155 HD
ATOM     37  N   UNL     1       8.408  26.312  11.920  0.00  0.00    -0.214 NA
BRANCH   4   3
ATOM      1  C   UNL     1       7.811  30.885  11.601  0.00  0.00    +0.020 A 
ATOM      2  C   UNL     1       8.488  29.609  11.567  0.00  0.00    +0.013 A 
ATOM      3  C   UNL     1       7.893  28.468  10.884  0.00  0.00    +0.019 A 
ATOM     38  C   UNL     1       6.600  28.651  10.241  0.00  0.00    +0.120 A 
ATOM     39  N   UNL     1       5.970  29.891  10.292  0.00  0.00    -0.263 NA
ATOM     40  C   UNL     1       6.533  30.996  10.947  0.00  0.00    +0.111 A 
ENDBRANCH   4   3
ENDBRANCH  10   9
BRANCH  12  13
ATOM     13  N   UNL     1      12.501  21.318  14.405  0.00  0.00    -0.281 N 
ATOM     14  C   UNL     1      13.707  21.331  13.724  0.00  0.00    +0.248 C 
ATOM     30  O   UNL     1      13.813  21.331  12.506  0.00  0.00    -0.270 OA
ATOM     31  H   UNL     1      12.552  21.122  15.405  0.00  0.00    +0.155 HD
BRANCH  14  15
ATOM     15  C   UNL     1      14.979  21.329  14.508  0.00  0.00    +0.037 A 
ATOM     16  C   UNL     1      15.194  20.380  15.604  0.00  0.00    +0.013 A 
ATOM     17  C   UNL     1      16.424  20.410  16.356  0.00  0.00    +0.005 A 
ATOM     18  C   UNL     1      17.449  21.393  16.012  0.00  0.00    -0.033 A 
ATOM     28  C   UNL     1      17.211  22.319  14.917  0.00  0.00    +0.005 A 
ATOM     29  C   UNL     1      16.007  22.293  14.179  0.00  0.00    +0.013 A 
BRANCH  18  19
ATOM     19  C   UNL     1      18.782  21.512  16.774  0.00  0.00    +0.119 C 
BRANCH  19  20
ATOM     20  N   UNL     1      19.130  20.409  17.719  0.00  0.00    -0.302 NA
ATOM     21  C   UNL     1      18.772  20.758  19.166  0.00  0.00    +0.066 C 
ATOM     22  C   UNL     1      19.122  19.585  20.139  0.00  0.00    -0.064 C 
ATOM     23  N   UNL     1      20.609  19.250  20.014  0.00  0.00    +0.379 N 
ATOM     24  C   UNL     1      20.954  18.186  20.969  0.00  0.00    -0.096 C 
ATOM     25  H   UNL     1      21.186  20.161  20.300  0.00  0.00    -0.082 HD
ATOM     26  C   UNL     1      20.975  18.904  18.578  0.00  0.00    -0.064 C 
ATOM     27  C   UNL     1      20.596  20.065  17.616  0.00  0.00    +0.066 C 
ENDBRANCH  19  20
ENDBRANCH  18  19
ENDBRANCH  14  15
ENDBRANCH  12  13
TORSDOF 6
ENDMDL
MODEL 2
REMARK VINA RESULT:      -9.6      5.489     14.298
REMARK  Name = C:\Users\Docking\Desktop\test protocol\1iep_ligandH.pdb
REMARK  8 active torsions:
REMARK  status: ('A' for Active; 'I' for Inactive)
REMARK    1  A    between atoms: _5  and  _11
REMARK    2  A    between atoms: _19  and  _21
REMARK    3  A    between atoms: _22  and  _66
REMARK    4  A    between atoms: _27  and  _30
REMARK    5  A    between atoms: _32  and  _33
REMARK    6  A    between atoms: _38  and  _43
REMARK    7  A    between atoms: _43  and  _46
REMARK    8  A    between atoms: _53  and  _55
REMARK                            x       y       z     vdW  Elec       q    Type
REMARK                         _______ _______ _______ _____ _____    ______ ____
ROOT
ATOM     10  C   UNL     1       8.802  25.953  11.220  0.00  0.00    +0.038 A 
ATOM     11  C   UNL     1       7.463  26.094  11.666  0.00  0.00    +0.047 A 
ATOM     12  C   UNL     1       6.445  26.691  10.815  0.00  0.00    +0.035 A 
ATOM     32  C   UNL     1       6.826  27.131   9.514  0.00  0.00    +0.024 A 
ATOM     33  C   UNL     1       8.183  26.997   9.045  0.00  0.00    +0.007 A 
ATOM     34  C   UNL     1       9.191  26.411   9.881  0.00  0.00    -0.029 A 
ATOM     35  C   UNL     1      10.631  26.298   9.328  0.00  0.00    +0.045 C 
ENDROOT
BRANCH  10   9
ATOM      4  C   UNL     1      11.291  22.183  12.841  0.00  0.00    +0.077 A 
ATOM      5  C   UNL     1      10.652  21.289  11.918  0.00  0.00    +0.048 A 
ATOM      6  C   UNL     1       9.684  21.838  11.048  0.00  0.00    +0.116 A 
ATOM      7  N   UNL     1       9.385  23.182  11.105  0.00  0.00    -0.223 NA
ATOM      8  C   UNL     1      10.018  24.016  12.009  0.00  0.00    +0.220 A 
ATOM      9  N   UNL     1       9.738  25.372  12.078  0.00  0.00    -0.283 N 
ATOM     36  H   UNL     1      10.221  25.952  12.764  0.00  0.00    +0.155 HD
ATOM     37  N   UNL     1      10.945  23.516  12.851  0.00  0.00    -0.214 NA
BRANCH   4   3
ATOM      1  C   UNL     1      14.675  21.019  14.420  0.00  0.00    +0.020 A 
ATOM      2  C   UNL     1      13.703  21.428  13.432  0.00  0.00    +0.013 A 
ATOM      3  C   UNL     1      12.337  21.754  13.822  0.00  0.00    +0.019 A 
ATOM     38  C   UNL     1      11.985  21.656  15.231  0.00  0.00    +0.120 A 
ATOM     39  N   UNL     1      12.942  21.258  16.159  0.00  0.00    -0.263 NA
ATOM     40  C   UNL     1      14.259  20.940  15.795  0.00  0.00    +0.111 A 
ENDBRANCH   4   3
ENDBRANCH  10   9
BRANCH  12  13
ATOM     13  N   UNL     1       5.072  26.868  11.216  0.00  0.00    -0.281 N 
ATOM     14  C   UNL     1       4.305  28.019  11.144  0.00  0.00    +0.248 C 
ATOM     30  O   UNL     1       4.751  29.134  10.919  0.00  0.00    -0.270 OA
ATOM     31  H   UNL     1       4.609  26.044  11.600  0.00  0.00    +0.155 HD
BRANCH  14  15
ATOM     15  C   UNL     1       2.830  27.919  11.368  0.00  0.00    +0.037 A 
ATOM     16  C   UNL     1       2.264  27.934  12.719  0.00  0.00    +0.013 A 
ATOM     17  C   UNL     1       0.840  27.819  12.908  0.00  0.00    +0.005 A 
ATOM     18  C   UNL     1      -0.029  27.690  11.741  0.00  0.00    -0.033 A 
ATOM     28  C   UNL     1       0.558  27.684  10.411  0.00  0.00    +0.005 A 
ATOM     29  C   UNL     1       1.954  27.795  10.222  0.00  0.00    +0.013 A 
BRANCH  18  19
ATOM     19  C   UNL     1      -1.559  27.542  11.849  0.00  0.00    +0.119 C 
BRANCH  19  20
ATOM     20  N   UNL     1      -2.092  26.189  12.189  0.00  0.00    -0.302 NA
ATOM     21  C   UNL     1      -2.208  25.981  13.702  0.00  0.00    +0.066 C 
ATOM     22  C   UNL     1      -2.788  24.569  14.039  0.00  0.00    -0.064 C 
ATOM     23  N   UNL     1      -1.901  23.493  13.411  0.00  0.00    +0.379 N 
ATOM     24  C   UNL     1      -2.411  22.163  13.775  0.00  0.00    -0.096 C 
ATOM     25  H   UNL     1      -0.882  23.596  13.850  0.00  0.00    -0.082 HD
ATOM     26  C   UNL     1      -1.778  23.693  11.907  0.00  0.00    -0.064 C 
ATOM     27  C   UNL     1      -1.228  25.110  11.582  0.00  0.00    +0.066 C 
ENDBRANCH  19  20
ENDBRANCH  18  19
ENDBRANCH  14  15
ENDBRANCH  12  13
TORSDOF 6
ENDMDL
MODEL 3
REMARK VINA RESULT:      -9.6      5.433      8.064
REMARK  Name = C:\Users\Docking\Desktop\test protocol\1iep_ligandH.pdb
REMARK  8 active torsions:
REMARK  status: ('A' for Active; 'I' for Inactive)
REMARK    1  A    between atoms: _5  and  _11
REMARK    2  A    between atoms: _19  and  _21
REMARK    3  A    between atoms: _22  and  _66
REMARK    4  A    between atoms: _27  and  _30
REMARK    5  A    between atoms: _32  and  _33
REMARK    6  A    between atoms: _38  and  _43
REMARK    7  A    between atoms: _43  and  _46
REMARK    8  A    between atoms: _53  and  _55
REMARK                            x       y       z     vdW  Elec       q    Type
REMARK                         _______ _______ _______ _____ _____    ______ ____
ROOT
ATOM     10  C   UNL     1      10.777  25.165  11.868  0.00  0.00    +0.038 A 
ATOM     11  C   UNL     1      10.387  23.822  12.105  0.00  0.00    +0.047 A 
ATOM     12  C   UNL     1      10.802  23.119  13.309  0.00  0.00    +0.035 A 
ATOM     32  C   UNL     1      11.612  23.816  14.252  0.00  0.00    +0.024 A 
ATOM     33  C   UNL     1      12.018  25.180  14.027  0.00  0.00    +0.007 A 
ATOM     34  C   UNL     1      11.614  25.878  12.840  0.00  0.00    -0.029 A 
ATOM     35  C   UNL     1      12.085  27.339  12.648  0.00  0.00    +0.045 C 
ENDROOT
BRANCH  10   9
ATOM      4  C   UNL     1       7.372  27.150   9.128  0.00  0.00    +0.077 A 
ATOM      5  C   UNL     1       6.353  26.893  10.105  0.00  0.00    +0.048 A 
ATOM      6  C   UNL     1       6.745  26.242  11.296  0.00  0.00    +0.116 A 
ATOM      7  N   UNL     1       8.061  25.879  11.485  0.00  0.00    -0.223 NA
ATOM      8  C   UNL     1       9.019  26.140  10.522  0.00  0.00    +0.220 A 
ATOM      9  N   UNL     1      10.349  25.792  10.695  0.00  0.00    -0.283 N 
ATOM     36  H   UNL     1      11.024  25.995   9.958  0.00  0.00    +0.155 HD
ATOM     37  N   UNL     1       8.669  26.760   9.376  0.00  0.00    -0.214 NA
BRANCH   4   3
ATOM      1  C   UNL     1       7.136  27.917   5.300  0.00  0.00    +0.020 A 
ATOM      2  C   UNL     1       7.403  27.214   6.534  0.00  0.00    +0.013 A 
ATOM      3  C   UNL     1       7.115  27.833   7.821  0.00  0.00    +0.019 A 
ATOM     38  C   UNL     1       6.550  29.174   7.826  0.00  0.00    +0.120 A 
ATOM     39  N   UNL     1       6.305  29.827   6.622  0.00  0.00    -0.263 NA
ATOM     40  C   UNL     1       6.580  29.242   5.377  0.00  0.00    +0.111 A 
ENDBRANCH   4   3
ENDBRANCH  10   9
BRANCH  12  13
ATOM     13  N   UNL     1      10.443  21.753  13.600  0.00  0.00    -0.281 N 
ATOM     14  C   UNL     1      11.276  20.721  14.000  0.00  0.00    +0.248 C 
ATOM     30  O   UNL     1      12.497  20.764  13.964  0.00  0.00    -0.270 OA
ATOM     31  H   UNL     1       9.456  21.518  13.498  0.00  0.00    +0.155 HD
BRANCH  14  15
ATOM     15  C   UNL     1      10.664  19.453  14.501  0.00  0.00    +0.037 A 
ATOM     16  C   UNL     1      10.956  18.947  15.845  0.00  0.00    +0.013 A 
ATOM     17  C   UNL     1      10.366  17.712  16.297  0.00  0.00    +0.005 A 
ATOM     18  C   UNL     1       9.476  16.974  15.403  0.00  0.00    -0.033 A 
ATOM     28  C   UNL     1       9.200  17.501  14.077  0.00  0.00    +0.005 A 
ATOM     29  C   UNL     1       9.777  18.711  13.630  0.00  0.00    +0.013 A 
BRANCH  18  19
ATOM     19  C   UNL     1       8.819  15.637  15.794  0.00  0.00    +0.119 C 
BRANCH  19  20
ATOM     20  N   UNL     1       7.404  15.684  16.269  0.00  0.00    -0.302 NA
ATOM     21  C   UNL     1       6.415  15.852  15.112  0.00  0.00    +0.066 C 
ATOM     22  C   UNL     1       4.938  15.876  15.624  0.00  0.00    -0.064 C 
ATOM     23  N   UNL     1       4.774  17.003  16.645  0.00  0.00    +0.379 N 
ATOM     24  C   UNL     1       3.373  17.066  17.086  0.00  0.00    -0.096 C 
ATOM     25  H   UNL     1       5.010  17.963  16.130  0.00  0.00    -0.082 HD
ATOM     26  C   UNL     1       5.755  16.845  17.798  0.00  0.00    -0.064 C 
ATOM     27  C   UNL     1       7.218  16.792  17.275  0.00  0.00    +0.066 C 
ENDBRANCH  19  20
ENDBRANCH  18  19
ENDBRANCH  14  15
ENDBRANCH  12  13
TORSDOF 6
ENDMDL
MODEL 4
REMARK VINA RESULT:      -9.6      5.012     13.282
REMARK  Name = C:\Users\Docking\Desktop\test protocol\1iep_ligandH.pdb
REMARK  8 active torsions:
REMARK  status: ('A' for Active; 'I' for Inactive)
REMARK    1  A    between atoms: _5  and  _11
REMARK    2  A    between atoms: _19  and  _21
REMARK    3  A    between atoms: _22  and  _66
REMARK    4  A    between atoms: _27  and  _30
REMARK    5  A    between atoms: _32  and  _33
REMARK    6  A    between atoms: _38  and  _43
REMARK    7  A    between atoms: _43  and  _46
REMARK    8  A    between atoms: _53  and  _55
REMARK                            x       y       z     vdW  Elec       q    Type
REMARK                         _______ _______ _______ _____ _____    ______ ____
ROOT
ATOM     10  C   UNL     1      10.922  23.437  13.955  0.00  0.00    +0.038 A 
ATOM     11  C   UNL     1      10.046  24.054  13.025  0.00  0.00    +0.047 A 
ATOM     12  C   UNL     1      10.415  25.287  12.348  0.00  0.00    +0.035 A 
ATOM     32  C   UNL     1      11.685  25.865  12.641  0.00  0.00    +0.024 A 
ATOM     33  C   UNL     1      12.587  25.252  13.584  0.00  0.00    +0.007 A 
ATOM     34  C   UNL     1      12.227  24.036  14.257  0.00  0.00    -0.029 A 
ATOM     35  C   UNL     1      13.231  23.426  15.263  0.00  0.00    +0.045 C 
ENDROOT
BRANCH  10   9
ATOM      4  C   UNL     1       9.780  18.776  13.845  0.00  0.00    +0.077 A 
ATOM      5  C   UNL     1       9.982  18.700  12.426  0.00  0.00    +0.048 A 
ATOM      6  C   UNL     1      10.373  19.884  11.762  0.00  0.00    +0.116 A 
ATOM      7  N   UNL     1      10.546  21.052  12.472  0.00  0.00    -0.223 NA
ATOM      8  C   UNL     1      10.341  21.091  13.839  0.00  0.00    +0.220 A 
ATOM      9  N   UNL     1      10.517  22.253  14.575  0.00  0.00    -0.283 N 
ATOM     36  H   UNL     1      10.348  22.243  15.581  0.00  0.00    +0.155 HD
ATOM     37  N   UNL     1       9.966  19.974  14.497  0.00  0.00    -0.214 NA
BRANCH   4   3
ATOM      1  C   UNL     1       8.628  15.217  14.987  0.00  0.00    +0.020 A 
ATOM      2  C   UNL     1       9.017  16.311  14.128  0.00  0.00    +0.013 A 
ATOM      3  C   UNL     1       9.370  17.610  14.688  0.00  0.00    +0.019 A 
ATOM     38  C   UNL     1       9.319  17.768  16.134  0.00  0.00    +0.120 A 
ATOM     39  N   UNL     1       8.939  16.697  16.936  0.00  0.00    -0.263 NA
ATOM     40  C   UNL     1       8.596  15.444  16.408  0.00  0.00    +0.111 A 
ENDBRANCH   4   3
ENDBRANCH  10   9
BRANCH  12  13
ATOM     13  N   UNL     1       9.565  25.964  11.401  0.00  0.00    -0.281 N 
ATOM     14  C   UNL     1       9.600  25.887  10.018  0.00  0.00    +0.248 C 
ATOM     30  O   UNL     1      10.513  25.387   9.377  0.00  0.00    -0.270 OA
ATOM     31  H   UNL     1       8.849  26.573  11.797  0.00  0.00    +0.155 HD
BRANCH  14  15
ATOM     15  C   UNL     1       8.465  26.461   9.233  0.00  0.00    +0.037 A 
ATOM     16  C   UNL     1       7.288  27.024   9.900  0.00  0.00    +0.013 A 
ATOM     17  C   UNL     1       6.200  27.555   9.119  0.00  0.00    +0.005 A 
ATOM     18  C   UNL     1       6.284  27.528   7.661  0.00  0.00    -0.033 A 
ATOM     28  C   UNL     1       7.466  26.968   7.025  0.00  0.00    +0.005 A 
ATOM     29  C   UNL     1       8.534  26.445   7.787  0.00  0.00    +0.013 A 
BRANCH  18  19
ATOM     19  C   UNL     1       5.161  28.054   6.748  0.00  0.00    +0.119 C 
BRANCH  19  20
ATOM     20  N   UNL     1       3.878  27.290   6.733  0.00  0.00    -0.302 NA
ATOM     21  C   UNL     1       2.987  27.640   7.928  0.00  0.00    +0.066 C 
ATOM     22  C   UNL     1       1.639  26.849   7.885  0.00  0.00    -0.064 C 
ATOM     23  N   UNL     1       1.933  25.348   7.850  0.00  0.00    +0.379 N 
ATOM     24  C   UNL     1       0.667  24.600   7.868  0.00  0.00    -0.096 C 
ATOM     25  H   UNL     1       2.491  25.092   8.781  0.00  0.00    -0.082 HD
ATOM     26  C   UNL     1       2.820  24.991   6.667  0.00  0.00    -0.064 C 
ATOM     27  C   UNL     1       4.144  25.805   6.703  0.00  0.00    +0.066 C 
ENDBRANCH  19  20
ENDBRANCH  18  19
ENDBRANCH  14  15
ENDBRANCH  12  13
TORSDOF 6
ENDMDL
MODEL 5
REMARK VINA RESULT:      -9.5      5.980     11.058
REMARK  Name = C:\Users\Docking\Desktop\test protocol\1iep_ligandH.pdb
REMARK  8 active torsions:
REMARK  status: ('A' for Active; 'I' for Inactive)
REMARK    1  A    between atoms: _5  and  _11
REMARK    2  A    between atoms: _19  and  _21
REMARK    3  A    between atoms: _22  and  _66
REMARK    4  A    between atoms: _27  and  _30
REMARK    5  A    between atoms: _32  and  _33
REMARK    6  A    between atoms: _38  and  _43
REMARK    7  A    between atoms: _43  and  _46
REMARK    8  A    between atoms: _53  and  _55
REMARK                            x       y       z     vdW  Elec       q    Type
REMARK                         _______ _______ _______ _____ _____    ______ ____
ROOT
ATOM     10  C   UNL     1      11.133  20.937  15.122  0.00  0.00    +0.038 A 
ATOM     11  C   UNL     1      10.028  20.061  15.273  0.00  0.00    +0.047 A 
ATOM     12  C   UNL     1      10.201  18.714  15.795  0.00  0.00    +0.035 A 
ATOM     32  C   UNL     1      11.514  18.293  16.156  0.00  0.00    +0.024 A 
ATOM     33  C   UNL     1      12.649  19.170  16.008  0.00  0.00    +0.007 A 
ATOM     34  C   UNL     1      12.485  20.499  15.491  0.00  0.00    -0.029 A 
ATOM     35  C   UNL     1      13.738  21.394  15.348  0.00  0.00    +0.045 C 
ENDROOT
BRANCH  10   9
ATOM      4  C   UNL     1       9.864  23.933  11.593  0.00  0.00    +0.077 A 
ATOM      5  C   UNL     1       9.655  22.853  10.672  0.00  0.00    +0.048 A 
ATOM      6  C   UNL     1       9.891  21.543  11.144  0.00  0.00    +0.116 A 
ATOM      7  N   UNL     1      10.306  21.338  12.442  0.00  0.00    -0.223 NA
ATOM      8  C   UNL     1      10.501  22.402  13.304  0.00  0.00    +0.220 A 
ATOM      9  N   UNL     1      10.910  22.219  14.616  0.00  0.00    -0.283 N 
ATOM     36  H   UNL     1      11.049  23.030  15.218  0.00  0.00    +0.155 HD
ATOM     37  N   UNL     1      10.283  23.663  12.877  0.00  0.00    -0.214 NA
BRANCH   4   3
ATOM      1  C   UNL     1       9.444  27.267   9.591  0.00  0.00    +0.020 A 
ATOM      2  C   UNL     1       9.653  25.865   9.873  0.00  0.00    +0.013 A 
ATOM      3  C   UNL     1       9.653  25.373  11.245  0.00  0.00    +0.019 A 
ATOM     38  C   UNL     1       9.435  26.333  12.317  0.00  0.00    +0.120 A 
ATOM     39  N   UNL     1       9.238  27.677  12.015  0.00  0.00    -0.263 NA
ATOM     40  C   UNL     1       9.238  28.162  10.699  0.00  0.00    +0.111 A 
ENDBRANCH   4   3
ENDBRANCH  10   9
BRANCH  12  13
ATOM     13  N   UNL     1       9.118  17.778  15.963  0.00  0.00    -0.281 N 
ATOM     14  C   UNL     1       8.203  17.712  17.001  0.00  0.00    +0.248 C 
ATOM     30  O   UNL     1       8.309  18.319  18.056  0.00  0.00    -0.270 OA
ATOM     31  H   UNL     1       9.013  17.079  15.228  0.00  0.00    +0.155 HD
BRANCH  14  15
ATOM     15  C   UNL     1       7.003  16.833  16.851  0.00  0.00    +0.037 A 
ATOM     16  C   UNL     1       6.117  16.557  17.984  0.00  0.00    +0.013 A 
ATOM     17  C   UNL     1       4.976  15.691  17.816  0.00  0.00    +0.005 A 
ATOM     18  C   UNL     1       4.715  15.096  16.508  0.00  0.00    -0.033 A 
ATOM     28  C   UNL     1       5.608  15.391  15.400  0.00  0.00    +0.005 A 
ATOM     29  C   UNL     1       6.727  16.238  15.561  0.00  0.00    +0.013 A 
BRANCH  18  19
ATOM     19  C   UNL     1       3.534  14.145  16.243  0.00  0.00    +0.119 C 
BRANCH  19  20
ATOM     20  N   UNL     1       2.177  14.756  16.119  0.00  0.00    -0.302 NA
ATOM     21  C   UNL     1       1.307  14.023  15.095  0.00  0.00    +0.066 C 
ATOM     22  C   UNL     1      -0.116  14.662  14.995  0.00  0.00    -0.064 C 
ATOM     23  N   UNL     1       0.017  16.142  14.632  0.00  0.00    +0.379 N 
ATOM     24  C   UNL     1      -1.321  16.732  14.480  0.00  0.00    -0.096 C 
ATOM     25  H   UNL     1       0.527  16.203  13.643  0.00  0.00    -0.082 HD
ATOM     26  C   UNL     1       0.883  16.879  15.644  0.00  0.00    -0.064 C 
ATOM     27  C   UNL     1       2.285  16.217  15.757  0.00  0.00    +0.066 C 
ENDBRANCH  19  20
ENDBRANCH  18  19
ENDBRANCH  14  15
ENDBRANCH  12  13
TORSDOF 6
ENDMDL
