MODEL 1
REMARK VINA RESULT:      -9.1      0.000      0.000
REMARK  Name = C:\Users\Docking\Desktop\test protocol\1iep_ligandH.pdb
REMARK  8 active torsions:
REMARK  status: ('A' for Active; 'I' for Inactive)
REMARK    1  A    between atoms: _5  and  _11
REMARK    2  A    between atoms: _19  and  _21
REMARK    3  A    between atoms: _22  and  _66
REMARK    4  A    between atoms: _27  and  _30
REMARK    5  A    between atoms: _32  and  _33
REMARK    6  A    between atoms: _38  and  _43
REMARK    7  A    between atoms: _43  and  _46
REMARK    8  A    between atoms: _53  and  _55
REMARK                            x       y       z     vdW  Elec       q    Type
REMARK                         _______ _______ _______ _____ _____    ______ ____
ROOT
ATOM     10  C   UNL     1       9.603  25.712  19.036  0.00  0.00    +0.038 A 
ATOM     11  C   UNL     1      10.926  25.503  18.570  0.00  0.00    +0.047 A 
ATOM     12  C   UNL     1      11.531  24.180  18.592  0.00  0.00    +0.035 A 
ATOM     32  C   UNL     1      10.758  23.092  19.092  0.00  0.00    +0.024 A 
ATOM     33  C   UNL     1       9.412  23.287  19.570  0.00  0.00    +0.007 A 
ATOM     34  C   UNL     1       8.811  24.590  19.553  0.00  0.00    -0.029 A 
ATOM     35  C   UNL     1       7.366  24.742  20.084  0.00  0.00    +0.045 C 
ENDROOT
BRANCH  10   9
ATOM      4  C   UNL     1       8.429  29.879  21.110  0.00  0.00    +0.077 A 
ATOM      5  C   UNL     1       8.888  29.436  22.395  0.00  0.00    +0.048 A 
ATOM      6  C   UNL     1       9.412  28.127  22.481  0.00  0.00    +0.116 A 
ATOM      7  N   UNL     1       9.469  27.329  21.359  0.00  0.00    -0.223 NA
ATOM      8  C   UNL     1       9.017  27.786  20.135  0.00  0.00    +0.220 A 
ATOM      9  N   UNL     1       9.072  27.004  18.992  0.00  0.00    -0.283 N 
ATOM     36  H   UNL     1       8.722  27.375  18.109  0.00  0.00    +0.155 HD
ATOM     37  N   UNL     1       8.510  29.032  20.027  0.00  0.00    -0.214 NA
BRANCH   4   3
ATOM      1  C   UNL     1       7.713  33.403  19.573  0.00  0.00    +0.020 A 
ATOM      2  C   UNL     1       8.303  32.100  19.773  0.00  0.00    +0.013 A 
ATOM      3  C   UNL     1       7.852  31.237  20.857  0.00  0.00    +0.019 A 
ATOM     38  C   UNL     1       6.793  31.725  21.727  0.00  0.00    +0.120 A 
ATOM     39  N   UNL     1       6.244  32.985  21.510  0.00  0.00    -0.263 NA
ATOM     40  C   UNL     1       6.671  33.826  20.471  0.00  0.00    +0.111 A 
ENDBRANCH   4   3
ENDBRANCH  10   9
BRANCH  12  13
ATOM     13  N   UNL     1      12.873  23.908  18.140  0.00  0.00    -0.281 N 
ATOM     14  C   UNL     1      13.267  23.156  17.045  0.00  0.00    +0.248 C 
ATOM     30  O   UNL     1      12.526  22.422  16.408  0.00  0.00    -0.270 OA
ATOM     31  H   UNL     1      13.624  24.320  18.694  0.00  0.00    +0.155 HD
BRANCH  14  15
ATOM     15  C   UNL     1      14.694  23.217  16.603  0.00  0.00    +0.037 A 
ATOM     16  C   UNL     1      15.756  23.637  17.520  0.00  0.00    +0.013 A 
ATOM     17  C   UNL     1      17.122  23.704  17.064  0.00  0.00    +0.005 A 
ATOM     18  C   UNL     1      17.433  23.346  15.682  0.00  0.00    -0.033 A 
ATOM     28  C   UNL     1      16.360  22.927  14.795  0.00  0.00    +0.005 A 
ATOM     29  C   UNL     1      15.020  22.862  15.239  0.00  0.00    +0.013 A 
BRANCH  18  19
ATOM     19  C   UNL     1      18.858  23.408  15.102  0.00  0.00    +0.119 C 
BRANCH  19  20
ATOM     20  N   UNL     1      19.579  24.712  15.197  0.00  0.00    -0.302 NA
ATOM     21  C   UNL     1      18.862  25.822  14.424  0.00  0.00    +0.066 C 
ATOM     22  C   UNL     1      19.617  27.185  14.552  0.00  0.00    -0.064 C 
ATOM     23  N   UNL     1      21.053  27.018  14.053  0.00  0.00    +0.379 N 
ATOM     24  C   UNL     1      21.749  28.312  14.118  0.00  0.00    -0.096 C 
ATOM     25  H   UNL     1      21.005  26.713  12.981  0.00  0.00    -0.082 HD
ATOM     26  C   UNL     1      21.773  25.914  14.815  0.00  0.00    -0.064 C 
ATOM     27  C   UNL     1      20.998  24.571  14.705  0.00  0.00    +0.066 C 
ENDBRANCH  19  20
ENDBRANCH  18  19
ENDBRANCH  14  15
ENDBRANCH  12  13
TORSDOF 6
ENDMDL
MODEL 2
REMARK VINA RESULT:      -9.1      3.793      7.633
REMARK  Name = C:\Users\Docking\Desktop\test protocol\1iep_ligandH.pdb
REMARK  8 active torsions:
REMARK  status: ('A' for Active; 'I' for Inactive)
REMARK    1  A    between atoms: _5  and  _11
REMARK    2  A    between atoms: _19  and  _21
REMARK    3  A    between atoms: _22  and  _66
REMARK    4  A    between atoms: _27  and  _30
REMARK    5  A    between atoms: _32  and  _33
REMARK    6  A    between atoms: _38  and  _43
REMARK    7  A    between atoms: _43  and  _46
REMARK    8  A    between atoms: _53  and  _55
REMARK                            x       y       z     vdW  Elec       q    Type
REMARK                         _______ _______ _______ _____ _____    ______ ____
ROOT
ATOM     10  C   UNL     1      15.257  23.104  15.266  0.00  0.00    +0.038 A 
ATOM     11  C   UNL     1      16.390  23.949  15.389  0.00  0.00    +0.047 A 
ATOM     12  C   UNL     1      17.690  23.543  14.880  0.00  0.00    +0.035 A 
ATOM     32  C   UNL     1      17.801  22.271  14.247  0.00  0.00    +0.024 A 
ATOM     33  C   UNL     1      16.660  21.399  14.114  0.00  0.00    +0.007 A 
ATOM     34  C   UNL     1      15.375  21.793  14.617  0.00  0.00    -0.029 A 
ATOM     35  C   UNL     1      14.188  20.815  14.452  0.00  0.00    +0.045 C 
ENDROOT
BRANCH  10   9
ATOM      4  C   UNL     1      12.147  23.732  18.867  0.00  0.00    +0.077 A 
ATOM      5  C   UNL     1      13.025  23.106  19.813  0.00  0.00    +0.048 A 
ATOM      6  C   UNL     1      14.265  22.630  19.331  0.00  0.00    +0.116 A 
ATOM      7  N   UNL     1      14.592  22.774  18.000  0.00  0.00    -0.223 NA
ATOM      8  C   UNL     1      13.721  23.381  17.114  0.00  0.00    +0.220 A 
ATOM      9  N   UNL     1      14.032  23.544  15.773  0.00  0.00    -0.283 N 
ATOM     36  H   UNL     1      13.360  23.991  15.150  0.00  0.00    +0.155 HD
ATOM     37  N   UNL     1      12.530  23.843  17.549  0.00  0.00    -0.214 NA
BRANCH   4   3
ATOM      1  C   UNL     1       9.034  26.084  19.141  0.00  0.00    +0.020 A 
ATOM      2  C   UNL     1      10.340  25.593  18.768  0.00  0.00    +0.013 A 
ATOM      3  C   UNL     1      10.804  24.289  19.224  0.00  0.00    +0.019 A 
ATOM     38  C   UNL     1       9.914  23.500  20.062  0.00  0.00    +0.120 A 
ATOM     39  N   UNL     1       8.662  23.999  20.407  0.00  0.00    -0.263 NA
ATOM     40  C   UNL     1       8.206  25.254  19.975  0.00  0.00    +0.111 A 
ENDBRANCH   4   3
ENDBRANCH  10   9
BRANCH  12  13
ATOM     13  N   UNL     1      18.878  24.355  14.984  0.00  0.00    -0.281 N 
ATOM     14  C   UNL     1      19.493  25.095  13.988  0.00  0.00    +0.248 C 
ATOM     30  O   UNL     1      19.234  25.001  12.797  0.00  0.00    -0.270 OA
ATOM     31  H   UNL     1      19.318  24.387  15.903  0.00  0.00    +0.155 HD
BRANCH  14  15
ATOM     15  C   UNL     1      20.559  26.072  14.368  0.00  0.00    +0.037 A 
ATOM     16  C   UNL     1      20.323  27.516  14.306  0.00  0.00    +0.013 A 
ATOM     17  C   UNL     1      21.375  28.436  14.662  0.00  0.00    +0.005 A 
ATOM     18  C   UNL     1      22.671  27.913  15.085  0.00  0.00    -0.033 A 
ATOM     28  C   UNL     1      22.876  26.475  15.143  0.00  0.00    +0.005 A 
ATOM     29  C   UNL     1      21.848  25.571  14.794  0.00  0.00    +0.013 A 
BRANCH  18  19
ATOM     19  C   UNL     1      23.857  28.821  15.463  0.00  0.00    +0.119 C 
BRANCH  19  20
ATOM     20  N   UNL     1      25.158  28.155  15.767  0.00  0.00    -0.302 NA
ATOM     21  C   UNL     1      25.449  28.122  17.270  0.00  0.00    +0.066 C 
ATOM     22  C   UNL     1      26.804  27.402  17.572  0.00  0.00    -0.064 C 
ATOM     23  N   UNL     1      27.932  28.107  16.817  0.00  0.00    +0.379 N 
ATOM     24  C   UNL     1      29.215  27.468  17.144  0.00  0.00    -0.096 C 
ATOM     25  H   UNL     1      27.975  29.160  17.182  0.00  0.00    -0.082 HD
ATOM     26  C   UNL     1      27.650  28.147  15.322  0.00  0.00    -0.064 C 
ATOM     27  C   UNL     1      26.287  28.839  15.035  0.00  0.00    +0.066 C 
ENDBRANCH  19  20
ENDBRANCH  18  19
ENDBRANCH  14  15
ENDBRANCH  12  13
TORSDOF 6
ENDMDL
MODEL 3
REMARK VINA RESULT:      -9.0      6.985     11.656
REMARK  Name = C:\Users\Docking\Desktop\test protocol\1iep_ligandH.pdb
REMARK  8 active torsions:
REMARK  status: ('A' for Active; 'I' for Inactive)
REMARK    1  A    between atoms: _5  and  _11
REMARK    2  A    between atoms: _19  and  _21
REMARK    3  A    between atoms: _22  and  _66
REMARK    4  A    between atoms: _27  and  _30
REMARK    5  A    between atoms: _32  and  _33
REMARK    6  A    between atoms: _38  and  _43
REMARK    7  A    between atoms: _43  and  _46
REMARK    8  A    between atoms: _53  and  _55
REMARK                            x       y       z     vdW  Elec       q    Type
REMARK                         _______ _______ _______ _____ _____    ______ ____
ROOT
ATOM     10  C   UNL     1      14.385  22.639  16.314  0.00  0.00    +0.038 A 
ATOM     11  C   UNL     1      13.376  22.541  15.323  0.00  0.00    +0.047 A 
ATOM     12  C   UNL     1      12.315  21.551  15.425  0.00  0.00    +0.035 A 
ATOM     32  C   UNL     1      12.311  20.679  16.552  0.00  0.00    +0.024 A 
ATOM     33  C   UNL     1      13.329  20.764  17.569  0.00  0.00    +0.007 A 
ATOM     34  C   UNL     1      14.380  21.737  17.472  0.00  0.00    -0.029 A 
ATOM     35  C   UNL     1      15.450  21.779  18.588  0.00  0.00    +0.045 C 
ENDROOT
BRANCH  10   9
ATOM      4  C   UNL     1      18.646  24.113  14.669  0.00  0.00    +0.077 A 
ATOM      5  C   UNL     1      18.926  22.836  14.077  0.00  0.00    +0.048 A 
ATOM      6  C   UNL     1      17.950  21.825  14.225  0.00  0.00    +0.116 A 
ATOM      7  N   UNL     1      16.785  22.083  14.915  0.00  0.00    -0.223 NA
ATOM      8  C   UNL     1      16.548  23.324  15.475  0.00  0.00    +0.220 A 
ATOM      9  N   UNL     1      15.380  23.608  16.166  0.00  0.00    -0.283 N 
ATOM     36  H   UNL     1      15.246  24.534  16.571  0.00  0.00    +0.155 HD
ATOM     37  N   UNL     1      17.465  24.306  15.349  0.00  0.00    -0.214 NA
BRANCH   4   3
ATOM      1  C   UNL     1      20.056  27.748  14.355  0.00  0.00    +0.020 A 
ATOM      2  C   UNL     1      19.115  26.654  14.418  0.00  0.00    +0.013 A 
ATOM      3  C   UNL     1      19.578  25.283  14.595  0.00  0.00    +0.019 A 
ATOM     38  C   UNL     1      21.010  25.052  14.706  0.00  0.00    +0.120 A 
ATOM     39  N   UNL     1      21.893  26.125  14.640  0.00  0.00    -0.263 NA
ATOM     40  C   UNL     1      21.460  27.448  14.468  0.00  0.00    +0.111 A 
ENDBRANCH   4   3
ENDBRANCH  10   9
BRANCH  12  13
ATOM     13  N   UNL     1      11.268  21.399  14.445  0.00  0.00    -0.281 N 
ATOM     14  C   UNL     1       9.900  21.356  14.660  0.00  0.00    +0.248 C 
ATOM     30  O   UNL     1       9.376  21.227  15.756  0.00  0.00    -0.270 OA
ATOM     31  H   UNL     1      11.572  21.313  13.475  0.00  0.00    +0.155 HD
BRANCH  14  15
ATOM     15  C   UNL     1       8.981  21.457  13.485  0.00  0.00    +0.037 A 
ATOM     16  C   UNL     1       8.790  20.327  12.572  0.00  0.00    +0.013 A 
ATOM     17  C   UNL     1       7.911  20.457  11.437  0.00  0.00    +0.005 A 
ATOM     18  C   UNL     1       7.214  21.721  11.210  0.00  0.00    -0.033 A 
ATOM     28  C   UNL     1       7.419  22.823  12.135  0.00  0.00    +0.005 A 
ATOM     29  C   UNL     1       8.280  22.701  13.248  0.00  0.00    +0.013 A 
BRANCH  18  19
ATOM     19  C   UNL     1       6.274  21.955  10.013  0.00  0.00    +0.119 C 
BRANCH  19  20
ATOM     20  N   UNL     1       6.908  22.216   8.686  0.00  0.00    -0.302 NA
ATOM     21  C   UNL     1       8.220  21.446   8.515  0.00  0.00    +0.066 C 
ATOM     22  C   UNL     1       8.858  21.713   7.113  0.00  0.00    -0.064 C 
ATOM     23  N   UNL     1       9.085  23.215   6.937  0.00  0.00    +0.379 N 
ATOM     24  C   UNL     1       9.738  23.464   5.643  0.00  0.00    -0.096 C 
ATOM     25  H   UNL     1       9.784  23.548   7.738  0.00  0.00    -0.082 HD
ATOM     26  C   UNL     1       7.785  23.989   7.108  0.00  0.00    -0.064 C 
ATOM     27  C   UNL     1       7.144  23.694   8.493  0.00  0.00    +0.066 C 
ENDBRANCH  19  20
ENDBRANCH  18  19
ENDBRANCH  14  15
ENDBRANCH  12  13
TORSDOF 6
ENDMDL
MODEL 4
REMARK VINA RESULT:      -9.0      3.581     12.896
REMARK  Name = C:\Users\Docking\Desktop\test protocol\1iep_ligandH.pdb
REMARK  8 active torsions:
REMARK  status: ('A' for Active; 'I' for Inactive)
REMARK    1  A    between atoms: _5  and  _11
REMARK    2  A    between atoms: _19  and  _21
REMARK    3  A    between atoms: _22  and  _66
REMARK    4  A    between atoms: _27  and  _30
REMARK    5  A    between atoms: _32  and  _33
REMARK    6  A    between atoms: _38  and  _43
REMARK    7  A    between atoms: _43  and  _46
REMARK    8  A    between atoms: _53  and  _55
REMARK                            x       y       z     vdW  Elec       q    Type
REMARK                         _______ _______ _______ _____ _____    ______ ____
ROOT
ATOM     10  C   UNL     1      10.716  25.905  20.210  0.00  0.00    +0.038 A 
ATOM     11  C   UNL     1      10.071  27.129  19.897  0.00  0.00    +0.047 A 
ATOM     12  C   UNL     1       9.002  27.652  20.734  0.00  0.00    +0.035 A 
ATOM     32  C   UNL     1       8.617  26.902  21.884  0.00  0.00    +0.024 A 
ATOM     33  C   UNL     1       9.260  25.655  22.215  0.00  0.00    +0.007 A 
ATOM     34  C   UNL     1      10.314  25.134  21.392  0.00  0.00    -0.029 A 
ATOM     35  C   UNL     1      10.964  23.789  21.792  0.00  0.00    +0.045 C 
ENDROOT
BRANCH  10   9
ATOM      4  C   UNL     1      12.418  22.950  16.832  0.00  0.00    +0.077 A 
ATOM      5  C   UNL     1      11.178  22.234  16.749  0.00  0.00    +0.048 A 
ATOM      6  C   UNL     1      10.129  22.653  17.598  0.00  0.00    +0.116 A 
ATOM      7  N   UNL     1      10.317  23.711  18.461  0.00  0.00    -0.223 NA
ATOM      8  C   UNL     1      11.527  24.379  18.517  0.00  0.00    +0.220 A 
ATOM      9  N   UNL     1      11.737  25.450  19.372  0.00  0.00    -0.283 N 
ATOM     36  H   UNL     1      12.646  25.911  19.388  0.00  0.00    +0.155 HD
ATOM     37  N   UNL     1      12.545  23.997  17.718  0.00  0.00    -0.214 NA
BRANCH   4   3
ATOM      1  C   UNL     1      14.718  21.703  13.924  0.00  0.00    +0.020 A 
ATOM      2  C   UNL     1      13.527  21.991  14.690  0.00  0.00    +0.013 A 
ATOM      3  C   UNL     1      13.619  22.628  15.998  0.00  0.00    +0.019 A 
ATOM     38  C   UNL     1      14.941  22.963  16.506  0.00  0.00    +0.120 A 
ATOM     39  N   UNL     1      16.070  22.672  15.747  0.00  0.00    -0.263 NA
ATOM     40  C   UNL     1      15.994  22.057  14.488  0.00  0.00    +0.111 A 
ENDBRANCH   4   3
ENDBRANCH  10   9
BRANCH  12  13
ATOM     13  N   UNL     1       8.306  28.885  20.462  0.00  0.00    -0.281 N 
ATOM     14  C   UNL     1       8.320  30.052  21.207  0.00  0.00    +0.248 C 
ATOM     30  O   UNL     1       8.768  30.144  22.341  0.00  0.00    -0.270 OA
ATOM     31  H   UNL     1       7.733  28.898  19.619  0.00  0.00    +0.155 HD
BRANCH  14  15
ATOM     15  C   UNL     1       7.740  31.295  20.613  0.00  0.00    +0.037 A 
ATOM     16  C   UNL     1       6.681  31.231  19.602  0.00  0.00    +0.013 A 
ATOM     17  C   UNL     1       6.151  32.445  19.033  0.00  0.00    +0.005 A 
ATOM     18  C   UNL     1       6.679  33.733  19.474  0.00  0.00    -0.033 A 
ATOM     28  C   UNL     1       7.726  33.768  20.481  0.00  0.00    +0.005 A 
ATOM     29  C   UNL     1       8.249  32.581  21.041  0.00  0.00    +0.013 A 
BRANCH  18  19
ATOM     19  C   UNL     1       6.188  35.078  18.905  0.00  0.00    +0.119 C 
BRANCH  19  20
ATOM     20  N   UNL     1       5.266  35.886  19.759  0.00  0.00    -0.302 NA
ATOM     21  C   UNL     1       5.913  37.194  20.222  0.00  0.00    +0.066 C 
ATOM     22  C   UNL     1       4.927  38.037  21.096  0.00  0.00    -0.064 C 
ATOM     23  N   UNL     1       4.472  37.204  22.295  0.00  0.00    +0.379 N 
ATOM     24  C   UNL     1       3.591  38.014  23.149  0.00  0.00    -0.096 C 
ATOM     25  H   UNL     1       5.378  36.946  22.891  0.00  0.00    -0.082 HD
ATOM     26  C   UNL     1       3.831  35.899  21.843  0.00  0.00    -0.064 C 
ATOM     27  C   UNL     1       4.808  35.083  20.951  0.00  0.00    +0.066 C 
ENDBRANCH  19  20
ENDBRANCH  18  19
ENDBRANCH  14  15
ENDBRANCH  12  13
TORSDOF 6
ENDMDL
MODEL 5
REMARK VINA RESULT:      -8.8      9.418     14.014
REMARK  Name = C:\Users\Docking\Desktop\test protocol\1iep_ligandH.pdb
REMARK  8 active torsions:
REMARK  status: ('A' for Active; 'I' for Inactive)
REMARK    1  A    between atoms: _5  and  _11
REMARK    2  A    between atoms: _19  and  _21
REMARK    3  A    between atoms: _22  and  _66
REMARK    4  A    between atoms: _27  and  _30
REMARK    5  A    between atoms: _32  and  _33
REMARK    6  A    between atoms: _38  and  _43
REMARK    7  A    between atoms: _43  and  _46
REMARK    8  A    between atoms: _53  and  _55
REMARK                            x       y       z     vdW  Elec       q    Type
REMARK                         _______ _______ _______ _____ _____    ______ ____
ROOT
ATOM     10  C   UNL     1      20.429  25.329  14.837  0.00  0.00    +0.038 A 
ATOM     11  C   UNL     1      21.825  25.572  14.894  0.00  0.00    +0.047 A 
ATOM     12  C   UNL     1      22.352  26.928  14.933  0.00  0.00    +0.035 A 
ATOM     32  C   UNL     1      21.428  28.013  14.916  0.00  0.00    +0.024 A 
ATOM     33  C   UNL     1      20.005  27.783  14.857  0.00  0.00    +0.007 A 
ATOM     34  C   UNL     1      19.480  26.449  14.816  0.00  0.00    -0.029 A 
ATOM     35  C   UNL     1      17.947  26.262  14.747  0.00  0.00    +0.045 C 
ENDROOT
BRANCH  10   9
ATOM      4  C   UNL     1      18.901  21.442  12.473  0.00  0.00    +0.077 A 
ATOM      5  C   UNL     1      18.981  22.108  11.205  0.00  0.00    +0.048 A 
ATOM      6  C   UNL     1      19.414  23.453  11.206  0.00  0.00    +0.116 A 
ATOM      7  N   UNL     1      19.739  24.075  12.391  0.00  0.00    -0.223 NA
ATOM      8  C   UNL     1      19.649  23.404  13.597  0.00  0.00    +0.220 A 
ATOM      9  N   UNL     1      19.979  24.008  14.801  0.00  0.00    -0.283 N 
ATOM     36  H   UNL     1      19.892  23.481  15.669  0.00  0.00    +0.155 HD
ATOM     37  N   UNL     1      19.237  22.119  13.623  0.00  0.00    -0.214 NA
BRANCH   4   3
ATOM      1  C   UNL     1      18.627  17.556  12.113  0.00  0.00    +0.020 A 
ATOM      2  C   UNL     1      19.086  18.912  11.919  0.00  0.00    +0.013 A 
ATOM      3  C   UNL     1      18.465  20.019  12.636  0.00  0.00    +0.019 A 
ATOM     38  C   UNL     1      17.373  19.716  13.550  0.00  0.00    +0.120 A 
ATOM     39  N   UNL     1      16.951  18.401  13.715  0.00  0.00    -0.263 NA
ATOM     40  C   UNL     1      17.541  17.328  13.029  0.00  0.00    +0.111 A 
ENDBRANCH   4   3
ENDBRANCH  10   9
BRANCH  12  13
ATOM     13  N   UNL     1      23.760  27.236  14.984  0.00  0.00    -0.281 N 
ATOM     14  C   UNL     1      24.690  26.820  15.922  0.00  0.00    +0.248 C 
ATOM     30  O   UNL     1      24.408  26.291  16.987  0.00  0.00    -0.270 OA
ATOM     31  H   UNL     1      24.113  27.834  14.237  0.00  0.00    +0.155 HD
BRANCH  14  15
ATOM     15  C   UNL     1      26.142  27.037  15.645  0.00  0.00    +0.037 A 
ATOM     16  C   UNL     1      27.131  25.987  15.904  0.00  0.00    +0.013 A 
ATOM     17  C   UNL     1      28.528  26.229  15.643  0.00  0.00    +0.005 A 
ATOM     18  C   UNL     1      28.944  27.527  15.118  0.00  0.00    -0.033 A 
ATOM     28  C   UNL     1      27.942  28.549  14.865  0.00  0.00    +0.005 A 
ATOM     29  C   UNL     1      26.572  28.316  15.120  0.00  0.00    +0.013 A 
BRANCH  18  19
ATOM     19  C   UNL     1      30.416  27.879  14.831  0.00  0.00    +0.119 C 
BRANCH  19  20
ATOM     20  N   UNL     1      30.746  28.371  13.460  0.00  0.00    -0.302 NA
ATOM     21  C   UNL     1      31.540  27.338  12.655  0.00  0.00    +0.066 C 
ATOM     22  C   UNL     1      31.857  27.860  11.216  0.00  0.00    -0.064 C 
ATOM     23  N   UNL     1      32.626  29.179  11.312  0.00  0.00    +0.379 N 
ATOM     24  C   UNL     1      32.976  29.643   9.962  0.00  0.00    -0.096 C 
ATOM     25  H   UNL     1      33.576  28.977  11.858  0.00  0.00    -0.082 HD
ATOM     26  C   UNL     1      31.844  30.211  12.113  0.00  0.00    -0.064 C 
ATOM     27  C   UNL     1      31.509  29.671  13.532  0.00  0.00    +0.066 C 
ENDBRANCH  19  20
ENDBRANCH  18  19
ENDBRANCH  14  15
ENDBRANCH  12  13
TORSDOF 6
ENDMDL
