MODEL 1
REMARK VINA RESULT:     -10.7      0.000      0.000
REMARK  Name = C:\Users\Docking\Desktop\test protocol\1iep_ligandH.pdb
REMARK  8 active torsions:
REMARK  status: ('A' for Active; 'I' for Inactive)
REMARK    1  A    between atoms: _5  and  _11
REMARK    2  A    between atoms: _19  and  _21
REMARK    3  A    between atoms: _22  and  _66
REMARK    4  A    between atoms: _27  and  _30
REMARK    5  A    between atoms: _32  and  _33
REMARK    6  A    between atoms: _38  and  _43
REMARK    7  A    between atoms: _43  and  _46
REMARK    8  A    between atoms: _53  and  _55
REMARK                            x       y       z     vdW  Elec       q    Type
REMARK                         _______ _______ _______ _____ _____    ______ ____
ROOT
ATOM     10  C   UNL     1      -8.799  30.560 128.691  0.00  0.00    +0.038 A 
ATOM     11  C   UNL     1      -8.691  31.544 127.676  0.00  0.00    +0.047 A 
ATOM     12  C   UNL     1      -9.107  31.264 126.310  0.00  0.00    +0.035 A 
ATOM     32  C   UNL     1      -9.630  29.972 126.014  0.00  0.00    +0.024 A 
ATOM     33  C   UNL     1      -9.746  28.960 127.034  0.00  0.00    +0.007 A 
ATOM     34  C   UNL     1      -9.335  29.229 128.382  0.00  0.00    -0.029 A 
ATOM     35  C   UNL     1      -9.476  28.103 129.434  0.00  0.00    +0.045 C 
ENDROOT
BRANCH  10   9
ATOM      4  C   UNL     1      -5.411  31.022 132.060  0.00  0.00    +0.077 A 
ATOM      5  C   UNL     1      -4.383  30.556 131.174  0.00  0.00    +0.048 A 
ATOM      6  C   UNL     1      -4.769  30.201 129.862  0.00  0.00    +0.116 A 
ATOM      7  N   UNL     1      -6.088  30.308 129.476  0.00  0.00    -0.223 NA
ATOM      8  C   UNL     1      -7.054  30.759 130.355  0.00  0.00    +0.220 A 
ATOM      9  N   UNL     1      -8.385  30.882 129.986  0.00  0.00    -0.283 N 
ATOM     36  H   UNL     1      -9.069  31.212 130.666  0.00  0.00    +0.155 HD
ATOM     37  N   UNL     1      -6.712  31.103 131.614  0.00  0.00    -0.214 NA
BRANCH   4   3
ATOM      1  C   UNL     1      -3.874  32.701 135.241  0.00  0.00    +0.020 A 
ATOM      2  C   UNL     1      -4.073  32.330 133.859  0.00  0.00    +0.013 A 
ATOM      3  C   UNL     1      -5.160  31.438 133.476  0.00  0.00    +0.019 A 
ATOM     38  C   UNL     1      -6.037  30.937 134.524  0.00  0.00    +0.120 A 
ATOM     39  N   UNL     1      -5.820  31.310 135.847  0.00  0.00    -0.263 NA
ATOM     40  C   UNL     1      -4.776  32.166 136.227  0.00  0.00    +0.111 A 
ENDBRANCH   4   3
ENDBRANCH  10   9
BRANCH  12  13
ATOM     13  N   UNL     1      -9.013  32.221 125.235  0.00  0.00    -0.281 N 
ATOM     14  C   UNL     1     -10.043  32.915 124.621  0.00  0.00    +0.248 C 
ATOM     30  O   UNL     1     -11.230  32.657 124.760  0.00  0.00    -0.270 OA
ATOM     31  H   UNL     1      -8.074  32.410 124.885  0.00  0.00    +0.155 HD
BRANCH  14  15
ATOM     15  C   UNL     1      -9.706  34.050 123.709  0.00  0.00    +0.037 A 
ATOM     16  C   UNL     1     -10.754  34.817 123.030  0.00  0.00    +0.013 A 
ATOM     17  C   UNL     1     -10.400  35.896 122.143  0.00  0.00    +0.005 A 
ATOM     18  C   UNL     1      -8.991  36.216 121.930  0.00  0.00    -0.033 A 
ATOM     28  C   UNL     1      -7.972  35.443 122.620  0.00  0.00    +0.005 A 
ATOM     29  C   UNL     1      -8.314  34.383 123.490  0.00  0.00    +0.013 A 
BRANCH  18  19
ATOM     19  C   UNL     1      -8.521  37.337 120.984  0.00  0.00    +0.119 C 
BRANCH  19  20
ATOM     20  N   UNL     1      -8.457  38.721 121.542  0.00  0.00    -0.302 NA
ATOM     21  C   UNL     1      -8.856  39.777 120.507  0.00  0.00    +0.066 C 
ATOM     22  C   UNL     1      -8.806  41.216 121.115  0.00  0.00    -0.064 C 
ATOM     23  N   UNL     1      -7.401  41.490 121.655  0.00  0.00    +0.379 N 
ATOM     24  C   UNL     1      -7.334  42.864 122.174  0.00  0.00    -0.096 C 
ATOM     25  H   UNL     1      -6.690  41.417 120.799  0.00  0.00    -0.082 HD
ATOM     26  C   UNL     1      -6.996  40.444 122.683  0.00  0.00    -0.064 C 
ATOM     27  C   UNL     1      -7.077  39.014 122.078  0.00  0.00    +0.066 C 
ENDBRANCH  19  20
ENDBRANCH  18  19
ENDBRANCH  14  15
ENDBRANCH  12  13
TORSDOF 6
ENDMDL
MODEL 2
REMARK VINA RESULT:      -9.1      4.336      6.717
REMARK  Name = C:\Users\Docking\Desktop\test protocol\1iep_ligandH.pdb
REMARK  8 active torsions:
REMARK  status: ('A' for Active; 'I' for Inactive)
REMARK    1  A    between atoms: _5  and  _11
REMARK    2  A    between atoms: _19  and  _21
REMARK    3  A    between atoms: _22  and  _66
REMARK    4  A    between atoms: _27  and  _30
REMARK    5  A    between atoms: _32  and  _33
REMARK    6  A    between atoms: _38  and  _43
REMARK    7  A    between atoms: _43  and  _46
REMARK    8  A    between atoms: _53  and  _55
REMARK                            x       y       z     vdW  Elec       q    Type
REMARK                         _______ _______ _______ _____ _____    ______ ____
ROOT
ATOM     10  C   UNL     1      -9.344  30.561 125.602  0.00  0.00    +0.038 A 
ATOM     11  C   UNL     1      -9.646  31.946 125.581  0.00  0.00    +0.047 A 
ATOM     12  C   UNL     1      -8.690  32.918 125.075  0.00  0.00    +0.035 A 
ATOM     32  C   UNL     1      -7.434  32.443 124.594  0.00  0.00    +0.024 A 
ATOM     33  C   UNL     1      -7.110  31.038 124.609  0.00  0.00    +0.007 A 
ATOM     34  C   UNL     1      -8.049  30.075 125.110  0.00  0.00    -0.029 A 
ATOM     35  C   UNL     1      -7.645  28.583 125.108  0.00  0.00    +0.045 C 
ENDROOT
BRANCH  10   9
ATOM      4  C   UNL     1     -11.262  27.956 129.148  0.00  0.00    +0.077 A 
ATOM      5  C   UNL     1     -10.259  28.380 130.082  0.00  0.00    +0.048 A 
ATOM      6  C   UNL     1      -9.263  29.264 129.608  0.00  0.00    +0.116 A 
ATOM      7  N   UNL     1      -9.279  29.685 128.296  0.00  0.00    -0.223 NA
ATOM      8  C   UNL     1     -10.260  29.255 127.421  0.00  0.00    +0.220 A 
ATOM      9  N   UNL     1     -10.300  29.672 126.100  0.00  0.00    -0.283 N 
ATOM     36  H   UNL     1     -11.035  29.326 125.484  0.00  0.00    +0.155 HD
ATOM     37  N   UNL     1     -11.221  28.410 127.849  0.00  0.00    -0.214 NA
BRANCH   4   3
ATOM      1  C   UNL     1     -14.188  25.373 128.893  0.00  0.00    +0.020 A 
ATOM      2  C   UNL     1     -13.114  26.257 128.501  0.00  0.00    +0.013 A 
ATOM      3  C   UNL     1     -12.382  27.026 129.499  0.00  0.00    +0.019 A 
ATOM     38  C   UNL     1     -12.763  26.877 130.895  0.00  0.00    +0.120 A 
ATOM     39  N   UNL     1     -13.802  26.019 131.243  0.00  0.00    -0.263 NA
ATOM     40  C   UNL     1     -14.515  25.275 130.291  0.00  0.00    +0.111 A 
ENDBRANCH   4   3
ENDBRANCH  10   9
BRANCH  12  13
ATOM     13  N   UNL     1      -8.938  34.338 125.036  0.00  0.00    -0.281 N 
ATOM     14  C   UNL     1      -9.867  35.019 124.267  0.00  0.00    +0.248 C 
ATOM     30  O   UNL     1     -10.483  34.529 123.332  0.00  0.00    -0.270 OA
ATOM     31  H   UNL     1      -8.358  34.910 125.650  0.00  0.00    +0.155 HD
BRANCH  14  15
ATOM     15  C   UNL     1     -10.140  36.457 124.570  0.00  0.00    +0.037 A 
ATOM     16  C   UNL     1      -9.314  37.524 124.000  0.00  0.00    +0.013 A 
ATOM     17  C   UNL     1      -9.588  38.902 124.323  0.00  0.00    +0.005 A 
ATOM     18  C   UNL     1     -10.697  39.220 125.219  0.00  0.00    -0.033 A 
ATOM     28  C   UNL     1     -11.504  38.142 125.766  0.00  0.00    +0.005 A 
ATOM     29  C   UNL     1     -11.237  36.791 125.453  0.00  0.00    +0.013 A 
BRANCH  18  19
ATOM     19  C   UNL     1     -11.049  40.661 125.635  0.00  0.00    +0.119 C 
BRANCH  19  20
ATOM     20  N   UNL     1     -10.588  41.117 126.980  0.00  0.00    -0.302 NA
ATOM     21  C   UNL     1      -9.126  40.746 127.242  0.00  0.00    +0.066 C 
ATOM     22  C   UNL     1      -8.653  41.250 128.645  0.00  0.00    -0.064 C 
ATOM     23  N   UNL     1      -9.563  40.665 129.727  0.00  0.00    +0.379 N 
ATOM     24  C   UNL     1      -9.086  41.090 131.051  0.00  0.00    -0.096 C 
ATOM     25  H   UNL     1      -9.476  39.554 129.677  0.00  0.00    -0.082 HD
ATOM     26  C   UNL     1     -11.019  41.027 129.472  0.00  0.00    -0.064 C 
ATOM     27  C   UNL     1     -11.470  40.547 128.064  0.00  0.00    +0.066 C 
ENDBRANCH  19  20
ENDBRANCH  18  19
ENDBRANCH  14  15
ENDBRANCH  12  13
TORSDOF 6
ENDMDL
MODEL 3
REMARK VINA RESULT:      -9.0      2.200      3.281
REMARK  Name = C:\Users\Docking\Desktop\test protocol\1iep_ligandH.pdb
REMARK  8 active torsions:
REMARK  status: ('A' for Active; 'I' for Inactive)
REMARK    1  A    between atoms: _5  and  _11
REMARK    2  A    between atoms: _19  and  _21
REMARK    3  A    between atoms: _22  and  _66
REMARK    4  A    between atoms: _27  and  _30
REMARK    5  A    between atoms: _32  and  _33
REMARK    6  A    between atoms: _38  and  _43
REMARK    7  A    between atoms: _43  and  _46
REMARK    8  A    between atoms: _53  and  _55
REMARK                            x       y       z     vdW  Elec       q    Type
REMARK                         _______ _______ _______ _____ _____    ______ ____
ROOT
ATOM     10  C   UNL     1      -7.247  31.755 126.632  0.00  0.00    +0.038 A 
ATOM     11  C   UNL     1      -7.191  33.092 126.163  0.00  0.00    +0.047 A 
ATOM     12  C   UNL     1      -7.077  33.387 124.743  0.00  0.00    +0.035 A 
ATOM     32  C   UNL     1      -7.027  32.295 123.828  0.00  0.00    +0.024 A 
ATOM     33  C   UNL     1      -7.082  30.930 124.288  0.00  0.00    +0.007 A 
ATOM     34  C   UNL     1      -7.191  30.633 125.688  0.00  0.00    -0.029 A 
ATOM     35  C   UNL     1      -7.240  29.150 126.124  0.00  0.00    +0.045 C 
ENDROOT
BRANCH  10   9
ATOM      4  C   UNL     1      -5.322  31.002 130.964  0.00  0.00    +0.077 A 
ATOM      5  C   UNL     1      -3.986  31.034 130.441  0.00  0.00    +0.048 A 
ATOM      6  C   UNL     1      -3.838  31.239 129.051  0.00  0.00    +0.116 A 
ATOM      7  N   UNL     1      -4.950  31.400 128.253  0.00  0.00    -0.223 NA
ATOM      8  C   UNL     1      -6.224  31.362 128.789  0.00  0.00    +0.220 A 
ATOM      9  N   UNL     1      -7.356  31.530 128.006  0.00  0.00    -0.283 N 
ATOM     36  H   UNL     1      -8.279  31.488 128.439  0.00  0.00    +0.155 HD
ATOM     37  N   UNL     1      -6.392  31.166 130.113  0.00  0.00    -0.214 NA
BRANCH   4   3
ATOM      1  C   UNL     1      -5.775  31.585 134.805  0.00  0.00    +0.020 A 
ATOM      2  C   UNL     1      -5.451  31.834 133.419  0.00  0.00    +0.013 A 
ATOM      3  C   UNL     1      -5.641  30.797 132.412  0.00  0.00    +0.019 A 
ATOM     38  C   UNL     1      -6.166  29.511 132.843  0.00  0.00    +0.120 A 
ATOM     39  N   UNL     1      -6.468  29.299 134.185  0.00  0.00    -0.263 NA
ATOM     40  C   UNL     1      -6.288  30.288 135.163  0.00  0.00    +0.111 A 
ENDBRANCH   4   3
ENDBRANCH  10   9
BRANCH  12  13
ATOM     13  N   UNL     1      -7.008  34.724 124.208  0.00  0.00    -0.281 N 
ATOM     14  C   UNL     1      -8.034  35.647 124.085  0.00  0.00    +0.248 C 
ATOM     30  O   UNL     1      -9.219  35.385 124.222  0.00  0.00    -0.270 OA
ATOM     31  H   UNL     1      -6.091  35.028 123.880  0.00  0.00    +0.155 HD
BRANCH  14  15
ATOM     15  C   UNL     1      -7.695  37.063 123.749  0.00  0.00    +0.037 A 
ATOM     16  C   UNL     1      -6.583  37.386 122.850  0.00  0.00    +0.013 A 
ATOM     17  C   UNL     1      -6.267  38.761 122.556  0.00  0.00    +0.005 A 
ATOM     18  C   UNL     1      -7.065  39.825 123.159  0.00  0.00    -0.033 A 
ATOM     28  C   UNL     1      -8.166  39.476 124.043  0.00  0.00    +0.005 A 
ATOM     29  C   UNL     1      -8.478  38.130 124.335  0.00  0.00    +0.013 A 
BRANCH  18  19
ATOM     19  C   UNL     1      -6.786  41.320 122.918  0.00  0.00    +0.119 C 
BRANCH  19  20
ATOM     20  N   UNL     1      -7.882  42.130 122.309  0.00  0.00    -0.302 NA
ATOM     21  C   UNL     1      -8.502  41.437 121.092  0.00  0.00    +0.066 C 
ATOM     22  C   UNL     1      -9.662  42.288 120.481  0.00  0.00    -0.064 C 
ATOM     23  N   UNL     1      -9.131  43.672 120.103  0.00  0.00    +0.379 N 
ATOM     24  C   UNL     1     -10.205  44.455 119.475  0.00  0.00    -0.096 C 
ATOM     25  H   UNL     1      -8.328  43.530 119.344  0.00  0.00    -0.082 HD
ATOM     26  C   UNL     1      -8.511  44.368 121.307  0.00  0.00    -0.064 C 
ATOM     27  C   UNL     1      -7.379  43.500 121.924  0.00  0.00    +0.066 C 
ENDBRANCH  19  20
ENDBRANCH  18  19
ENDBRANCH  14  15
ENDBRANCH  12  13
TORSDOF 6
ENDMDL
MODEL 4
REMARK VINA RESULT:      -8.5      4.210      6.359
REMARK  Name = C:\Users\Docking\Desktop\test protocol\1iep_ligandH.pdb
REMARK  8 active torsions:
REMARK  status: ('A' for Active; 'I' for Inactive)
REMARK    1  A    between atoms: _5  and  _11
REMARK    2  A    between atoms: _19  and  _21
REMARK    3  A    between atoms: _22  and  _66
REMARK    4  A    between atoms: _27  and  _30
REMARK    5  A    between atoms: _32  and  _33
REMARK    6  A    between atoms: _38  and  _43
REMARK    7  A    between atoms: _43  and  _46
REMARK    8  A    between atoms: _53  and  _55
REMARK                            x       y       z     vdW  Elec       q    Type
REMARK                         _______ _______ _______ _____ _____    ______ ____
ROOT
ATOM     10  C   UNL     1      -9.425  30.443 125.706  0.00  0.00    +0.038 A 
ATOM     11  C   UNL     1      -9.736  31.827 125.687  0.00  0.00    +0.047 A 
ATOM     12  C   UNL     1      -8.777  32.807 125.203  0.00  0.00    +0.035 A 
ATOM     32  C   UNL     1      -7.511  32.343 124.742  0.00  0.00    +0.024 A 
ATOM     33  C   UNL     1      -7.177  30.941 124.756  0.00  0.00    +0.007 A 
ATOM     34  C   UNL     1      -8.118  29.969 125.235  0.00  0.00    -0.029 A 
ATOM     35  C   UNL     1      -7.704  28.479 125.232  0.00  0.00    +0.045 C 
ENDROOT
BRANCH  10   9
ATOM      4  C   UNL     1     -11.472  27.912 129.234  0.00  0.00    +0.077 A 
ATOM      5  C   UNL     1     -10.536  28.399 130.206  0.00  0.00    +0.048 A 
ATOM      6  C   UNL     1      -9.539  29.294 129.756  0.00  0.00    +0.116 A 
ATOM      7  N   UNL     1      -9.491  29.667 128.431  0.00  0.00    -0.223 NA
ATOM      8  C   UNL     1     -10.408  29.177 127.518  0.00  0.00    +0.220 A 
ATOM      9  N   UNL     1     -10.383  29.545 126.182  0.00  0.00    -0.283 N 
ATOM     36  H   UNL     1     -11.072  29.156 125.539  0.00  0.00    +0.155 HD
ATOM     37  N   UNL     1     -11.369  28.321 127.923  0.00  0.00    -0.214 NA
BRANCH   4   3
ATOM      1  C   UNL     1     -14.087  25.747 131.176  0.00  0.00    +0.020 A 
ATOM      2  C   UNL     1     -13.006  26.670 130.919  0.00  0.00    +0.013 A 
ATOM      3  C   UNL     1     -12.584  26.964 129.555  0.00  0.00    +0.019 A 
ATOM     38  C   UNL     1     -13.284  26.302 128.464  0.00  0.00    +0.120 A 
ATOM     39  N   UNL     1     -14.320  25.416 128.742  0.00  0.00    -0.263 NA
ATOM     40  C   UNL     1     -14.733  25.124 130.050  0.00  0.00    +0.111 A 
ENDBRANCH   4   3
ENDBRANCH  10   9
BRANCH  12  13
ATOM     13  N   UNL     1      -9.034  34.226 125.167  0.00  0.00    -0.281 N 
ATOM     14  C   UNL     1      -9.556  34.971 124.122  0.00  0.00    +0.248 C 
ATOM     30  O   UNL     1      -9.683  34.562 122.978  0.00  0.00    -0.270 OA
ATOM     31  H   UNL     1      -8.804  34.743 126.015  0.00  0.00    +0.155 HD
BRANCH  14  15
ATOM     15  C   UNL     1      -9.986  36.378 124.383  0.00  0.00    +0.037 A 
ATOM     16  C   UNL     1      -9.275  37.513 123.789  0.00  0.00    +0.013 A 
ATOM     17  C   UNL     1      -9.701  38.861 124.071  0.00  0.00    +0.005 A 
ATOM     18  C   UNL     1     -10.845  39.081 124.951  0.00  0.00    -0.033 A 
ATOM     28  C   UNL     1     -11.536  37.938 125.523  0.00  0.00    +0.005 A 
ATOM     29  C   UNL     1     -11.121  36.615 125.250  0.00  0.00    +0.013 A 
BRANCH  18  19
ATOM     19  C   UNL     1     -11.355  40.486 125.324  0.00  0.00    +0.119 C 
BRANCH  19  20
ATOM     20  N   UNL     1     -12.141  41.225 124.291  0.00  0.00    -0.302 NA
ATOM     21  C   UNL     1     -13.067  40.296 123.500  0.00  0.00    +0.066 C 
ATOM     22  C   UNL     1     -13.898  41.088 122.439  0.00  0.00    -0.064 C 
ATOM     23  N   UNL     1     -12.945  41.830 121.500  0.00  0.00    +0.379 N 
ATOM     24  C   UNL     1     -13.722  42.530 120.466  0.00  0.00    -0.096 C 
ATOM     25  H   UNL     1     -12.312  41.068 120.990  0.00  0.00    -0.082 HD
ATOM     26  C   UNL     1     -12.019  42.754 122.278  0.00  0.00    -0.064 C 
ATOM     27  C   UNL     1     -11.220  41.962 123.350  0.00  0.00    +0.066 C 
ENDBRANCH  19  20
ENDBRANCH  18  19
ENDBRANCH  14  15
ENDBRANCH  12  13
TORSDOF 6
ENDMDL
MODEL 5
REMARK VINA RESULT:      -8.5      6.341      9.004
REMARK  Name = C:\Users\Docking\Desktop\test protocol\1iep_ligandH.pdb
REMARK  8 active torsions:
REMARK  status: ('A' for Active; 'I' for Inactive)
REMARK    1  A    between atoms: _5  and  _11
REMARK    2  A    between atoms: _19  and  _21
REMARK    3  A    between atoms: _22  and  _66
REMARK    4  A    between atoms: _27  and  _30
REMARK    5  A    between atoms: _32  and  _33
REMARK    6  A    between atoms: _38  and  _43
REMARK    7  A    between atoms: _43  and  _46
REMARK    8  A    between atoms: _53  and  _55
REMARK                            x       y       z     vdW  Elec       q    Type
REMARK                         _______ _______ _______ _____ _____    ______ ____
ROOT
ATOM     10  C   UNL     1      -9.980  33.837 124.972  0.00  0.00    +0.038 A 
ATOM     11  C   UNL     1     -11.292  34.327 125.196  0.00  0.00    +0.047 A 
ATOM     12  C   UNL     1     -11.983  35.116 124.187  0.00  0.00    +0.035 A 
ATOM     32  C   UNL     1     -11.309  35.385 122.961  0.00  0.00    +0.024 A 
ATOM     33  C   UNL     1      -9.975  34.895 122.717  0.00  0.00    +0.007 A 
ATOM     34  C   UNL     1      -9.287  34.119 123.708  0.00  0.00    -0.029 A 
ATOM     35  C   UNL     1      -7.856  33.625 123.395  0.00  0.00    +0.045 C 
ENDROOT
BRANCH  10   9
ATOM      4  C   UNL     1      -9.309  29.741 127.382  0.00  0.00    +0.077 A 
ATOM      5  C   UNL     1     -10.288  29.048 126.595  0.00  0.00    +0.048 A 
ATOM      6  C   UNL     1     -10.947  29.784 125.585  0.00  0.00    +0.116 A 
ATOM      7  N   UNL     1     -10.641  31.113 125.385  0.00  0.00    -0.223 NA
ATOM      8  C   UNL     1      -9.693  31.751 126.163  0.00  0.00    +0.220 A 
ATOM      9  N   UNL     1      -9.364  33.085 125.974  0.00  0.00    -0.283 N 
ATOM     36  H   UNL     1      -8.664  33.521 126.574  0.00  0.00    +0.155 HD
ATOM     37  N   UNL     1      -9.051  31.071 127.135  0.00  0.00    -0.214 NA
BRANCH   4   3
ATOM      1  C   UNL     1      -8.298  27.525 130.443  0.00  0.00    +0.020 A 
ATOM      2  C   UNL     1      -9.099  28.116 129.395  0.00  0.00    +0.013 A 
ATOM      3  C   UNL     1      -8.526  29.099 128.485  0.00  0.00    +0.019 A 
ATOM     38  C   UNL     1      -7.129  29.466 128.663  0.00  0.00    +0.120 A 
ATOM     39  N   UNL     1      -6.383  28.882 129.682  0.00  0.00    -0.263 NA
ATOM     40  C   UNL     1      -6.924  27.936 130.565  0.00  0.00    +0.111 A 
ENDBRANCH   4   3
ENDBRANCH  10   9
BRANCH  12  13
ATOM     13  N   UNL     1     -13.312  35.647 124.362  0.00  0.00    -0.281 N 
ATOM     14  C   UNL     1     -14.410  35.024 124.932  0.00  0.00    +0.248 C 
ATOM     30  O   UNL     1     -14.472  33.831 125.188  0.00  0.00    -0.270 OA
ATOM     31  H   UNL     1     -13.462  36.598 124.024  0.00  0.00    +0.155 HD
BRANCH  14  15
ATOM     15  C   UNL     1     -15.620  35.842 125.252  0.00  0.00    +0.037 A 
ATOM     16  C   UNL     1     -16.775  35.255 125.935  0.00  0.00    +0.013 A 
ATOM     17  C   UNL     1     -17.936  36.063 126.216  0.00  0.00    +0.005 A 
ATOM     18  C   UNL     1     -17.945  37.467 125.815  0.00  0.00    -0.033 A 
ATOM     28  C   UNL     1     -16.783  38.025 125.143  0.00  0.00    +0.005 A 
ATOM     29  C   UNL     1     -15.644  37.237 124.865  0.00  0.00    +0.013 A 
BRANCH  18  19
ATOM     19  C   UNL     1     -19.149  38.398 126.055  0.00  0.00    +0.119 C 
BRANCH  19  20
ATOM     20  N   UNL     1     -20.387  38.133 125.263  0.00  0.00    -0.302 NA
ATOM     21  C   UNL     1     -21.343  37.184 125.992  0.00  0.00    +0.066 C 
ATOM     22  C   UNL     1     -22.643  36.936 125.159  0.00  0.00    -0.064 C 
ATOM     23  N   UNL     1     -22.266  36.377 123.786  0.00  0.00    +0.379 N 
ATOM     24  C   UNL     1     -23.489  36.088 123.022  0.00  0.00    -0.096 C 
ATOM     25  H   UNL     1     -21.733  35.411 123.949  0.00  0.00    -0.082 HD
ATOM     26  C   UNL     1     -21.314  37.313 123.056  0.00  0.00    -0.064 C 
ATOM     27  C   UNL     1     -20.039  37.576 123.905  0.00  0.00    +0.066 C 
ENDBRANCH  19  20
ENDBRANCH  18  19
ENDBRANCH  14  15
ENDBRANCH  12  13
TORSDOF 6
ENDMDL
