MODEL 1
REMARK VINA RESULT:      -9.5      0.000      0.000
REMARK  Name = C:\Users\Docking\Desktop\test protocol\1iep_ligandH.pdb
REMARK  8 active torsions:
REMARK  status: ('A' for Active; 'I' for Inactive)
REMARK    1  A    between atoms: _5  and  _11
REMARK    2  A    between atoms: _19  and  _21
REMARK    3  A    between atoms: _22  and  _66
REMARK    4  A    between atoms: _27  and  _30
REMARK    5  A    between atoms: _32  and  _33
REMARK    6  A    between atoms: _38  and  _43
REMARK    7  A    between atoms: _43  and  _46
REMARK    8  A    between atoms: _53  and  _55
REMARK                            x       y       z     vdW  Elec       q    Type
REMARK                         _______ _______ _______ _____ _____    ______ ____
ROOT
ATOM     10  C   UNL     1     -28.373  41.388  25.575  0.00  0.00    +0.038 A 
ATOM     11  C   UNL     1     -27.471  41.043  24.536  0.00  0.00    +0.047 A 
ATOM     12  C   UNL     1     -27.125  39.655  24.271  0.00  0.00    +0.035 A 
ATOM     32  C   UNL     1     -27.718  38.644  25.081  0.00  0.00    +0.024 A 
ATOM     33  C   UNL     1     -28.636  38.977  26.142  0.00  0.00    +0.007 A 
ATOM     34  C   UNL     1     -28.979  40.344  26.411  0.00  0.00    -0.029 A 
ATOM     35  C   UNL     1     -29.963  40.644  27.565  0.00  0.00    +0.045 C 
ENDROOT
BRANCH  10   9
ATOM      4  C   UNL     1     -27.587  45.610  27.719  0.00  0.00    +0.077 A 
ATOM      5  C   UNL     1     -26.511  45.078  28.504  0.00  0.00    +0.048 A 
ATOM      6  C   UNL     1     -26.196  43.711  28.332  0.00  0.00    +0.116 A 
ATOM      7  N   UNL     1     -26.910  42.944  27.438  0.00  0.00    -0.223 NA
ATOM      8  C   UNL     1     -27.943  43.488  26.697  0.00  0.00    +0.220 A 
ATOM      9  N   UNL     1     -28.670  42.736  25.786  0.00  0.00    -0.283 N 
ATOM     36  H   UNL     1     -29.429  43.173  25.265  0.00  0.00    +0.155 HD
ATOM     37  N   UNL     1     -28.264  44.790  26.844  0.00  0.00    -0.214 NA
BRANCH   4   3
ATOM      1  C   UNL     1     -28.494  49.288  26.744  0.00  0.00    +0.020 A 
ATOM      2  C   UNL     1     -28.050  47.919  26.625  0.00  0.00    +0.013 A 
ATOM      3  C   UNL     1     -28.036  47.037  27.786  0.00  0.00    +0.019 A 
ATOM     38  C   UNL     1     -28.483  47.576  29.061  0.00  0.00    +0.120 A 
ATOM     39  N   UNL     1     -28.904  48.899  29.146  0.00  0.00    -0.263 NA
ATOM     40  C   UNL     1     -28.920  49.758  28.036  0.00  0.00    +0.111 A 
ENDBRANCH   4   3
ENDBRANCH  10   9
BRANCH  12  13
ATOM     13  N   UNL     1     -26.210  39.245  23.235  0.00  0.00    -0.281 N 
ATOM     14  C   UNL     1     -24.847  39.480  23.161  0.00  0.00    +0.248 C 
ATOM     30  O   UNL     1     -24.241  40.267  23.873  0.00  0.00    -0.270 OA
ATOM     31  H   UNL     1     -26.617  38.717  22.462  0.00  0.00    +0.155 HD
BRANCH  14  15
ATOM     15  C   UNL     1     -24.042  38.744  22.138  0.00  0.00    +0.037 A 
ATOM     16  C   UNL     1     -22.616  38.478  22.341  0.00  0.00    +0.013 A 
ATOM     17  C   UNL     1     -21.859  37.782  21.331  0.00  0.00    +0.005 A 
ATOM     18  C   UNL     1     -22.528  37.345  20.109  0.00  0.00    -0.033 A 
ATOM     28  C   UNL     1     -23.946  37.617  19.935  0.00  0.00    +0.005 A 
ATOM     29  C   UNL     1     -24.690  38.300  20.923  0.00  0.00    +0.013 A 
BRANCH  18  19
ATOM     19  C   UNL     1     -21.795  36.614  18.969  0.00  0.00    +0.119 C 
BRANCH  19  20
ATOM     20  N   UNL     1     -22.475  36.561  17.641  0.00  0.00    -0.302 NA
ATOM     21  C   UNL     1     -22.523  35.138  17.076  0.00  0.00    +0.066 C 
ATOM     22  C   UNL     1     -23.258  35.098  15.697  0.00  0.00    -0.064 C 
ATOM     23  N   UNL     1     -22.559  36.045  14.721  0.00  0.00    +0.379 N 
ATOM     24  C   UNL     1     -23.212  35.965  13.406  0.00  0.00    -0.096 C 
ATOM     25  H   UNL     1     -21.509  35.689  14.599  0.00  0.00    -0.082 HD
ATOM     26  C   UNL     1     -22.505  37.461  15.276  0.00  0.00    -0.064 C 
ATOM     27  C   UNL     1     -21.798  37.486  16.660  0.00  0.00    +0.066 C 
ENDBRANCH  19  20
ENDBRANCH  18  19
ENDBRANCH  14  15
ENDBRANCH  12  13
TORSDOF 6
ENDMDL
MODEL 2
REMARK VINA RESULT:      -9.4      1.994     13.406
REMARK  Name = C:\Users\Docking\Desktop\test protocol\1iep_ligandH.pdb
REMARK  8 active torsions:
REMARK  status: ('A' for Active; 'I' for Inactive)
REMARK    1  A    between atoms: _5  and  _11
REMARK    2  A    between atoms: _19  and  _21
REMARK    3  A    between atoms: _22  and  _66
REMARK    4  A    between atoms: _27  and  _30
REMARK    5  A    between atoms: _32  and  _33
REMARK    6  A    between atoms: _38  and  _43
REMARK    7  A    between atoms: _43  and  _46
REMARK    8  A    between atoms: _53  and  _55
REMARK                            x       y       z     vdW  Elec       q    Type
REMARK                         _______ _______ _______ _____ _____    ______ ____
ROOT
ATOM     10  C   UNL     1     -20.735  37.560  21.321  0.00  0.00    +0.038 A 
ATOM     11  C   UNL     1     -21.952  38.194  21.678  0.00  0.00    +0.047 A 
ATOM     12  C   UNL     1     -21.997  39.194  22.733  0.00  0.00    +0.035 A 
ATOM     32  C   UNL     1     -20.783  39.526  23.402  0.00  0.00    +0.024 A 
ATOM     33  C   UNL     1     -19.537  38.890  23.053  0.00  0.00    +0.007 A 
ATOM     34  C   UNL     1     -19.487  37.901  22.014  0.00  0.00    -0.029 A 
ATOM     35  C   UNL     1     -18.124  37.247  21.686  0.00  0.00    +0.045 C 
ENDROOT
BRANCH  10   9
ATOM      4  C   UNL     1     -21.855  36.133  16.877  0.00  0.00    +0.077 A 
ATOM      5  C   UNL     1     -22.490  37.383  16.572  0.00  0.00    +0.048 A 
ATOM      6  C   UNL     1     -22.513  38.364  17.589  0.00  0.00    +0.116 A 
ATOM      7  N   UNL     1     -21.941  38.104  18.815  0.00  0.00    -0.223 NA
ATOM      8  C   UNL     1     -21.338  36.887  19.077  0.00  0.00    +0.220 A 
ATOM      9  N   UNL     1     -20.749  36.607  20.300  0.00  0.00    -0.283 N 
ATOM     36  H   UNL     1     -20.320  35.694  20.456  0.00  0.00    +0.155 HD
ATOM     37  N   UNL     1     -21.304  35.933  18.123  0.00  0.00    -0.214 NA
BRANCH   4   3
ATOM      1  C   UNL     1     -20.426  33.298  14.592  0.00  0.00    +0.020 A 
ATOM      2  C   UNL     1     -20.475  34.392  15.535  0.00  0.00    +0.013 A 
ATOM      3  C   UNL     1     -21.747  34.999  15.906  0.00  0.00    +0.019 A 
ATOM     38  C   UNL     1     -22.961  34.471  15.301  0.00  0.00    +0.120 A 
ATOM     39  N   UNL     1     -22.882  33.418  14.395  0.00  0.00    -0.263 NA
ATOM     40  C   UNL     1     -21.664  32.827  14.029  0.00  0.00    +0.111 A 
ENDBRANCH   4   3
ENDBRANCH  10   9
BRANCH  12  13
ATOM     13  N   UNL     1     -23.205  39.866  23.145  0.00  0.00    -0.281 N 
ATOM     14  C   UNL     1     -24.514  39.451  22.966  0.00  0.00    +0.248 C 
ATOM     30  O   UNL     1     -24.854  38.535  22.231  0.00  0.00    -0.270 OA
ATOM     31  H   UNL     1     -23.079  40.756  23.627  0.00  0.00    +0.155 HD
BRANCH  14  15
ATOM     15  C   UNL     1     -25.605  40.164  23.698  0.00  0.00    +0.037 A 
ATOM     16  C   UNL     1     -26.923  39.552  23.882  0.00  0.00    +0.013 A 
ATOM     17  C   UNL     1     -27.962  40.269  24.577  0.00  0.00    +0.005 A 
ATOM     18  C   UNL     1     -27.687  41.607  25.095  0.00  0.00    -0.033 A 
ATOM     28  C   UNL     1     -26.368  42.188  24.903  0.00  0.00    +0.005 A 
ATOM     29  C   UNL     1     -25.347  41.489  24.221  0.00  0.00    +0.013 A 
BRANCH  18  19
ATOM     19  C   UNL     1     -28.742  42.453  25.831  0.00  0.00    +0.119 C 
BRANCH  19  20
ATOM     20  N   UNL     1     -28.246  43.463  26.813  0.00  0.00    -0.302 NA
ATOM     21  C   UNL     1     -28.085  42.869  28.215  0.00  0.00    +0.066 C 
ATOM     22  C   UNL     1     -27.543  43.934  29.225  0.00  0.00    -0.064 C 
ATOM     23  N   UNL     1     -28.490  45.135  29.251  0.00  0.00    +0.379 N 
ATOM     24  C   UNL     1     -28.015  46.112  30.241  0.00  0.00    -0.096 C 
ATOM     25  H   UNL     1     -29.489  44.772  29.586  0.00  0.00    -0.082 HD
ATOM     26  C   UNL     1     -28.658  45.730  27.860  0.00  0.00    -0.064 C 
ATOM     27  C   UNL     1     -29.168  44.656  26.858  0.00  0.00    +0.066 C 
ENDBRANCH  19  20
ENDBRANCH  18  19
ENDBRANCH  14  15
ENDBRANCH  12  13
TORSDOF 6
ENDMDL
MODEL 3
REMARK VINA RESULT:      -9.2     14.013     16.173
REMARK  Name = C:\Users\Docking\Desktop\test protocol\1iep_ligandH.pdb
REMARK  8 active torsions:
REMARK  status: ('A' for Active; 'I' for Inactive)
REMARK    1  A    between atoms: _5  and  _11
REMARK    2  A    between atoms: _19  and  _21
REMARK    3  A    between atoms: _22  and  _66
REMARK    4  A    between atoms: _27  and  _30
REMARK    5  A    between atoms: _32  and  _33
REMARK    6  A    between atoms: _38  and  _43
REMARK    7  A    between atoms: _43  and  _46
REMARK    8  A    between atoms: _53  and  _55
REMARK                            x       y       z     vdW  Elec       q    Type
REMARK                         _______ _______ _______ _____ _____    ______ ____
ROOT
ATOM     10  C   UNL     1     -23.697  37.284  39.536  0.00  0.00    +0.038 A 
ATOM     11  C   UNL     1     -22.575  36.668  38.926  0.00  0.00    +0.047 A 
ATOM     12  C   UNL     1     -22.002  35.445  39.466  0.00  0.00    +0.035 A 
ATOM     32  C   UNL     1     -22.600  34.874  40.627  0.00  0.00    +0.024 A 
ATOM     33  C   UNL     1     -23.740  35.488  41.261  0.00  0.00    +0.007 A 
ATOM     34  C   UNL     1     -24.308  36.696  40.735  0.00  0.00    -0.029 A 
ATOM     35  C   UNL     1     -25.527  37.313  41.459  0.00  0.00    +0.045 C 
ENDROOT
BRANCH  10   9
ATOM      4  C   UNL     1     -26.532  39.615  36.443  0.00  0.00    +0.077 A 
ATOM      5  C   UNL     1     -27.020  38.390  35.876  0.00  0.00    +0.048 A 
ATOM      6  C   UNL     1     -26.511  37.183  36.405  0.00  0.00    +0.116 A 
ATOM      7  N   UNL     1     -25.584  37.210  37.424  0.00  0.00    -0.223 NA
ATOM      8  C   UNL     1     -25.133  38.408  37.946  0.00  0.00    +0.220 A 
ATOM      9  N   UNL     1     -24.206  38.458  38.976  0.00  0.00    -0.283 N 
ATOM     36  H   UNL     1     -23.893  39.362  39.329  0.00  0.00    +0.155 HD
ATOM     37  N   UNL     1     -25.602  39.575  37.458  0.00  0.00    -0.214 NA
BRANCH   4   3
ATOM      1  C   UNL     1     -28.524  42.962  36.087  0.00  0.00    +0.020 A 
ATOM      2  C   UNL     1     -28.137  41.652  36.556  0.00  0.00    +0.013 A 
ATOM      3  C   UNL     1     -26.977  40.972  35.994  0.00  0.00    +0.019 A 
ATOM     38  C   UNL     1     -26.223  41.652  34.951  0.00  0.00    +0.120 A 
ATOM     39  N   UNL     1     -26.620  42.913  34.518  0.00  0.00    -0.263 NA
ATOM     40  C   UNL     1     -27.736  43.576  35.051  0.00  0.00    +0.111 A 
ENDBRANCH   4   3
ENDBRANCH  10   9
BRANCH  12  13
ATOM     13  N   UNL     1     -20.858  34.779  38.894  0.00  0.00    -0.281 N 
ATOM     14  C   UNL     1     -19.534  35.183  38.924  0.00  0.00    +0.248 C 
ATOM     30  O   UNL     1     -19.159  36.295  39.267  0.00  0.00    -0.270 OA
ATOM     31  H   UNL     1     -21.048  33.903  38.407  0.00  0.00    +0.155 HD
BRANCH  14  15
ATOM     15  C   UNL     1     -18.474  34.219  38.500  0.00  0.00    +0.037 A 
ATOM     16  C   UNL     1     -18.807  33.010  37.741  0.00  0.00    +0.013 A 
ATOM     17  C   UNL     1     -17.767  32.087  37.359  0.00  0.00    +0.005 A 
ATOM     18  C   UNL     1     -16.384  32.371  37.734  0.00  0.00    -0.033 A 
ATOM     28  C   UNL     1     -16.082  33.580  38.482  0.00  0.00    +0.005 A 
ATOM     29  C   UNL     1     -17.098  34.486  38.859  0.00  0.00    +0.013 A 
BRANCH  18  19
ATOM     19  C   UNL     1     -15.214  31.432  37.387  0.00  0.00    +0.119 C 
BRANCH  19  20
ATOM     20  N   UNL     1     -14.974  31.144  35.941  0.00  0.00    -0.302 NA
ATOM     21  C   UNL     1     -15.547  32.237  35.035  0.00  0.00    +0.066 C 
ATOM     22  C   UNL     1     -15.268  31.930  33.527  0.00  0.00    -0.064 C 
ATOM     23  N   UNL     1     -15.858  30.565  33.169  0.00  0.00    +0.379 N 
ATOM     24  C   UNL     1     -15.648  30.300  31.739  0.00  0.00    -0.096 C 
ATOM     25  H   UNL     1     -16.958  30.616  33.346  0.00  0.00    -0.082 HD
ATOM     26  C   UNL     1     -15.296  29.473  34.068  0.00  0.00    -0.064 C 
ATOM     27  C   UNL     1     -15.553  29.802  35.565  0.00  0.00    +0.066 C 
ENDBRANCH  19  20
ENDBRANCH  18  19
ENDBRANCH  14  15
ENDBRANCH  12  13
TORSDOF 6
ENDMDL
MODEL 4
REMARK VINA RESULT:      -9.2      2.232     13.322
REMARK  Name = C:\Users\Docking\Desktop\test protocol\1iep_ligandH.pdb
REMARK  8 active torsions:
REMARK  status: ('A' for Active; 'I' for Inactive)
REMARK    1  A    between atoms: _5  and  _11
REMARK    2  A    between atoms: _19  and  _21
REMARK    3  A    between atoms: _22  and  _66
REMARK    4  A    between atoms: _27  and  _30
REMARK    5  A    between atoms: _32  and  _33
REMARK    6  A    between atoms: _38  and  _43
REMARK    7  A    between atoms: _43  and  _46
REMARK    8  A    between atoms: _53  and  _55
REMARK                            x       y       z     vdW  Elec       q    Type
REMARK                         _______ _______ _______ _____ _____    ______ ____
ROOT
ATOM     10  C   UNL     1     -21.764  38.719  20.529  0.00  0.00    +0.038 A 
ATOM     11  C   UNL     1     -22.860  39.427  21.085  0.00  0.00    +0.047 A 
ATOM     12  C   UNL     1     -22.988  39.606  22.523  0.00  0.00    +0.035 A 
ATOM     32  C   UNL     1     -21.980  39.053  23.365  0.00  0.00    +0.024 A 
ATOM     33  C   UNL     1     -20.860  38.329  22.817  0.00  0.00    +0.007 A 
ATOM     34  C   UNL     1     -20.730  38.147  21.399  0.00  0.00    -0.029 A 
ATOM     35  C   UNL     1     -19.512  37.357  20.867  0.00  0.00    +0.045 C 
ENDROOT
BRANCH  10   9
ATOM      4  C   UNL     1     -23.051  36.603  16.417  0.00  0.00    +0.077 A 
ATOM      5  C   UNL     1     -23.923  35.685  17.093  0.00  0.00    +0.048 A 
ATOM      6  C   UNL     1     -24.005  35.786  18.500  0.00  0.00    +0.116 A 
ATOM      7  N   UNL     1     -23.268  36.738  19.171  0.00  0.00    -0.223 NA
ATOM      8  C   UNL     1     -22.436  37.607  18.488  0.00  0.00    +0.220 A 
ATOM      9  N   UNL     1     -21.691  38.577  19.141  0.00  0.00    -0.283 N 
ATOM     36  H   UNL     1     -21.084  39.193  18.603  0.00  0.00    +0.155 HD
ATOM     37  N   UNL     1     -22.338  37.529  17.145  0.00  0.00    -0.214 NA
BRANCH   4   3
ATOM      1  C   UNL     1     -23.490  37.367  12.606  0.00  0.00    +0.020 A 
ATOM      2  C   UNL     1     -23.719  37.381  14.033  0.00  0.00    +0.013 A 
ATOM      3  C   UNL     1     -22.859  36.623  14.933  0.00  0.00    +0.019 A 
ATOM     38  C   UNL     1     -21.766  35.857  14.353  0.00  0.00    +0.120 A 
ATOM     39  N   UNL     1     -21.570  35.862  12.975  0.00  0.00    -0.263 NA
ATOM     40  C   UNL     1     -22.393  36.586  12.099  0.00  0.00    +0.111 A 
ENDBRANCH   4   3
ENDBRANCH  10   9
BRANCH  12  13
ATOM     13  N   UNL     1     -24.082  40.309  23.146  0.00  0.00    -0.281 N 
ATOM     14  C   UNL     1     -25.387  39.876  23.313  0.00  0.00    +0.248 C 
ATOM     30  O   UNL     1     -25.867  38.898  22.759  0.00  0.00    -0.270 OA
ATOM     31  H   UNL     1     -23.869  41.239  23.507  0.00  0.00    +0.155 HD
BRANCH  14  15
ATOM     15  C   UNL     1     -26.294  40.648  24.216  0.00  0.00    +0.037 A 
ATOM     16  C   UNL     1     -27.667  40.206  24.474  0.00  0.00    +0.013 A 
ATOM     17  C   UNL     1     -28.526  40.979  25.335  0.00  0.00    +0.005 A 
ATOM     18  C   UNL     1     -28.014  42.203  25.945  0.00  0.00    -0.033 A 
ATOM     28  C   UNL     1     -26.647  42.616  25.676  0.00  0.00    +0.005 A 
ATOM     29  C   UNL     1     -25.802  41.862  24.832  0.00  0.00    +0.013 A 
BRANCH  18  19
ATOM     19  C   UNL     1     -28.868  43.101  26.860  0.00  0.00    +0.119 C 
BRANCH  19  20
ATOM     20  N   UNL     1     -28.314  43.427  28.208  0.00  0.00    -0.302 NA
ATOM     21  C   UNL     1     -28.992  42.619  29.319  0.00  0.00    +0.066 C 
ATOM     22  C   UNL     1     -28.385  42.956  30.719  0.00  0.00    -0.064 C 
ATOM     23  N   UNL     1     -28.518  44.457  30.983  0.00  0.00    +0.379 N 
ATOM     24  C   UNL     1     -28.001  44.767  32.323  0.00  0.00    -0.096 C 
ATOM     25  H   UNL     1     -29.605  44.706  30.973  0.00  0.00    -0.082 HD
ATOM     26  C   UNL     1     -27.849  45.267  29.882  0.00  0.00    -0.064 C 
ATOM     27  C   UNL     1     -28.439  44.904  28.491  0.00  0.00    +0.066 C 
ENDBRANCH  19  20
ENDBRANCH  18  19
ENDBRANCH  14  15
ENDBRANCH  12  13
TORSDOF 6
ENDMDL
MODEL 5
REMARK VINA RESULT:      -9.1     10.801     15.274
REMARK  Name = C:\Users\Docking\Desktop\test protocol\1iep_ligandH.pdb
REMARK  8 active torsions:
REMARK  status: ('A' for Active; 'I' for Inactive)
REMARK    1  A    between atoms: _5  and  _11
REMARK    2  A    between atoms: _19  and  _21
REMARK    3  A    between atoms: _22  and  _66
REMARK    4  A    between atoms: _27  and  _30
REMARK    5  A    between atoms: _32  and  _33
REMARK    6  A    between atoms: _38  and  _43
REMARK    7  A    between atoms: _43  and  _46
REMARK    8  A    between atoms: _53  and  _55
REMARK                            x       y       z     vdW  Elec       q    Type
REMARK                         _______ _______ _______ _____ _____    ______ ____
ROOT
ATOM     10  C   UNL     1     -25.866  39.240  38.914  0.00  0.00    +0.038 A 
ATOM     11  C   UNL     1     -26.258  39.489  37.573  0.00  0.00    +0.047 A 
ATOM     12  C   UNL     1     -26.268  40.838  37.030  0.00  0.00    +0.035 A 
ATOM     32  C   UNL     1     -25.870  41.911  37.879  0.00  0.00    +0.024 A 
ATOM     33  C   UNL     1     -25.470  41.677  39.245  0.00  0.00    +0.007 A 
ATOM     34  C   UNL     1     -25.461  40.348  39.787  0.00  0.00    -0.029 A 
ATOM     35  C   UNL     1     -25.029  40.157  41.259  0.00  0.00    +0.045 C 
ENDROOT
BRANCH  10   9
ATOM      4  C   UNL     1     -23.715  35.035  39.764  0.00  0.00    +0.077 A 
ATOM      5  C   UNL     1     -22.476  35.488  39.201  0.00  0.00    +0.048 A 
ATOM      6  C   UNL     1     -22.436  36.807  38.696  0.00  0.00    +0.116 A 
ATOM      7  N   UNL     1     -23.557  37.605  38.757  0.00  0.00    -0.223 NA
ATOM      8  C   UNL     1     -24.737  37.137  39.305  0.00  0.00    +0.220 A 
ATOM      9  N   UNL     1     -25.875  37.925  39.383  0.00  0.00    -0.283 N 
ATOM     36  H   UNL     1     -26.728  37.540  39.788  0.00  0.00    +0.155 HD
ATOM     37  N   UNL     1     -24.801  35.880  39.792  0.00  0.00    -0.214 NA
BRANCH   4   3
ATOM      1  C   UNL     1     -24.743  31.288  40.218  0.00  0.00    +0.020 A 
ATOM      2  C   UNL     1     -24.577  32.591  39.616  0.00  0.00    +0.013 A 
ATOM      3  C   UNL     1     -23.914  33.667  40.340  0.00  0.00    +0.019 A 
ATOM     38  C   UNL     1     -23.425  33.390  41.683  0.00  0.00    +0.120 A 
ATOM     39  N   UNL     1     -23.600  32.126  42.237  0.00  0.00    -0.263 NA
ATOM     40  C   UNL     1     -24.239  31.083  41.550  0.00  0.00    +0.111 A 
ENDBRANCH   4   3
ENDBRANCH  10   9
BRANCH  12  13
ATOM     13  N   UNL     1     -26.663  41.152  35.679  0.00  0.00    -0.281 N 
ATOM     14  C   UNL     1     -27.727  41.936  35.264  0.00  0.00    +0.248 C 
ATOM     30  O   UNL     1     -28.633  42.314  35.992  0.00  0.00    -0.270 OA
ATOM     31  H   UNL     1     -26.089  40.747  34.940  0.00  0.00    +0.155 HD
BRANCH  14  15
ATOM     15  C   UNL     1     -27.804  42.347  33.829  0.00  0.00    +0.037 A 
ATOM     16  C   UNL     1     -27.324  41.468  32.760  0.00  0.00    +0.013 A 
ATOM     17  C   UNL     1     -27.394  41.896  31.385  0.00  0.00    +0.005 A 
ATOM     18  C   UNL     1     -27.949  43.211  31.072  0.00  0.00    -0.033 A 
ATOM     28  C   UNL     1     -28.424  44.061  32.152  0.00  0.00    +0.005 A 
ATOM     29  C   UNL     1     -28.355  43.645  33.501  0.00  0.00    +0.013 A 
BRANCH  18  19
ATOM     19  C   UNL     1     -28.044  43.758  29.636  0.00  0.00    +0.119 C 
BRANCH  19  20
ATOM     20  N   UNL     1     -28.143  42.761  28.529  0.00  0.00    -0.302 NA
ATOM     21  C   UNL     1     -27.387  43.214  27.277  0.00  0.00    +0.066 C 
ATOM     22  C   UNL     1     -27.482  42.148  26.137  0.00  0.00    -0.064 C 
ATOM     23  N   UNL     1     -28.954  41.882  25.814  0.00  0.00    +0.379 N 
ATOM     24  C   UNL     1     -29.046  40.924  24.703  0.00  0.00    -0.096 C 
ATOM     25  H   UNL     1     -29.403  42.842  25.471  0.00  0.00    -0.082 HD
ATOM     26  C   UNL     1     -29.714  41.433  27.054  0.00  0.00    -0.064 C 
ATOM     27  C   UNL     1     -29.588  42.486  28.191  0.00  0.00    +0.066 C 
ENDBRANCH  19  20
ENDBRANCH  18  19
ENDBRANCH  14  15
ENDBRANCH  12  13
TORSDOF 6
ENDMDL
